@<TRIPOS>MOLECULE
/home/cewinharhar/GITHUB/reincatalyze/data/processed/docking_pred/2023-Apr-25-2140_maxeplen10_maxtrainstep200_exh16_gamma099_lrac3e-4_lrcr1e-3/f6b0a6d65051a5b20d9eb350202399160ef0f891_ligand_2.pdbqt
 12 12 0 0 0
SMALL
GASTEIGER

@<TRIPOS>ATOM
      1  C          8.4190   -0.6220   -2.1210 C.3     1  UNL1        0.1270
      2  C          8.3610   -1.8850   -2.9030 C.2     1  UNL1        0.3030
      3  O          7.2910   -2.4310   -3.2740 O.2     1  UNL1       -0.2520
      4  O          9.5470   -2.5130   -3.2520 O.3     1  UNL1       -0.4810
      5  H          9.6130   -2.8410   -4.2180 H       1  UNL1        0.2960
      6  C          7.0620    0.0180   -2.1060 C.3     1  UNL1        0.0470
      7  C          6.4790    0.1660   -0.7740 C.2     1  UNL1       -0.0470
      8  C          5.8050    1.2870   -0.3550 C.2     1  UNL1        0.0040
      9  C          6.6050   -0.8650    0.1220 C.2     1  UNL1        0.0040
     10  C          5.2630    1.4100    0.9020 C.2     1  UNL1        0.0000
     11  C          6.0760   -0.7760    1.3890 C.2     1  UNL1        0.0000
     12  C          5.3940    0.3700    1.7960 C.2     1  UNL1        0.0000
@<TRIPOS>BOND
     1     5     4    1
     2     3     2    2
     3     4     2    1
     4     2     1    1
     5     1     6    1
     6     6     7    1
     7     7     8    2
     8     7     9    1
     9     8    10    1
    10     9    11    2
    11    10    12    2
    12    11    12    1
