@<TRIPOS>MOLECULE
/home/cewinharhar/GITHUB/reincatalyze/data/processed/docking_pred/2023-Apr-25-2140_maxeplen10_maxtrainstep200_exh16_gamma099_lrac3e-4_lrcr1e-3/f6b0a6d65051a5b20d9eb350202399160ef0f891_ligand_2.pdbqt
 12 12 0 0 0
SMALL
GASTEIGER

@<TRIPOS>ATOM
      1  C          4.9960    1.8210    0.7000 C.3     1  UNL1        0.1270
      2  C          4.5050    1.1080    1.9090 C.2     1  UNL1        0.3030
      3  O          5.1420    0.1940    2.4900 O.2     1  UNL1       -0.2520
      4  O          3.2750    1.4610    2.4420 O.3     1  UNL1       -0.4810
      5  H          2.5710    1.7790    1.7720 H       1  UNL1        0.2960
      6  C          6.4950    1.8780    0.7280 C.3     1  UNL1        0.0470
      7  C          7.1480    1.1120   -0.3320 C.2     1  UNL1       -0.0470
      8  C          8.4840    1.2090   -0.6320 C.2     1  UNL1        0.0040
      9  C          6.3940    0.2420   -1.0800 C.2     1  UNL1        0.0040
     10  C          9.0820    0.4810   -1.6330 C.2     1  UNL1        0.0000
     11  C          6.9600   -0.5010   -2.0900 C.2     1  UNL1        0.0000
     12  C          8.3190   -0.3900   -2.3800 C.2     1  UNL1        0.0000
@<TRIPOS>BOND
     1    12    11    2
     2    12    10    1
     3    11     9    1
     4    10     8    2
     5     9     7    2
     6     8     7    1
     7     7     6    1
     8     1     6    1
     9     1     2    1
    10     5     4    1
    11     2     4    1
    12     2     3    2
