@<TRIPOS>MOLECULE
/home/cewinharhar/GITHUB/reincatalyze/data/processed/docking_pred/2023-Apr-25-2140_maxeplen10_maxtrainstep200_exh16_gamma099_lrac3e-4_lrcr1e-3/f6b0a6d65051a5b20d9eb350202399160ef0f891_ligand_2.pdbqt
 12 12 0 0 0
SMALL
GASTEIGER

@<TRIPOS>ATOM
      1  C          5.3250    2.8720    0.1560 C.3     1  UNL1        0.1270
      2  C          6.1760    3.8060    0.9380 C.2     1  UNL1        0.3030
      3  O          6.2810    3.7760    2.1910 O.2     1  UNL1       -0.2520
      4  O          6.9040    4.7750    0.2640 O.3     1  UNL1       -0.4810
      5  H          7.0990    4.5840   -0.7210 H       1  UNL1        0.2960
      6  C          5.3120    1.5290    0.8250 C.3     1  UNL1        0.0470
      7  C          6.0700    0.4960    0.1220 C.2     1  UNL1       -0.0470
      8  C          6.5530   -0.6400    0.7230 C.2     1  UNL1        0.0040
      9  C          6.3230    0.6570   -1.2180 C.2     1  UNL1        0.0040
     10  C          7.2650   -1.6010    0.0460 C.2     1  UNL1        0.0000
     11  C          7.0330   -0.2850   -1.9260 C.2     1  UNL1        0.0000
     12  C          7.5150   -1.4330   -1.2990 C.2     1  UNL1        0.0000
@<TRIPOS>BOND
     1    11    12    2
     2    11     9    1
     3    12    10    1
     4     9     7    2
     5     5     4    1
     6    10     8    2
     7     7     8    1
     8     7     6    1
     9     1     6    1
    10     1     2    1
    11     4     2    1
    12     2     3    2
