@<TRIPOS>MOLECULE
/home/cewinharhar/GITHUB/reincatalyze/data/processed/docking_pred/2023-Apr-25-2140_maxeplen10_maxtrainstep200_exh16_gamma099_lrac3e-4_lrcr1e-3/f74925e0f2dbd9eb14447f51d5c862455f02ecd6_ligand_2.pdbqt
 12 12 0 0 0
SMALL
GASTEIGER

@<TRIPOS>ATOM
      1  C          8.2430    0.1560   -2.2000 C.3     1  UNL1        0.1270
      2  C          9.3560    0.3400   -1.2320 C.2     1  UNL1        0.3030
      3  O          9.5120   -0.3610   -0.2010 O.2     1  UNL1       -0.2520
      4  O         10.2880    1.3400   -1.4650 O.3     1  UNL1       -0.4810
      5  H         10.9320    1.5410   -0.6970 H       1  UNL1        0.2960
      6  C          7.1310   -0.6080   -1.5420 C.3     1  UNL1        0.0470
      7  C          6.3690    0.1610   -0.5610 C.2     1  UNL1       -0.0470
      8  C          6.1370   -0.2590    0.7250 C.2     1  UNL1        0.0040
      9  C          5.8460    1.3750   -0.9320 C.2     1  UNL1        0.0040
     10  C          5.4170    0.4770    1.6360 C.2     1  UNL1        0.0000
     11  C          5.1190    2.1370   -0.0470 C.2     1  UNL1        0.0000
     12  C          4.8950    1.6950    1.2560 C.2     1  UNL1        0.0000
@<TRIPOS>BOND
     1     1     6    1
     2     1     2    1
     3     6     7    1
     4     4     2    1
     5     4     5    1
     6     2     3    2
     7     9     7    2
     8     9    11    1
     9     7     8    1
    10    11    12    2
    11     8    10    2
    12    12    10    1
