@<TRIPOS>MOLECULE
/home/cewinharhar/GITHUB/reincatalyze/data/processed/docking_pred/2023-Apr-25-2140_maxeplen10_maxtrainstep200_exh16_gamma099_lrac3e-4_lrcr1e-3/f74925e0f2dbd9eb14447f51d5c862455f02ecd6_ligand_2.pdbqt
 12 12 0 0 0
SMALL
GASTEIGER

@<TRIPOS>ATOM
      1  C          8.4220   -0.5900   -2.1960 C.3     1  UNL1        0.1270
      2  C          8.3690   -1.8840   -2.9250 C.2     1  UNL1        0.3030
      3  O          7.3010   -2.4440   -3.2820 O.2     1  UNL1       -0.2520
      4  O          9.5570   -2.5260   -3.2390 O.3     1  UNL1       -0.4810
      5  H         10.3670   -2.2760   -2.6660 H       1  UNL1        0.2960
      6  C          7.0400   -0.0120   -2.1020 C.3     1  UNL1        0.0470
      7  C          6.5060    0.0550   -0.7440 C.2     1  UNL1       -0.0470
      8  C          6.6150   -0.9620    0.1720 C.2     1  UNL1        0.0040
      9  C          5.8520    1.1950   -0.3450 C.2     1  UNL1        0.0040
     10  C          6.1060   -0.8820    1.4460 C.2     1  UNL1        0.0000
     11  C          5.3290    1.3090    0.9220 C.2     1  UNL1        0.0000
     12  C          5.4510    0.2660    1.8390 C.2     1  UNL1        0.0000
@<TRIPOS>BOND
     1     3     2    2
     2     4     2    1
     3     4     5    1
     4     2     1    1
     5     1     6    1
     6     6     7    1
     7     7     9    2
     8     7     8    1
     9     9    11    1
    10     8    10    2
    11    11    12    2
    12    10    12    1
