MODEL 1
REMARK VINA RESULT:      -7.3      0.000      0.000
REMARK SMILES O=C(O)CCc1ccccc1
REMARK SMILES IDX 4 1 2 2 1 3 3 4 5 6 6 7 7 8 11 9 8 10 10 11 9 12
REMARK H PARENT 3 5
REMARK Flexibility Score: inf
ROOT
ATOM      1  C   UNL     1       8.456  -0.611  -2.150  1.00  0.00     0.127 C 
ENDROOT
BRANCH   1   2
ATOM      2  C   UNL     1       8.516  -1.893  -2.899  1.00  0.00     0.303 C 
ATOM      3  O   UNL     1       9.578  -2.532  -3.111  1.00  0.00    -0.252 OA
BRANCH   2   4
ATOM      4  O   UNL     1       7.341  -2.432  -3.402  1.00  0.00    -0.481 OA
ATOM      5  H   UNL     1       6.546  -2.449  -2.760  1.00  0.00     0.296 HD
ENDBRANCH   2   4
ENDBRANCH   1   2
BRANCH   1   6
ATOM      6  C   UNL     1       7.040  -0.113  -2.126  1.00  0.00     0.047 C 
BRANCH   6   7
ATOM      7  C   UNL     1       6.482   0.058  -0.787  1.00  0.00    -0.047 A 
ATOM      8  C   UNL     1       5.830   1.192  -0.370  1.00  0.00     0.004 A 
ATOM      9  C   UNL     1       6.611  -0.965   0.119  1.00  0.00     0.004 A 
ATOM     10  C   UNL     1       5.311   1.336   0.895  1.00  0.00     0.000 A 
ATOM     11  C   UNL     1       6.104  -0.855   1.394  1.00  0.00     0.000 A 
ATOM     12  C   UNL     1       5.444   0.304   1.799  1.00  0.00     0.000 A 
ENDBRANCH   6   7
ENDBRANCH   1   6
TORSDOF 4
ENDMDL
MODEL 2
REMARK VINA RESULT:      -7.2      0.088      1.721
REMARK SMILES O=C(O)CCc1ccccc1
REMARK SMILES IDX 4 1 2 2 1 3 3 4 5 6 6 7 7 8 11 9 8 10 10 11 9 12
REMARK H PARENT 3 5
REMARK Flexibility Score: inf
ROOT
ATOM      1  C   UNL     1       8.422  -0.590  -2.196  1.00  0.00     0.127 C 
ENDROOT
BRANCH   1   2
ATOM      2  C   UNL     1       8.369  -1.884  -2.925  1.00  0.00     0.303 C 
ATOM      3  O   UNL     1       7.301  -2.444  -3.282  1.00  0.00    -0.252 OA
BRANCH   2   4
ATOM      4  O   UNL     1       9.557  -2.526  -3.239  1.00  0.00    -0.481 OA
ATOM      5  H   UNL     1      10.367  -2.276  -2.666  1.00  0.00     0.296 HD
ENDBRANCH   2   4
ENDBRANCH   1   2
BRANCH   1   6
ATOM      6  C   UNL     1       7.040  -0.012  -2.102  1.00  0.00     0.047 C 
BRANCH   6   7
ATOM      7  C   UNL     1       6.506   0.055  -0.744  1.00  0.00    -0.047 A 
ATOM      8  C   UNL     1       6.615  -0.962   0.172  1.00  0.00     0.004 A 
ATOM      9  C   UNL     1       5.852   1.195  -0.345  1.00  0.00     0.004 A 
ATOM     10  C   UNL     1       6.106  -0.882   1.446  1.00  0.00     0.000 A 
ATOM     11  C   UNL     1       5.329   1.309   0.922  1.00  0.00     0.000 A 
ATOM     12  C   UNL     1       5.451   0.266   1.839  1.00  0.00     0.000 A 
ENDBRANCH   6   7
ENDBRANCH   1   6
TORSDOF 4
ENDMDL
MODEL 3
REMARK VINA RESULT:      -6.7      3.374      5.076
REMARK SMILES O=C(O)CCc1ccccc1
REMARK SMILES IDX 4 1 2 2 1 3 3 4 5 6 6 7 7 8 11 9 8 10 10 11 9 12
REMARK H PARENT 3 5
REMARK Flexibility Score: inf
ROOT
ATOM      1  C   UNL     1       4.978   1.827   0.692  1.00  0.00     0.127 C 
ENDROOT
BRANCH   1   2
ATOM      2  C   UNL     1       4.490   1.111   1.899  1.00  0.00     0.303 C 
ATOM      3  O   UNL     1       5.122   0.186   2.469  1.00  0.00    -0.252 OA
BRANCH   2   4
ATOM      4  O   UNL     1       3.266   1.472   2.443  1.00  0.00    -0.481 OA
ATOM      5  H   UNL     1       3.015   2.460   2.366  1.00  0.00     0.296 HD
ENDBRANCH   2   4
ENDBRANCH   1   2
BRANCH   1   6
ATOM      6  C   UNL     1       6.477   1.890   0.721  1.00  0.00     0.047 C 
BRANCH   6   7
ATOM      7  C   UNL     1       7.135   1.123  -0.334  1.00  0.00    -0.047 A 
ATOM      8  C   UNL     1       8.473   1.218  -0.627  1.00  0.00     0.004 A 
ATOM      9  C   UNL     1       6.385   0.253  -1.086  1.00  0.00     0.004 A 
ATOM     10  C   UNL     1       9.076   0.488  -1.624  1.00  0.00     0.000 A 
ATOM     11  C   UNL     1       6.955  -0.492  -2.093  1.00  0.00     0.000 A 
ATOM     12  C   UNL     1       8.316  -0.383  -2.375  1.00  0.00     0.000 A 
ENDBRANCH   6   7
ENDBRANCH   1   6
TORSDOF 4
ENDMDL
MODEL 4
REMARK VINA RESULT:      -6.6      1.936      2.629
REMARK SMILES O=C(O)CCc1ccccc1
REMARK SMILES IDX 4 1 2 2 1 3 3 4 5 6 6 7 7 8 11 9 8 10 10 11 9 12
REMARK H PARENT 3 5
REMARK Flexibility Score: inf
ROOT
ATOM      1  C   UNL     1       8.243   0.156  -2.200  1.00  0.00     0.127 C 
ENDROOT
BRANCH   1   2
ATOM      2  C   UNL     1       9.356   0.340  -1.232  1.00  0.00     0.303 C 
ATOM      3  O   UNL     1       9.512  -0.361  -0.201  1.00  0.00    -0.252 OA
BRANCH   2   4
ATOM      4  O   UNL     1      10.288   1.340  -1.465  1.00  0.00    -0.481 OA
ATOM      5  H   UNL     1      10.932   1.541  -0.697  1.00  0.00     0.296 HD
ENDBRANCH   2   4
ENDBRANCH   1   2
BRANCH   1   6
ATOM      6  C   UNL     1       7.131  -0.608  -1.542  1.00  0.00     0.047 C 
BRANCH   6   7
ATOM      7  C   UNL     1       6.369   0.161  -0.561  1.00  0.00    -0.047 A 
ATOM      8  C   UNL     1       6.137  -0.259   0.725  1.00  0.00     0.004 A 
ATOM      9  C   UNL     1       5.846   1.375  -0.932  1.00  0.00     0.004 A 
ATOM     10  C   UNL     1       5.417   0.477   1.636  1.00  0.00     0.000 A 
ATOM     11  C   UNL     1       5.119   2.137  -0.047  1.00  0.00     0.000 A 
ATOM     12  C   UNL     1       4.895   1.695   1.256  1.00  0.00     0.000 A 
ENDBRANCH   6   7
ENDBRANCH   1   6
TORSDOF 4
ENDMDL
MODEL 5
REMARK VINA RESULT:      -6.5      2.057      2.658
REMARK SMILES O=C(O)CCc1ccccc1
REMARK SMILES IDX 4 1 2 2 1 3 3 4 5 6 6 7 7 8 11 9 8 10 10 11 9 12
REMARK H PARENT 3 5
REMARK Flexibility Score: inf
ROOT
ATOM      1  C   UNL     1       8.088  -2.271   0.796  1.00  0.00     0.127 C 
ENDROOT
BRANCH   1   2
ATOM      2  C   UNL     1       8.828  -3.455   0.286  1.00  0.00     0.303 C 
ATOM      3  O   UNL     1       8.729  -3.891  -0.889  1.00  0.00    -0.252 OA
BRANCH   2   4
ATOM      4  O   UNL     1       9.684  -4.131   1.142  1.00  0.00    -0.481 OA
ATOM      5  H   UNL     1       9.244  -4.597   1.939  1.00  0.00     0.296 HD
ENDBRANCH   2   4
ENDBRANCH   1   2
BRANCH   1   6
ATOM      6  C   UNL     1       7.452  -1.546  -0.354  1.00  0.00     0.047 C 
BRANCH   6   7
ATOM      7  C   UNL     1       6.609  -0.418   0.035  1.00  0.00    -0.047 A 
ATOM      8  C   UNL     1       6.329   0.646  -0.786  1.00  0.00     0.004 A 
ATOM      9  C   UNL     1       6.059  -0.405   1.293  1.00  0.00     0.004 A 
ATOM     10  C   UNL     1       5.534   1.700  -0.404  1.00  0.00     0.000 A 
ATOM     11  C   UNL     1       5.259   0.634   1.710  1.00  0.00     0.000 A 
ATOM     12  C   UNL     1       4.986   1.706   0.861  1.00  0.00     0.000 A 
ENDBRANCH   6   7
ENDBRANCH   1   6
TORSDOF 4
ENDMDL
