@<TRIPOS>MOLECULE
/home/cewinharhar/GITHUB/reincatalyze/data/processed/docking_pred/2023-Apr-25-2140_maxeplen10_maxtrainstep200_exh16_gamma099_lrac3e-4_lrcr1e-3/f74925e0f2dbd9eb14447f51d5c862455f02ecd6_ligand_2.pdbqt
 12 12 0 0 0
SMALL
GASTEIGER

@<TRIPOS>ATOM
      1  C          8.0880   -2.2710    0.7960 C.3     1  UNL1        0.1270
      2  C          8.8280   -3.4550    0.2860 C.2     1  UNL1        0.3030
      3  O          8.7290   -3.8910   -0.8890 O.2     1  UNL1       -0.2520
      4  O          9.6840   -4.1310    1.1420 O.3     1  UNL1       -0.4810
      5  H          9.2440   -4.5970    1.9390 H       1  UNL1        0.2960
      6  C          7.4520   -1.5460   -0.3540 C.3     1  UNL1        0.0470
      7  C          6.6090   -0.4180    0.0350 C.2     1  UNL1       -0.0470
      8  C          6.3290    0.6460   -0.7860 C.2     1  UNL1        0.0040
      9  C          6.0590   -0.4050    1.2930 C.2     1  UNL1        0.0040
     10  C          5.5340    1.7000   -0.4040 C.2     1  UNL1        0.0000
     11  C          5.2590    0.6340    1.7100 C.2     1  UNL1        0.0000
     12  C          4.9860    1.7060    0.8610 C.2     1  UNL1        0.0000
@<TRIPOS>BOND
     1     3     2    2
     2     8    10    1
     3     8     7    2
     4    10    12    2
     5     6     7    1
     6     6     1    1
     7     7     9    1
     8     2     1    1
     9     2     4    1
    10    12    11    1
    11     4     5    1
    12     9    11    2
