@<TRIPOS>MOLECULE
/home/cewinharhar/GITHUB/reincatalyze/data/processed/docking_pred/2023-Apr-25-2140_maxeplen10_maxtrainstep200_exh16_gamma099_lrac3e-4_lrcr1e-3/f74925e0f2dbd9eb14447f51d5c862455f02ecd6_ligand_2.pdbqt
 12 12 0 0 0
SMALL
GASTEIGER

@<TRIPOS>ATOM
      1  C          8.4560   -0.6110   -2.1500 C.3     1  UNL1        0.1270
      2  C          8.5160   -1.8930   -2.8990 C.2     1  UNL1        0.3030
      3  O          9.5780   -2.5320   -3.1110 O.2     1  UNL1       -0.2520
      4  O          7.3410   -2.4320   -3.4020 O.3     1  UNL1       -0.4810
      5  H          6.5460   -2.4490   -2.7600 H       1  UNL1        0.2960
      6  C          7.0400   -0.1130   -2.1260 C.3     1  UNL1        0.0470
      7  C          6.4820    0.0580   -0.7870 C.2     1  UNL1       -0.0470
      8  C          5.8300    1.1920   -0.3700 C.2     1  UNL1        0.0040
      9  C          6.6110   -0.9650    0.1190 C.2     1  UNL1        0.0040
     10  C          5.3110    1.3360    0.8950 C.2     1  UNL1        0.0000
     11  C          6.1040   -0.8550    1.3940 C.2     1  UNL1        0.0000
     12  C          5.4440    0.3040    1.7990 C.2     1  UNL1        0.0000
@<TRIPOS>BOND
     1     4     2    1
     2     4     5    1
     3     3     2    2
     4     2     1    1
     5     1     6    1
     6     6     7    1
     7     7     8    2
     8     7     9    1
     9     8    10    1
    10     9    11    2
    11    10    12    2
    12    11    12    1
