@<TRIPOS>MOLECULE
/home/cewinharhar/GITHUB/reincatalyze/data/processed/docking_pred/2023-Apr-25-2140_maxeplen10_maxtrainstep200_exh16_gamma099_lrac3e-4_lrcr1e-3/f74925e0f2dbd9eb14447f51d5c862455f02ecd6_ligand_2.pdbqt
 12 12 0 0 0
SMALL
GASTEIGER

@<TRIPOS>ATOM
      1  C          4.9780    1.8270    0.6920 C.3     1  UNL1        0.1270
      2  C          4.4900    1.1110    1.8990 C.2     1  UNL1        0.3030
      3  O          5.1220    0.1860    2.4690 O.2     1  UNL1       -0.2520
      4  O          3.2660    1.4720    2.4430 O.3     1  UNL1       -0.4810
      5  H          3.0150    2.4600    2.3660 H       1  UNL1        0.2960
      6  C          6.4770    1.8900    0.7210 C.3     1  UNL1        0.0470
      7  C          7.1350    1.1230   -0.3340 C.2     1  UNL1       -0.0470
      8  C          8.4730    1.2180   -0.6270 C.2     1  UNL1        0.0040
      9  C          6.3850    0.2530   -1.0860 C.2     1  UNL1        0.0040
     10  C          9.0760    0.4880   -1.6240 C.2     1  UNL1        0.0000
     11  C          6.9550   -0.4920   -2.0930 C.2     1  UNL1        0.0000
     12  C          8.3160   -0.3830   -2.3750 C.2     1  UNL1        0.0000
@<TRIPOS>BOND
     1    12    11    2
     2    12    10    1
     3    11     9    1
     4    10     8    2
     5     9     7    2
     6     8     7    1
     7     7     6    1
     8     1     6    1
     9     1     2    1
    10     2     4    1
    11     2     3    2
    12     5     4    1
