@<TRIPOS>MOLECULE
/home/cewinharhar/GITHUB/reincatalyze/data/processed/docking_pred/2023-Apr-25-2140_maxeplen10_maxtrainstep200_exh16_gamma099_lrac3e-4_lrcr1e-3/f9550a52c30547fdb3e6e224a3b8a38c5560e948_ligand_2.pdbqt
 12 12 0 0 0
SMALL
GASTEIGER

@<TRIPOS>ATOM
      1  C          4.9950    1.7330    0.6240 C.3     1  UNL1        0.1270
      2  C          4.4960    1.0330    1.8360 C.2     1  UNL1        0.3030
      3  O          5.0780    0.0570    2.3720 O.2     1  UNL1       -0.2520
      4  O          3.3180    1.4700    2.4250 O.3     1  UNL1       -0.4810
      5  H          3.3020    2.4470    2.7240 H       1  UNL1        0.2960
      6  C          6.4940    1.7980    0.6670 C.3     1  UNL1        0.0470
      7  C          7.1610    1.0180   -0.3730 C.2     1  UNL1       -0.0470
      8  C          8.4940    1.1370   -0.6800 C.2     1  UNL1        0.0040
      9  C          6.4270    0.1090   -1.0940 C.2     1  UNL1        0.0040
     10  C          9.1070    0.3950   -1.6620 C.2     1  UNL1        0.0000
     11  C          7.0070   -0.6490   -2.0840 C.2     1  UNL1        0.0000
     12  C          8.3620   -0.5150   -2.3810 C.2     1  UNL1        0.0000
@<TRIPOS>BOND
     1    12    11    2
     2    12    10    1
     3    11     9    1
     4    10     8    2
     5     9     7    2
     6     8     7    1
     7     7     6    1
     8     1     6    1
     9     1     2    1
    10     2     3    2
    11     2     4    1
    12     4     5    1
