@<TRIPOS>MOLECULE
/home/cewinharhar/GITHUB/reincatalyze/data/processed/docking_pred/2023-Apr-25-2140_maxeplen10_maxtrainstep200_exh16_gamma099_lrac3e-4_lrcr1e-3/f9550a52c30547fdb3e6e224a3b8a38c5560e948_ligand_2.pdbqt
 12 12 0 0 0
SMALL
GASTEIGER

@<TRIPOS>ATOM
      1  C          8.4330   -0.5920   -2.2060 C.3     1  UNL1        0.1270
      2  C          8.4960   -1.9030   -2.9030 C.2     1  UNL1        0.3030
      3  O          9.5540   -2.5650   -3.0570 O.2     1  UNL1       -0.2520
      4  O          7.3290   -2.4450   -3.4200 O.3     1  UNL1       -0.4810
      5  H          6.8190   -1.8590   -4.0850 H       1  UNL1        0.2960
      6  C          7.0110   -0.1110   -2.1760 C.3     1  UNL1        0.0470
      7  C          6.4540    0.0380   -0.8340 C.2     1  UNL1       -0.0470
      8  C          5.8240    1.1750   -0.3900 C.2     1  UNL1        0.0040
      9  C          6.5580   -1.0090    0.0470 C.2     1  UNL1        0.0040
     10  C          5.3040    1.2990    0.8770 C.2     1  UNL1        0.0000
     11  C          6.0500   -0.9200    1.3230 C.2     1  UNL1        0.0000
     12  C          5.4130    0.2420    1.7550 C.2     1  UNL1        0.0000
@<TRIPOS>BOND
     1     5     4    1
     2     4     2    1
     3     3     2    2
     4     2     1    1
     5     1     6    1
     6     6     7    1
     7     7     8    2
     8     7     9    1
     9     8    10    1
    10     9    11    2
    11    10    12    2
    12    11    12    1
