MODEL 1
REMARK VINA RESULT:      -7.3      0.000      0.000
REMARK SMILES O=C(O)CCc1ccccc1
REMARK SMILES IDX 4 1 2 2 1 3 3 4 5 6 6 7 7 8 11 9 8 10 10 11 9 12
REMARK H PARENT 3 5
REMARK Flexibility Score: inf
ROOT
ATOM      1  C   UNL     1       8.453  -0.580  -2.185  1.00  0.00     0.127 C 
ENDROOT
BRANCH   1   2
ATOM      2  C   UNL     1       8.510  -1.882  -2.899  1.00  0.00     0.303 C 
ATOM      3  O   UNL     1       9.570  -2.529  -3.095  1.00  0.00    -0.252 OA
BRANCH   2   4
ATOM      4  O   UNL     1       7.333  -2.432  -3.385  1.00  0.00    -0.481 OA
ATOM      5  H   UNL     1       7.395  -3.393  -3.727  1.00  0.00     0.296 HD
ENDBRANCH   2   4
ENDBRANCH   1   2
BRANCH   1   6
ATOM      6  C   UNL     1       7.032  -0.103  -2.127  1.00  0.00     0.047 C 
BRANCH   6   7
ATOM      7  C   UNL     1       6.476  -0.025  -0.778  1.00  0.00    -0.047 A 
ATOM      8  C   UNL     1       6.550  -1.044   0.139  1.00  0.00     0.004 A 
ATOM      9  C   UNL     1       5.839   1.127  -0.390  1.00  0.00     0.004 A 
ATOM     10  C   UNL     1       6.021  -0.954   1.405  1.00  0.00     0.000 A 
ATOM     11  C   UNL     1       5.297   1.252   0.868  1.00  0.00     0.000 A 
ATOM     12  C   UNL     1       5.383   0.207   1.786  1.00  0.00     0.000 A 
ENDBRANCH   6   7
ENDBRANCH   1   6
TORSDOF 4
ENDMDL
MODEL 2
REMARK VINA RESULT:      -7.3      0.062      1.426
REMARK SMILES O=C(O)CCc1ccccc1
REMARK SMILES IDX 4 1 2 2 1 3 3 4 5 6 6 7 7 8 11 9 8 10 10 11 9 12
REMARK H PARENT 3 5
REMARK Flexibility Score: inf
ROOT
ATOM      1  C   UNL     1       8.433  -0.592  -2.206  1.00  0.00     0.127 C 
ENDROOT
BRANCH   1   2
ATOM      2  C   UNL     1       8.496  -1.903  -2.903  1.00  0.00     0.303 C 
ATOM      3  O   UNL     1       9.554  -2.565  -3.057  1.00  0.00    -0.252 OA
BRANCH   2   4
ATOM      4  O   UNL     1       7.329  -2.445  -3.420  1.00  0.00    -0.481 OA
ATOM      5  H   UNL     1       6.819  -1.859  -4.085  1.00  0.00     0.296 HD
ENDBRANCH   2   4
ENDBRANCH   1   2
BRANCH   1   6
ATOM      6  C   UNL     1       7.011  -0.111  -2.176  1.00  0.00     0.047 C 
BRANCH   6   7
ATOM      7  C   UNL     1       6.454   0.038  -0.834  1.00  0.00    -0.047 A 
ATOM      8  C   UNL     1       5.824   1.175  -0.390  1.00  0.00     0.004 A 
ATOM      9  C   UNL     1       6.558  -1.009   0.047  1.00  0.00     0.004 A 
ATOM     10  C   UNL     1       5.304   1.299   0.877  1.00  0.00     0.000 A 
ATOM     11  C   UNL     1       6.050  -0.920   1.323  1.00  0.00     0.000 A 
ATOM     12  C   UNL     1       5.413   0.242   1.755  1.00  0.00     0.000 A 
ENDBRANCH   6   7
ENDBRANCH   1   6
TORSDOF 4
ENDMDL
MODEL 3
REMARK VINA RESULT:      -6.8      3.336      5.028
REMARK SMILES O=C(O)CCc1ccccc1
REMARK SMILES IDX 4 1 2 2 1 3 3 4 5 6 6 7 7 8 11 9 8 10 10 11 9 12
REMARK H PARENT 3 5
REMARK Flexibility Score: inf
ROOT
ATOM      1  C   UNL     1       4.993   1.716   0.696  1.00  0.00     0.127 C 
ENDROOT
BRANCH   1   2
ATOM      2  C   UNL     1       4.576   0.997   1.927  1.00  0.00     0.303 C 
ATOM      3  O   UNL     1       5.269   0.114   2.492  1.00  0.00    -0.252 OA
BRANCH   2   4
ATOM      4  O   UNL     1       3.352   1.305   2.501  1.00  0.00    -0.481 OA
ATOM      5  H   UNL     1       3.204   2.287   2.743  1.00  0.00     0.296 HD
ENDBRANCH   2   4
ENDBRANCH   1   2
BRANCH   1   6
ATOM      6  C   UNL     1       6.490   1.808   0.654  1.00  0.00     0.047 C 
BRANCH   6   7
ATOM      7  C   UNL     1       7.116   0.997  -0.389  1.00  0.00    -0.047 A 
ATOM      8  C   UNL     1       6.451   0.040  -1.115  1.00  0.00     0.004 A 
ATOM      9  C   UNL     1       8.445   1.191  -0.670  1.00  0.00     0.004 A 
ATOM     10  C   UNL     1       7.055  -0.714  -2.092  1.00  0.00     0.000 A 
ATOM     11  C   UNL     1       9.082   0.453  -1.641  1.00  0.00     0.000 A 
ATOM     12  C   UNL     1       8.390  -0.514  -2.368  1.00  0.00     0.000 A 
ENDBRANCH   6   7
ENDBRANCH   1   6
TORSDOF 4
ENDMDL
MODEL 4
REMARK VINA RESULT:      -6.8      3.333      5.058
REMARK SMILES O=C(O)CCc1ccccc1
REMARK SMILES IDX 4 1 2 2 1 3 3 4 5 6 6 7 7 8 11 9 8 10 10 11 9 12
REMARK H PARENT 3 5
REMARK Flexibility Score: inf
ROOT
ATOM      1  C   UNL     1       4.995   1.733   0.624  1.00  0.00     0.127 C 
ENDROOT
BRANCH   1   2
ATOM      2  C   UNL     1       4.496   1.033   1.836  1.00  0.00     0.303 C 
ATOM      3  O   UNL     1       5.078   0.057   2.372  1.00  0.00    -0.252 OA
BRANCH   2   4
ATOM      4  O   UNL     1       3.318   1.470   2.425  1.00  0.00    -0.481 OA
ATOM      5  H   UNL     1       3.302   2.447   2.724  1.00  0.00     0.296 HD
ENDBRANCH   2   4
ENDBRANCH   1   2
BRANCH   1   6
ATOM      6  C   UNL     1       6.494   1.798   0.667  1.00  0.00     0.047 C 
BRANCH   6   7
ATOM      7  C   UNL     1       7.161   1.018  -0.373  1.00  0.00    -0.047 A 
ATOM      8  C   UNL     1       8.494   1.137  -0.680  1.00  0.00     0.004 A 
ATOM      9  C   UNL     1       6.427   0.109  -1.094  1.00  0.00     0.004 A 
ATOM     10  C   UNL     1       9.107   0.395  -1.662  1.00  0.00     0.000 A 
ATOM     11  C   UNL     1       7.007  -0.649  -2.084  1.00  0.00     0.000 A 
ATOM     12  C   UNL     1       8.362  -0.515  -2.381  1.00  0.00     0.000 A 
ENDBRANCH   6   7
ENDBRANCH   1   6
TORSDOF 4
ENDMDL
MODEL 5
REMARK VINA RESULT:      -6.6      1.938      2.612
REMARK SMILES O=C(O)CCc1ccccc1
REMARK SMILES IDX 4 1 2 2 1 3 3 4 5 6 6 7 7 8 11 9 8 10 10 11 9 12
REMARK H PARENT 3 5
REMARK Flexibility Score: inf
ROOT
ATOM      1  C   UNL     1       8.196   0.227  -2.117  1.00  0.00     0.127 C 
ENDROOT
BRANCH   1   2
ATOM      2  C   UNL     1       9.346   0.333  -1.182  1.00  0.00     0.303 C 
ATOM      3  O   UNL     1       9.485  -0.383  -0.158  1.00  0.00    -0.252 OA
BRANCH   2   4
ATOM      4  O   UNL     1      10.334   1.272  -1.437  1.00  0.00    -0.481 OA
ATOM      5  H   UNL     1      11.285   0.908  -1.530  1.00  0.00     0.296 HD
ENDBRANCH   2   4
ENDBRANCH   1   2
BRANCH   1   6
ATOM      6  C   UNL     1       7.121  -0.614  -1.494  1.00  0.00     0.047 C 
BRANCH   6   7
ATOM      7  C   UNL     1       6.337   0.071  -0.469  1.00  0.00    -0.047 A 
ATOM      8  C   UNL     1       5.816   1.332  -0.620  1.00  0.00     0.004 A 
ATOM      9  C   UNL     1       6.099  -0.571   0.721  1.00  0.00     0.004 A 
ATOM     10  C   UNL     1       5.081   1.962   0.356  1.00  0.00     0.000 A 
ATOM     11  C   UNL     1       5.367   0.030   1.720  1.00  0.00     0.000 A 
ATOM     12  C   UNL     1       4.846   1.311   1.548  1.00  0.00     0.000 A 
ENDBRANCH   6   7
ENDBRANCH   1   6
TORSDOF 4
ENDMDL
