@<TRIPOS>MOLECULE
/home/cewinharhar/GITHUB/reincatalyze/data/processed/docking_pred/2023-Apr-25-2140_maxeplen10_maxtrainstep200_exh16_gamma099_lrac3e-4_lrcr1e-3/f9550a52c30547fdb3e6e224a3b8a38c5560e948_ligand_2.pdbqt
 12 12 0 0 0
SMALL
GASTEIGER

@<TRIPOS>ATOM
      1  C          8.1960    0.2270   -2.1170 C.3     1  UNL1        0.1270
      2  C          9.3460    0.3330   -1.1820 C.2     1  UNL1        0.3030
      3  O          9.4850   -0.3830   -0.1580 O.2     1  UNL1       -0.2520
      4  O         10.3340    1.2720   -1.4370 O.3     1  UNL1       -0.4810
      5  H         11.2850    0.9080   -1.5300 H       1  UNL1        0.2960
      6  C          7.1210   -0.6140   -1.4940 C.3     1  UNL1        0.0470
      7  C          6.3370    0.0710   -0.4690 C.2     1  UNL1       -0.0470
      8  C          5.8160    1.3320   -0.6200 C.2     1  UNL1        0.0040
      9  C          6.0990   -0.5710    0.7210 C.2     1  UNL1        0.0040
     10  C          5.0810    1.9620    0.3560 C.2     1  UNL1        0.0000
     11  C          5.3670    0.0300    1.7200 C.2     1  UNL1        0.0000
     12  C          4.8460    1.3110    1.5480 C.2     1  UNL1        0.0000
@<TRIPOS>BOND
     1     1     6    1
     2     1     2    1
     3     5     4    1
     4     6     7    1
     5     4     2    1
     6     2     3    2
     7     8     7    2
     8     8    10    1
     9     7     9    1
    10    10    12    2
    11     9    11    2
    12    12    11    1
