@<TRIPOS>MOLECULE
/home/cewinharhar/GITHUB/reincatalyze/data/processed/docking_pred/2023-Apr-25-2140_maxeplen10_maxtrainstep200_exh16_gamma099_lrac3e-4_lrcr1e-3/f9550a52c30547fdb3e6e224a3b8a38c5560e948_ligand_2.pdbqt
 12 12 0 0 0
SMALL
GASTEIGER

@<TRIPOS>ATOM
      1  C          4.9930    1.7160    0.6960 C.3     1  UNL1        0.1270
      2  C          4.5760    0.9970    1.9270 C.2     1  UNL1        0.3030
      3  O          5.2690    0.1140    2.4920 O.2     1  UNL1       -0.2520
      4  O          3.3520    1.3050    2.5010 O.3     1  UNL1       -0.4810
      5  H          3.2040    2.2870    2.7430 H       1  UNL1        0.2960
      6  C          6.4900    1.8080    0.6540 C.3     1  UNL1        0.0470
      7  C          7.1160    0.9970   -0.3890 C.2     1  UNL1       -0.0470
      8  C          6.4510    0.0400   -1.1150 C.2     1  UNL1        0.0040
      9  C          8.4450    1.1910   -0.6700 C.2     1  UNL1        0.0040
     10  C          7.0550   -0.7140   -2.0920 C.2     1  UNL1        0.0000
     11  C          9.0820    0.4530   -1.6410 C.2     1  UNL1        0.0000
     12  C          8.3900   -0.5140   -2.3680 C.2     1  UNL1        0.0000
@<TRIPOS>BOND
     1    12    10    2
     2    12    11    1
     3    10     8    1
     4    11     9    2
     5     8     7    2
     6     9     7    1
     7     7     6    1
     8     6     1    1
     9     1     2    1
    10     2     3    2
    11     2     4    1
    12     4     5    1
