@<TRIPOS>MOLECULE
/home/cewinharhar/GITHUB/reincatalyze/data/processed/docking_pred/2023-Apr-25-2140_maxeplen10_maxtrainstep200_exh16_gamma099_lrac3e-4_lrcr1e-3/f9550a52c30547fdb3e6e224a3b8a38c5560e948_ligand_2.pdbqt
 12 12 0 0 0
SMALL
GASTEIGER

@<TRIPOS>ATOM
      1  C          8.4530   -0.5800   -2.1850 C.3     1  UNL1        0.1270
      2  C          8.5100   -1.8820   -2.8990 C.2     1  UNL1        0.3030
      3  O          9.5700   -2.5290   -3.0950 O.2     1  UNL1       -0.2520
      4  O          7.3330   -2.4320   -3.3850 O.3     1  UNL1       -0.4810
      5  H          7.3950   -3.3930   -3.7270 H       1  UNL1        0.2960
      6  C          7.0320   -0.1030   -2.1270 C.3     1  UNL1        0.0470
      7  C          6.4760   -0.0250   -0.7780 C.2     1  UNL1       -0.0470
      8  C          6.5500   -1.0440    0.1390 C.2     1  UNL1        0.0040
      9  C          5.8390    1.1270   -0.3900 C.2     1  UNL1        0.0040
     10  C          6.0210   -0.9540    1.4050 C.2     1  UNL1        0.0000
     11  C          5.2970    1.2520    0.8680 C.2     1  UNL1        0.0000
     12  C          5.3830    0.2070    1.7860 C.2     1  UNL1        0.0000
@<TRIPOS>BOND
     1     5     4    1
     2     4     2    1
     3     3     2    2
     4     2     1    1
     5     1     6    1
     6     6     7    1
     7     7     9    2
     8     7     8    1
     9     9    11    1
    10     8    10    2
    11    11    12    2
    12    10    12    1
