@<TRIPOS>MOLECULE
/home/cewinharhar/GITHUB/reincatalyze/data/processed/docking_pred/2023-Apr-25-2140_maxeplen10_maxtrainstep200_exh16_gamma099_lrac3e-4_lrcr1e-3/fbb46063794dc265e75c2cefc4e8ae8bb502d9b1_ligand_2.pdbqt
 12 12 0 0 0
SMALL
GASTEIGER

@<TRIPOS>ATOM
      1  C          5.0190    1.7720    0.7140 C.3     1  UNL1        0.1270
      2  C          4.5760    1.0390    1.9280 C.2     1  UNL1        0.3030
      3  O          5.2560    0.1470    2.4960 O.2     1  UNL1       -0.2520
      4  O          3.3420    1.3430    2.4820 O.3     1  UNL1       -0.4810
      5  H          3.2590    1.2120    3.4930 H       1  UNL1        0.2960
      6  C          6.5180    1.8240    0.6810 C.3     1  UNL1        0.0470
      7  C          7.1280    1.0230   -0.3780 C.2     1  UNL1       -0.0470
      8  C          6.4510    0.0760   -1.1060 C.2     1  UNL1        0.0040
      9  C          8.4540    1.2160   -0.6740 C.2     1  UNL1        0.0040
     10  C          7.0400   -0.6690   -2.0990 C.2     1  UNL1        0.0000
     11  C          9.0770    0.4870   -1.6610 C.2     1  UNL1        0.0000
     12  C          8.3720   -0.4700   -2.3900 C.2     1  UNL1        0.0000
@<TRIPOS>BOND
     1    12    10    2
     2    12    11    1
     3    10     8    1
     4    11     9    2
     5     8     7    2
     6     9     7    1
     7     7     6    1
     8     6     1    1
     9     1     2    1
    10     2     4    1
    11     2     3    2
    12     4     5    1
