@<TRIPOS>MOLECULE
/home/cewinharhar/GITHUB/reincatalyze/data/processed/docking_pred/2023-Apr-25-2140_maxeplen10_maxtrainstep200_exh16_gamma099_lrac3e-4_lrcr1e-3/fbb46063794dc265e75c2cefc4e8ae8bb502d9b1_ligand_2.pdbqt
 12 12 0 0 0
SMALL
GASTEIGER

@<TRIPOS>ATOM
      1  C          8.3040   -0.8010   -2.0160 C.3     1  UNL1        0.1270
      2  C          8.4500   -1.9960   -2.8870 C.2     1  UNL1        0.3030
      3  O          9.5460   -2.5670   -3.1160 O.2     1  UNL1       -0.2520
      4  O          7.3210   -2.5280   -3.4910 O.3     1  UNL1       -0.4810
      5  H          6.6020   -1.8550   -3.7690 H       1  UNL1        0.2960
      6  C          7.6870   -1.2080   -0.7100 C.3     1  UNL1        0.0470
      7  C          6.7530   -0.2310   -0.1530 C.2     1  UNL1       -0.0470
      8  C          6.3200    0.8830   -0.8280 C.2     1  UNL1        0.0040
      9  C          6.2720   -0.4250    1.1180 C.2     1  UNL1        0.0040
     10  C          5.4410    1.7920   -0.2890 C.2     1  UNL1        0.0000
     11  C          5.3920    0.4650    1.6890 C.2     1  UNL1        0.0000
     12  C          4.9630    1.5900    0.9880 C.2     1  UNL1        0.0000
@<TRIPOS>BOND
     1     5     4    1
     2     4     2    1
     3     3     2    2
     4     2     1    1
     5     1     6    1
     6     8    10    1
     7     8     7    2
     8     6     7    1
     9    10    12    2
    10     7     9    1
    11    12    11    1
    12     9    11    2
