@<TRIPOS>MOLECULE
/home/cewinharhar/GITHUB/reincatalyze/data/processed/docking_pred/2023-Apr-25-2140_maxeplen10_maxtrainstep200_exh16_gamma099_lrac3e-4_lrcr1e-3/fbb46063794dc265e75c2cefc4e8ae8bb502d9b1_ligand_2.pdbqt
 12 12 0 0 0
SMALL
GASTEIGER

@<TRIPOS>ATOM
      1  C          8.3320   -1.0630   -1.6740 C.3     1  UNL1        0.1270
      2  C          8.4860   -2.0540   -2.7710 C.2     1  UNL1        0.3030
      3  O          9.5930   -2.5150   -3.1490 O.2     1  UNL1       -0.2520
      4  O          7.3530   -2.5090   -3.4280 O.3     1  UNL1       -0.4810
      5  H          6.9310   -1.8610   -4.0960 H       1  UNL1        0.2960
      6  C          7.2120   -1.4890   -0.7700 C.3     1  UNL1        0.0470
      7  C          6.4750   -0.3840   -0.1620 C.2     1  UNL1       -0.0470
      8  C          6.0400   -0.3820    1.1410 C.2     1  UNL1        0.0040
      9  C          6.1900    0.7220   -0.9230 C.2     1  UNL1        0.0040
     10  C          5.3470    0.6660    1.6980 C.2     1  UNL1        0.0000
     11  C          5.4980    1.7880   -0.3990 C.2     1  UNL1        0.0000
     12  C          5.0650    1.7730    0.9270 C.2     1  UNL1        0.0000
@<TRIPOS>BOND
     1     5     4    1
     2     4     2    1
     3     3     2    2
     4     2     1    1
     5     1     6    1
     6     9    11    1
     7     9     7    2
     8     6     7    1
     9    11    12    2
    10     7     8    1
    11    12    10    1
    12     8    10    2
