@<TRIPOS>MOLECULE
/home/cewinharhar/GITHUB/reincatalyze/data/processed/docking_pred/2023-Apr-25-2140_maxeplen10_maxtrainstep200_exh16_gamma099_lrac3e-4_lrcr1e-3/fbb46063794dc265e75c2cefc4e8ae8bb502d9b1_ligand_2.pdbqt
 12 12 0 0 0
SMALL
GASTEIGER

@<TRIPOS>ATOM
      1  C          8.4130   -0.5140   -2.2640 C.3     1  UNL1        0.1270
      2  C          8.5050   -1.8400   -2.9280 C.2     1  UNL1        0.3030
      3  O          9.5840   -2.4610   -3.1080 O.2     1  UNL1       -0.2520
      4  O          7.3430   -2.4460   -3.3810 O.3     1  UNL1       -0.4810
      5  H          6.5290   -2.3710   -2.7660 H       1  UNL1        0.2960
      6  C          6.9750   -0.0880   -2.1970 C.3     1  UNL1        0.0470
      7  C          6.4610    0.0910   -0.8420 C.2     1  UNL1       -0.0470
      8  C          5.8560    1.2410   -0.3990 C.2     1  UNL1        0.0040
      9  C          6.5820   -0.9420    0.0540 C.2     1  UNL1        0.0040
     10  C          5.3770    1.3920    0.8800 C.2     1  UNL1        0.0000
     11  C          6.1150   -0.8250    1.3430 C.2     1  UNL1        0.0000
     12  C          5.5030    0.3510    1.7740 C.2     1  UNL1        0.0000
@<TRIPOS>BOND
     1     4     2    1
     2     4     5    1
     3     3     2    2
     4     2     1    1
     5     1     6    1
     6     6     7    1
     7     7     8    2
     8     7     9    1
     9     8    10    1
    10     9    11    2
    11    10    12    2
    12    11    12    1
