@<TRIPOS>MOLECULE
/home/cewinharhar/GITHUB/reincatalyze/data/processed/docking_pred/2023-Apr-25-2140_maxeplen10_maxtrainstep200_exh16_gamma099_lrac3e-4_lrcr1e-3/fbb46063794dc265e75c2cefc4e8ae8bb502d9b1_ligand_2.pdbqt
 12 12 0 0 0
SMALL
GASTEIGER

@<TRIPOS>ATOM
      1  C          8.4250   -0.5250   -2.2790 C.3     1  UNL1        0.1270
      2  C          8.5020   -1.8510   -2.9460 C.2     1  UNL1        0.3030
      3  O          9.5690   -2.4990   -3.0980 O.2     1  UNL1       -0.2520
      4  O          7.3380   -2.4230   -3.4370 O.3     1  UNL1       -0.4810
      5  H          7.4600   -3.2400   -4.0400 H       1  UNL1        0.2960
      6  C          6.9890   -0.1010   -2.1760 C.3     1  UNL1        0.0470
      7  C          6.4900    0.0100   -0.8070 C.2     1  UNL1       -0.0470
      8  C          6.6120   -0.9820    0.1340 C.2     1  UNL1        0.0040
      9  C          5.8580    1.1680   -0.4240 C.2     1  UNL1        0.0040
     10  C          6.1350   -0.8610    1.4170 C.2     1  UNL1        0.0000
     11  C          5.3690    1.3230    0.8520 C.2     1  UNL1        0.0000
     12  C          5.5020    0.3040    1.7940 C.2     1  UNL1        0.0000
@<TRIPOS>BOND
     1     5     4    1
     2     4     2    1
     3     3     2    2
     4     2     1    1
     5     1     6    1
     6     6     7    1
     7     7     9    2
     8     7     8    1
     9     9    11    1
    10     8    10    2
    11    11    12    2
    12    10    12    1
