@<TRIPOS>MOLECULE
/home/cewinharhar/GITHUB/reincatalyze/data/processed/docking_pred/2023-Apr-25-2140_maxeplen10_maxtrainstep200_exh16_gamma099_lrac3e-4_lrcr1e-3/ff0363d9ee1910d446632d9597fe578fef33cb13_ligand_2.pdbqt
 12 12 0 0 0
SMALL
GASTEIGER

@<TRIPOS>ATOM
      1  C          8.2730    0.2210   -2.1880 C.3     1  UNL1        0.1270
      2  C          9.3860    0.3470   -1.2110 C.2     1  UNL1        0.3030
      3  O          9.5040   -0.3690   -0.1850 O.2     1  UNL1       -0.2520
      4  O         10.3640    1.3070   -1.4290 O.3     1  UNL1       -0.4810
      5  H         10.1300    2.2590   -1.1380 H       1  UNL1        0.2960
      6  C          7.1310   -0.5150   -1.5510 C.3     1  UNL1        0.0470
      7  C          6.3500    0.2810   -0.6080 C.2     1  UNL1       -0.0470
      8  C          5.8050    1.5050   -0.9090 C.2     1  UNL1        0.0040
      9  C          6.1400   -0.2080    0.6570 C.2     1  UNL1        0.0040
     10  C          5.0720    2.2420   -0.0090 C.2     1  UNL1        0.0000
     11  C          5.4120    0.5030    1.5840 C.2     1  UNL1        0.0000
     12  C          4.8660    1.7440    1.2590 C.2     1  UNL1        0.0000
@<TRIPOS>BOND
     1     1     6    1
     2     1     2    1
     3     6     7    1
     4     4     2    1
     5     4     5    1
     6     2     3    2
     7     8     7    2
     8     8    10    1
     9     7     9    1
    10    10    12    2
    11     9    11    2
    12    12    11    1
