MODEL 1
REMARK VINA RESULT:      -7.4      0.000      0.000
REMARK SMILES O=C(O)CCc1ccccc1
REMARK SMILES IDX 4 1 2 2 1 3 3 4 5 6 6 7 7 8 11 9 8 10 10 11 9 12
REMARK H PARENT 3 5
REMARK Flexibility Score: inf
ROOT
ATOM      1  C   UNL     1       8.467  -0.601  -2.176  1.00  0.00     0.127 C 
ENDROOT
BRANCH   1   2
ATOM      2  C   UNL     1       8.529  -1.892  -2.910  1.00  0.00     0.303 C 
ATOM      3  O   UNL     1       9.590  -2.538  -3.103  1.00  0.00    -0.252 OA
BRANCH   2   4
ATOM      4  O   UNL     1       7.357  -2.431  -3.419  1.00  0.00    -0.481 OA
ATOM      5  H   UNL     1       7.132  -3.381  -3.116  1.00  0.00     0.296 HD
ENDBRANCH   2   4
ENDBRANCH   1   2
BRANCH   1   6
ATOM      6  C   UNL     1       7.053  -0.100  -2.166  1.00  0.00     0.047 C 
BRANCH   6   7
ATOM      7  C   UNL     1       6.490   0.094  -0.832  1.00  0.00    -0.047 A 
ATOM      8  C   UNL     1       5.829   1.232  -0.439  1.00  0.00     0.004 A 
ATOM      9  C   UNL     1       6.621  -0.911   0.094  1.00  0.00     0.004 A 
ATOM     10  C   UNL     1       5.305   1.397   0.821  1.00  0.00     0.000 A 
ATOM     11  C   UNL     1       6.109  -0.779   1.365  1.00  0.00     0.000 A 
ATOM     12  C   UNL     1       5.441   0.384   1.746  1.00  0.00     0.000 A 
ENDBRANCH   6   7
ENDBRANCH   1   6
TORSDOF 4
ENDMDL
MODEL 2
REMARK VINA RESULT:      -7.3      0.115      1.721
REMARK SMILES O=C(O)CCc1ccccc1
REMARK SMILES IDX 4 1 2 2 1 3 3 4 5 6 6 7 7 8 11 9 8 10 10 11 9 12
REMARK H PARENT 3 5
REMARK Flexibility Score: inf
ROOT
ATOM      1  C   UNL     1       8.433  -0.602  -2.154  1.00  0.00     0.127 C 
ENDROOT
BRANCH   1   2
ATOM      2  C   UNL     1       8.372  -1.883  -2.906  1.00  0.00     0.303 C 
ATOM      3  O   UNL     1       7.301  -2.438  -3.258  1.00  0.00    -0.252 OA
BRANCH   2   4
ATOM      4  O   UNL     1       9.557  -2.516  -3.248  1.00  0.00    -0.481 OA
ATOM      5  H   UNL     1       9.481  -3.506  -3.495  1.00  0.00     0.296 HD
ENDBRANCH   2   4
ENDBRANCH   1   2
BRANCH   1   6
ATOM      6  C   UNL     1       7.062   0.005  -2.089  1.00  0.00     0.047 C 
BRANCH   6   7
ATOM      7  C   UNL     1       6.502   0.086  -0.742  1.00  0.00    -0.047 A 
ATOM      8  C   UNL     1       6.598  -0.919   0.188  1.00  0.00     0.004 A 
ATOM      9  C   UNL     1       5.837   1.228  -0.369  1.00  0.00     0.004 A 
ATOM     10  C   UNL     1       6.065  -0.826   1.452  1.00  0.00     0.000 A 
ATOM     11  C   UNL     1       5.290   1.356   0.887  1.00  0.00     0.000 A 
ATOM     12  C   UNL     1       5.398   0.324   1.818  1.00  0.00     0.000 A 
ENDBRANCH   6   7
ENDBRANCH   1   6
TORSDOF 4
ENDMDL
MODEL 3
REMARK VINA RESULT:      -6.8      3.380      5.072
REMARK SMILES O=C(O)CCc1ccccc1
REMARK SMILES IDX 4 1 2 2 1 3 3 4 5 6 6 7 7 8 11 9 8 10 10 11 9 12
REMARK H PARENT 3 5
REMARK Flexibility Score: inf
ROOT
ATOM      1  C   UNL     1       5.016   1.827   0.734  1.00  0.00     0.127 C 
ENDROOT
BRANCH   1   2
ATOM      2  C   UNL     1       4.499   1.106   1.926  1.00  0.00     0.303 C 
ATOM      3  O   UNL     1       5.115   0.176   2.506  1.00  0.00    -0.252 OA
BRANCH   2   4
ATOM      4  O   UNL     1       3.264   1.466   2.444  1.00  0.00    -0.481 OA
ATOM      5  H   UNL     1       2.949   0.938   3.261  1.00  0.00     0.296 HD
ENDBRANCH   2   4
ENDBRANCH   1   2
BRANCH   1   6
ATOM      6  C   UNL     1       6.516   1.834   0.768  1.00  0.00     0.047 C 
BRANCH   6   7
ATOM      7  C   UNL     1       7.148   1.077  -0.311  1.00  0.00    -0.047 A 
ATOM      8  C   UNL     1       8.463   1.221  -0.677  1.00  0.00     0.004 A 
ATOM      9  C   UNL     1       6.395   0.165  -1.009  1.00  0.00     0.004 A 
ATOM     10  C   UNL     1       9.042   0.500  -1.694  1.00  0.00     0.000 A 
ATOM     11  C   UNL     1       6.941  -0.573  -2.033  1.00  0.00     0.000 A 
ATOM     12  C   UNL     1       8.279  -0.413  -2.390  1.00  0.00     0.000 A 
ENDBRANCH   6   7
ENDBRANCH   1   6
TORSDOF 4
ENDMDL
MODEL 4
REMARK VINA RESULT:      -6.7      3.336      5.138
REMARK SMILES O=C(O)CCc1ccccc1
REMARK SMILES IDX 4 1 2 2 1 3 3 4 5 6 6 7 7 8 11 9 8 10 10 11 9 12
REMARK H PARENT 3 5
REMARK Flexibility Score: inf
ROOT
ATOM      1  C   UNL     1       5.007   1.778   0.692  1.00  0.00     0.127 C 
ENDROOT
BRANCH   1   2
ATOM      2  C   UNL     1       4.514   1.093   1.915  1.00  0.00     0.303 C 
ATOM      3  O   UNL     1       3.401   1.329   2.451  1.00  0.00    -0.252 OA
BRANCH   2   4
ATOM      4  O   UNL     1       5.315   0.133   2.515  1.00  0.00    -0.481 OA
ATOM      5  H   UNL     1       4.853  -0.744   2.765  1.00  0.00     0.296 HD
ENDBRANCH   2   4
ENDBRANCH   1   2
BRANCH   1   6
ATOM      6  C   UNL     1       6.507   1.796   0.699  1.00  0.00     0.047 C 
BRANCH   6   7
ATOM      7  C   UNL     1       7.125   1.012  -0.368  1.00  0.00    -0.047 A 
ATOM      8  C   UNL     1       6.454   0.074  -1.114  1.00  0.00     0.004 A 
ATOM      9  C   UNL     1       8.452   1.213  -0.654  1.00  0.00     0.004 A 
ATOM     10  C   UNL     1       7.051  -0.655  -2.115  1.00  0.00     0.000 A 
ATOM     11  C   UNL     1       9.082   0.501  -1.649  1.00  0.00     0.000 A 
ATOM     12  C   UNL     1       8.385  -0.447  -2.396  1.00  0.00     0.000 A 
ENDBRANCH   6   7
ENDBRANCH   1   6
TORSDOF 4
ENDMDL
MODEL 5
REMARK VINA RESULT:      -6.7      1.947      2.288
REMARK SMILES O=C(O)CCc1ccccc1
REMARK SMILES IDX 4 1 2 2 1 3 3 4 5 6 6 7 7 8 11 9 8 10 10 11 9 12
REMARK H PARENT 3 5
REMARK Flexibility Score: inf
ROOT
ATOM      1  C   UNL     1       8.273   0.221  -2.188  1.00  0.00     0.127 C 
ENDROOT
BRANCH   1   2
ATOM      2  C   UNL     1       9.386   0.347  -1.211  1.00  0.00     0.303 C 
ATOM      3  O   UNL     1       9.504  -0.369  -0.185  1.00  0.00    -0.252 OA
BRANCH   2   4
ATOM      4  O   UNL     1      10.364   1.307  -1.429  1.00  0.00    -0.481 OA
ATOM      5  H   UNL     1      10.130   2.259  -1.138  1.00  0.00     0.296 HD
ENDBRANCH   2   4
ENDBRANCH   1   2
BRANCH   1   6
ATOM      6  C   UNL     1       7.131  -0.515  -1.551  1.00  0.00     0.047 C 
BRANCH   6   7
ATOM      7  C   UNL     1       6.350   0.281  -0.608  1.00  0.00    -0.047 A 
ATOM      8  C   UNL     1       5.805   1.505  -0.909  1.00  0.00     0.004 A 
ATOM      9  C   UNL     1       6.140  -0.208   0.657  1.00  0.00     0.004 A 
ATOM     10  C   UNL     1       5.072   2.242  -0.009  1.00  0.00     0.000 A 
ATOM     11  C   UNL     1       5.412   0.503   1.584  1.00  0.00     0.000 A 
ATOM     12  C   UNL     1       4.866   1.744   1.259  1.00  0.00     0.000 A 
ENDBRANCH   6   7
ENDBRANCH   1   6
TORSDOF 4
ENDMDL
