@<TRIPOS>MOLECULE
/home/cewinharhar/GITHUB/reincatalyze/data/processed/docking_pred/2023-Apr-25-2140_maxeplen10_maxtrainstep200_exh16_gamma099_lrac3e-4_lrcr1e-3/ff0363d9ee1910d446632d9597fe578fef33cb13_ligand_2.pdbqt
 12 12 0 0 0
SMALL
GASTEIGER

@<TRIPOS>ATOM
      1  C          5.0160    1.8270    0.7340 C.3     1  UNL1        0.1270
      2  C          4.4990    1.1060    1.9260 C.2     1  UNL1        0.3030
      3  O          5.1150    0.1760    2.5060 O.2     1  UNL1       -0.2520
      4  O          3.2640    1.4660    2.4440 O.3     1  UNL1       -0.4810
      5  H          2.9490    0.9380    3.2610 H       1  UNL1        0.2960
      6  C          6.5160    1.8340    0.7680 C.3     1  UNL1        0.0470
      7  C          7.1480    1.0770   -0.3110 C.2     1  UNL1       -0.0470
      8  C          8.4630    1.2210   -0.6770 C.2     1  UNL1        0.0040
      9  C          6.3950    0.1650   -1.0090 C.2     1  UNL1        0.0040
     10  C          9.0420    0.5000   -1.6940 C.2     1  UNL1        0.0000
     11  C          6.9410   -0.5730   -2.0330 C.2     1  UNL1        0.0000
     12  C          8.2790   -0.4130   -2.3900 C.2     1  UNL1        0.0000
@<TRIPOS>BOND
     1    12    11    2
     2    12    10    1
     3    11     9    1
     4    10     8    2
     5     9     7    2
     6     8     7    1
     7     7     6    1
     8     1     6    1
     9     1     2    1
    10     2     4    1
    11     2     3    2
    12     4     5    1
