@<TRIPOS>MOLECULE
/home/cewinharhar/GITHUB/reincatalyze/data/processed/docking_pred/2023-Apr-25-2140_maxeplen10_maxtrainstep200_exh16_gamma099_lrac3e-4_lrcr1e-3/ff0363d9ee1910d446632d9597fe578fef33cb13_ligand_2.pdbqt
 12 12 0 0 0
SMALL
GASTEIGER

@<TRIPOS>ATOM
      1  C          5.0070    1.7780    0.6920 C.3     1  UNL1        0.1270
      2  C          4.5140    1.0930    1.9150 C.2     1  UNL1        0.3030
      3  O          3.4010    1.3290    2.4510 O.2     1  UNL1       -0.2520
      4  O          5.3150    0.1330    2.5150 O.3     1  UNL1       -0.4810
      5  H          4.8530   -0.7440    2.7650 H       1  UNL1        0.2960
      6  C          6.5070    1.7960    0.6990 C.3     1  UNL1        0.0470
      7  C          7.1250    1.0120   -0.3680 C.2     1  UNL1       -0.0470
      8  C          6.4540    0.0740   -1.1140 C.2     1  UNL1        0.0040
      9  C          8.4520    1.2130   -0.6540 C.2     1  UNL1        0.0040
     10  C          7.0510   -0.6550   -2.1150 C.2     1  UNL1        0.0000
     11  C          9.0820    0.5010   -1.6490 C.2     1  UNL1        0.0000
     12  C          8.3850   -0.4470   -2.3960 C.2     1  UNL1        0.0000
@<TRIPOS>BOND
     1    12    10    2
     2    12    11    1
     3    10     8    1
     4    11     9    2
     5     8     7    2
     6     9     7    1
     7     7     6    1
     8     1     6    1
     9     1     2    1
    10     2     3    2
    11     2     4    1
    12     4     5    1
