@<TRIPOS>MOLECULE
/home/cewinharhar/GITHUB/reincatalyze/data/processed/docking_pred/2023-May-23-1437_sub9_nm5_bs15_s42_ex16_mel10_mts10000_k50_ec02_g099_lra3e-4_lrc1e-3/00fabcb6e86abbd64330e8a307762c5d347247e8_ligand_9.pdbqt
 14 15 0 0 0
SMALL
GASTEIGER

@<TRIPOS>ATOM
      1  C          8.3730    0.0200   -2.8690 C.3     1  UNL1        0.0800
      2  C          8.1710   -1.4540   -2.9290 C.2     1  UNL1        0.1300
      3  C          9.3180   -2.3980   -3.0100 C.3     1  UNL1        0.0870
      4  O          7.0480   -1.9340   -2.9150 O.2     1  UNL1       -0.3000
      5  C          9.0130    0.4350   -1.5580 C.3     1  UNL1        0.0430
      6  C          8.0540    0.3780   -0.4400 C.2     1  UNL1       -0.0440
      7  C          8.3080   -0.3870    0.7040 C.2     1  UNL1        0.0080
      8  C          6.8800    1.0920   -0.5120 C.2     1  UNL1        0.0540
      9  C          7.3710   -0.4020    1.7220 C.2     1  UNL1        0.0510
     10  C          5.9370    1.0740    0.5210 C.2     1  UNL1        0.1660
     11  C          6.1850    0.3210    1.6460 C.2     1  UNL1        0.1650
     12  O          4.7130    1.6870    0.6860 O.2     1  UNL1       -0.4540
     13  O          5.0970    0.4900    2.4890 O.2     1  UNL1       -0.4540
     14  C          4.1830    1.4190    1.9590 C.3     1  UNL1        0.4680
@<TRIPOS>BOND
     1     3     2    1
     2     2     4    2
     3     2     1    1
     4     1     5    1
     5     5     6    1
     6     8     6    2
     7     8    10    1
     8     6     7    1
     9    10    12    1
    10    10    11    2
    11    12    14    1
    12     7     9    2
    13    11     9    1
    14    11    13    1
    15    14    13    1
