MODEL 1
REMARK VINA RESULT:      -7.6      0.000      0.000
REMARK SMILES CC(=O)CCc1ccc2c(c1)OCO2
REMARK SMILES IDX 4 1 2 2 1 3 3 4 5 5 6 6 7 7 11 8 8 9 10 10 9 11 12 12 14 13
REMARK SMILES IDX 13 14
REMARK H PARENT
REMARK Flexibility Score: inf
ROOT
ATOM      1  C   UNL     1       5.552   1.922   1.264  1.00  0.00     0.080 C 
ENDROOT
BRANCH   1   2
ATOM      2  C   UNL     1       5.115   0.710   2.011  1.00  0.00     0.130 C 
ATOM      3  C   UNL     1       6.015  -0.459   2.199  1.00  0.00     0.087 C 
ATOM      4  O   UNL     1       3.996   0.641   2.494  1.00  0.00    -0.300 OA
ENDBRANCH   1   2
BRANCH   1   5
ATOM      5  C   UNL     1       5.417   1.724  -0.233  1.00  0.00     0.043 C 
BRANCH   5   6
ATOM      6  C   UNL     1       6.583   1.020  -0.798  1.00  0.00    -0.044 A 
ATOM      7  C   UNL     1       7.891   1.451  -0.549  1.00  0.00     0.008 A 
ATOM      8  C   UNL     1       6.392  -0.090  -1.588  1.00  0.00     0.054 A 
ATOM      9  C   UNL     1       8.945   0.751  -1.106  1.00  0.00     0.051 A 
ATOM     10  C   UNL     1       7.461  -0.795  -2.148  1.00  0.00     0.166 A 
ATOM     11  C   UNL     1       8.749  -0.371  -1.905  1.00  0.00     0.165 A 
ATOM     12  O   UNL     1       7.531  -1.911  -2.956  1.00  0.00    -0.454 OA
ATOM     13  O   UNL     1       9.591  -1.244  -2.574  1.00  0.00    -0.454 OA
ATOM     14  C   UNL     1       8.866  -2.288  -3.179  1.00  0.00     0.468 C 
ENDBRANCH   5   6
ENDBRANCH   1   5
TORSDOF 3
ENDMDL
MODEL 2
REMARK VINA RESULT:      -7.4      1.911      2.357
REMARK SMILES CC(=O)CCc1ccc2c(c1)OCO2
REMARK SMILES IDX 4 1 2 2 1 3 3 4 5 5 6 6 7 7 11 8 8 9 10 10 9 11 12 12 14 13
REMARK SMILES IDX 13 14
REMARK H PARENT
REMARK Flexibility Score: inf
ROOT
ATOM      1  C   UNL     1       5.757   1.398  -0.247  1.00  0.00     0.080 C 
ENDROOT
BRANCH   1   2
ATOM      2  C   UNL     1       5.107   1.274   1.087  1.00  0.00     0.130 C 
ATOM      3  C   UNL     1       5.380   0.118   1.984  1.00  0.00     0.087 C 
ATOM      4  O   UNL     1       4.326   2.122   1.486  1.00  0.00    -0.300 OA
ENDBRANCH   1   2
BRANCH   1   5
ATOM      5  C   UNL     1       7.245   1.124  -0.163  1.00  0.00     0.043 C 
BRANCH   5   6
ATOM      6  C   UNL     1       7.601  -0.159  -0.796  1.00  0.00    -0.044 A 
ATOM      7  C   UNL     1       7.629  -0.307  -2.187  1.00  0.00     0.008 A 
ATOM      8  C   UNL     1       7.919  -1.243  -0.009  1.00  0.00     0.054 A 
ATOM      9  C   UNL     1       7.971  -1.534  -2.725  1.00  0.00     0.051 A 
ATOM     10  C   UNL     1       8.265  -2.481  -0.557  1.00  0.00     0.166 A 
ATOM     11  C   UNL     1       8.291  -2.628  -1.926  1.00  0.00     0.165 A 
ATOM     12  O   UNL     1       8.615  -3.692   0.002  1.00  0.00    -0.454 OA
ATOM     13  O   UNL     1       8.661  -3.939  -2.182  1.00  0.00    -0.454 OA
ATOM     14  C   UNL     1       8.964  -4.623  -0.989  1.00  0.00     0.468 C 
ENDBRANCH   5   6
ENDBRANCH   1   5
TORSDOF 3
ENDMDL
MODEL 3
REMARK VINA RESULT:      -7.2      2.065      2.623
REMARK SMILES CC(=O)CCc1ccc2c(c1)OCO2
REMARK SMILES IDX 4 1 2 2 1 3 3 4 5 5 6 6 7 7 11 8 8 9 10 10 9 11 12 12 14 13
REMARK SMILES IDX 13 14
REMARK H PARENT
REMARK Flexibility Score: inf
ROOT
ATOM      1  C   UNL     1       5.459  -0.024   2.008  1.00  0.00     0.080 C 
ENDROOT
BRANCH   1   2
ATOM      2  C   UNL     1       4.586   1.156   1.758  1.00  0.00     0.130 C 
ATOM      3  C   UNL     1       4.898   2.147   0.694  1.00  0.00     0.087 C 
ATOM      4  O   UNL     1       3.581   1.345   2.425  1.00  0.00    -0.300 OA
ENDBRANCH   1   2
BRANCH   1   5
ATOM      5  C   UNL     1       6.882   0.238   1.555  1.00  0.00     0.043 C 
BRANCH   5   6
ATOM      6  C   UNL     1       7.304  -0.706   0.506  1.00  0.00    -0.044 A 
ATOM      7  C   UNL     1       7.186  -0.392  -0.853  1.00  0.00     0.008 A 
ATOM      8  C   UNL     1       7.830  -1.928   0.859  1.00  0.00     0.054 A 
ATOM      9  C   UNL     1       7.600  -1.318  -1.794  1.00  0.00     0.051 A 
ATOM     10  C   UNL     1       8.248  -2.860  -0.096  1.00  0.00     0.166 A 
ATOM     11  C   UNL     1       8.131  -2.552  -1.433  1.00  0.00     0.165 A 
ATOM     12  O   UNL     1       8.794  -4.122  -0.001  1.00  0.00    -0.454 OA
ATOM     13  O   UNL     1       8.614  -3.643  -2.139  1.00  0.00    -0.454 OA
ATOM     14  C   UNL     1       9.129  -4.624  -1.270  1.00  0.00     0.468 C 
ENDBRANCH   5   6
ENDBRANCH   1   5
TORSDOF 3
ENDMDL
MODEL 4
REMARK VINA RESULT:      -7.1      1.258      1.468
REMARK SMILES CC(=O)CCc1ccc2c(c1)OCO2
REMARK SMILES IDX 4 1 2 2 1 3 3 4 5 5 6 6 7 7 11 8 8 9 10 10 9 11 12 12 14 13
REMARK SMILES IDX 13 14
REMARK H PARENT
REMARK Flexibility Score: inf
ROOT
ATOM      1  C   UNL     1       6.388   1.169   0.967  1.00  0.00     0.080 C 
ENDROOT
BRANCH   1   2
ATOM      2  C   UNL     1       5.637   0.356   1.964  1.00  0.00     0.130 C 
ATOM      3  C   UNL     1       6.217  -0.877   2.562  1.00  0.00     0.087 C 
ATOM      4  O   UNL     1       4.516   0.680   2.320  1.00  0.00    -0.300 OA
ENDBRANCH   1   2
BRANCH   1   5
ATOM      5  C   UNL     1       5.878   0.924  -0.439  1.00  0.00     0.043 C 
BRANCH   5   6
ATOM      6  C   UNL     1       6.812   0.096  -1.223  1.00  0.00    -0.044 A 
ATOM      7  C   UNL     1       7.466   0.599  -2.353  1.00  0.00     0.008 A 
ATOM      8  C   UNL     1       7.056  -1.204  -0.842  1.00  0.00     0.054 A 
ATOM      9  C   UNL     1       8.333  -0.224  -3.049  1.00  0.00     0.051 A 
ATOM     10  C   UNL     1       7.933  -2.032  -1.548  1.00  0.00     0.166 A 
ATOM     11  C   UNL     1       8.576  -1.538  -2.661  1.00  0.00     0.165 A 
ATOM     12  O   UNL     1       8.337  -3.339  -1.375  1.00  0.00    -0.454 OA
ATOM     13  O   UNL     1       9.371  -2.562  -3.152  1.00  0.00    -0.454 OA
ATOM     14  C   UNL     1       9.318  -3.692  -2.315  1.00  0.00     0.468 C 
ENDBRANCH   5   6
ENDBRANCH   1   5
TORSDOF 3
ENDMDL
MODEL 5
REMARK VINA RESULT:      -6.7      1.269      1.761
REMARK SMILES CC(=O)CCc1ccc2c(c1)OCO2
REMARK SMILES IDX 4 1 2 2 1 3 3 4 5 5 6 6 7 7 11 8 8 9 10 10 9 11 12 12 14 13
REMARK SMILES IDX 13 14
REMARK H PARENT
REMARK Flexibility Score: inf
ROOT
ATOM      1  C   UNL     1       5.334  -0.072   1.978  1.00  0.00     0.080 C 
ENDROOT
BRANCH   1   2
ATOM      2  C   UNL     1       4.465   1.124   1.798  1.00  0.00     0.130 C 
ATOM      3  C   UNL     1       4.745   2.143   0.751  1.00  0.00     0.087 C 
ATOM      4  O   UNL     1       3.491   1.304   2.510  1.00  0.00    -0.300 OA
ENDBRANCH   1   2
BRANCH   1   5
ATOM      5  C   UNL     1       6.802   0.300   1.909  1.00  0.00     0.043 C 
BRANCH   5   6
ATOM      6  C   UNL     1       7.393  -0.049   0.604  1.00  0.00    -0.044 A 
ATOM      7  C   UNL     1       7.835   0.936  -0.287  1.00  0.00     0.008 A 
ATOM      8  C   UNL     1       7.521  -1.371   0.244  1.00  0.00     0.054 A 
ATOM      9  C   UNL     1       8.382   0.550  -1.497  1.00  0.00     0.051 A 
ATOM     10  C   UNL     1       8.076  -1.757  -0.980  1.00  0.00     0.166 A 
ATOM     11  C   UNL     1       8.509  -0.788  -1.858  1.00  0.00     0.165 A 
ATOM     12  O   UNL     1       8.308  -2.985  -1.561  1.00  0.00    -0.454 OA
ATOM     13  O   UNL     1       9.005  -1.449  -2.971  1.00  0.00    -0.454 OA
ATOM     14  C   UNL     1       8.980  -2.844  -2.786  1.00  0.00     0.468 C 
ENDBRANCH   5   6
ENDBRANCH   1   5
TORSDOF 3
ENDMDL
