@<TRIPOS>MOLECULE
/home/cewinharhar/GITHUB/reincatalyze/data/processed/docking_pred/2023-May-23-1437_sub9_nm5_bs15_s42_ex16_mel10_mts10000_k50_ec02_g099_lra3e-4_lrc1e-3/01f25cbd7413d58f388abe94d9cfceb48e05f66f_ligand_9.pdbqt
 14 15 0 0 0
SMALL
GASTEIGER

@<TRIPOS>ATOM
      1  C          6.3880    1.1690    0.9670 C.3     1  UNL1        0.0800
      2  C          5.6370    0.3560    1.9640 C.2     1  UNL1        0.1300
      3  C          6.2170   -0.8770    2.5620 C.3     1  UNL1        0.0870
      4  O          4.5160    0.6800    2.3200 O.2     1  UNL1       -0.3000
      5  C          5.8780    0.9240   -0.4390 C.3     1  UNL1        0.0430
      6  C          6.8120    0.0960   -1.2230 C.2     1  UNL1       -0.0440
      7  C          7.4660    0.5990   -2.3530 C.2     1  UNL1        0.0080
      8  C          7.0560   -1.2040   -0.8420 C.2     1  UNL1        0.0540
      9  C          8.3330   -0.2240   -3.0490 C.2     1  UNL1        0.0510
     10  C          7.9330   -2.0320   -1.5480 C.2     1  UNL1        0.1660
     11  C          8.5760   -1.5380   -2.6610 C.2     1  UNL1        0.1650
     12  O          8.3370   -3.3390   -1.3750 O.2     1  UNL1       -0.4540
     13  O          9.3710   -2.5620   -3.1520 O.2     1  UNL1       -0.4540
     14  C          9.3180   -3.6920   -2.3150 C.3     1  UNL1        0.4680
@<TRIPOS>BOND
     1    13    11    1
     2    13    14    1
     3     9    11    2
     4     9     7    1
     5    11    10    1
     6     7     6    2
     7    14    12    1
     8    10    12    1
     9    10     8    2
    10     6     8    1
    11     6     5    1
    12     5     1    1
    13     1     2    1
    14     2     4    2
    15     2     3    1
