@<TRIPOS>MOLECULE
/home/cewinharhar/GITHUB/reincatalyze/data/processed/docking_pred/2023-May-23-1437_sub9_nm5_bs15_s42_ex16_mel10_mts10000_k50_ec02_g099_lra3e-4_lrc1e-3/0310d41f91ab2de901a6698b161cc991790b6b4b_ligand_9.pdbqt
 14 15 0 0 0
SMALL
GASTEIGER

@<TRIPOS>ATOM
      1  C          5.7240    1.2920   -0.3700 C.3     1  UNL1        0.0800
      2  C          5.1450    1.2550    1.0020 C.2     1  UNL1        0.1300
      3  C          5.4280    0.1360    1.9390 C.3     1  UNL1        0.0870
      4  O          4.4160    2.1500    1.3980 O.2     1  UNL1       -0.3000
      5  C          7.2290    1.1180   -0.3370 C.3     1  UNL1        0.0430
      6  C          7.6430   -0.1730   -0.9170 C.2     1  UNL1       -0.0440
      7  C          7.8220   -0.3330   -2.2960 C.2     1  UNL1        0.0080
      8  C          7.8640   -1.2520   -0.0910 C.2     1  UNL1        0.0540
      9  C          8.2120   -1.5670   -2.7820 C.2     1  UNL1        0.0510
     10  C          8.2590   -2.4970   -0.5880 C.2     1  UNL1        0.1660
     11  C          8.4340   -2.6570   -1.9450 C.2     1  UNL1        0.1650
     12  O          8.5370   -3.7050    0.0160 O.2     1  UNL1       -0.4540
     13  O          8.8210   -3.9720   -2.1480 O.2     1  UNL1       -0.4540
     14  C          8.9860   -4.6480   -0.9240 C.3     1  UNL1        0.4680
@<TRIPOS>BOND
     1     9     7    1
     2     9    11    2
     3     7     6    2
     4    13    11    1
     5    13    14    1
     6    11    10    1
     7    14    12    1
     8     6     5    1
     9     6     8    1
    10    10     8    2
    11    10    12    1
    12     1     5    1
    13     1     2    1
    14     2     4    2
    15     2     3    1
