@<TRIPOS>MOLECULE
/home/cewinharhar/GITHUB/reincatalyze/data/processed/docking_pred/2023-May-23-1437_sub9_nm5_bs15_s42_ex16_mel10_mts10000_k50_ec02_g099_lra3e-4_lrc1e-3/034cecc51265c6b10d0b2cc1c9f67b1ec6b5e3be_ligand_9.pdbqt
 14 15 0 0 0
SMALL
GASTEIGER

@<TRIPOS>ATOM
      1  C          5.6780    1.5370   -0.1670 C.3     1  UNL1        0.0800
      2  C          4.9980    1.2790    1.1330 C.2     1  UNL1        0.1300
      3  C          5.3870    0.1380    2.0040 C.3     1  UNL1        0.0870
      4  O          4.0950    2.0010    1.5220 O.2     1  UNL1       -0.3000
      5  C          7.1570    1.2120   -0.0890 C.3     1  UNL1        0.0430
      6  C          7.4770   -0.0490   -0.7790 C.2     1  UNL1       -0.0440
      7  C          7.3380   -0.1820   -2.1660 C.2     1  UNL1        0.0080
      8  C          7.9270   -1.1290   -0.0540 C.2     1  UNL1        0.0540
      9  C          7.6550   -1.3900   -2.7590 C.2     1  UNL1        0.0510
     10  C          8.2460   -2.3480   -0.6590 C.2     1  UNL1        0.1660
     11  C          8.1080   -2.4800   -2.0230 C.2     1  UNL1        0.1650
     12  O          8.7040   -3.5510   -0.1650 O.2     1  UNL1       -0.4540
     13  O          8.4900   -3.7740   -2.3410 O.2     1  UNL1       -0.4540
     14  C          8.9610   -4.4590   -1.2050 C.3     1  UNL1        0.4680
@<TRIPOS>BOND
     1     9     7    1
     2     9    11    2
     3    13    11    1
     4    13    14    1
     5     7     6    2
     6    11    10    1
     7    14    12    1
     8     6     5    1
     9     6     8    1
    10    10    12    1
    11    10     8    2
    12     1     5    1
    13     1     2    1
    14     2     4    2
    15     2     3    1
