@<TRIPOS>MOLECULE
/home/cewinharhar/GITHUB/reincatalyze/data/processed/docking_pred/2023-May-23-1437_sub9_nm5_bs15_s42_ex16_mel10_mts10000_k50_ec02_g099_lra3e-4_lrc1e-3/035d1107efb5fe3e99d2a33353f0da4e413613a6_ligand_9.pdbqt
 14 15 0 0 0
SMALL
GASTEIGER

@<TRIPOS>ATOM
      1  C          8.0130   -1.7160   -2.2530 C.3     1  UNL1        0.0800
      2  C          8.7470   -0.4290   -2.4020 C.2     1  UNL1        0.1300
      3  C          8.2450    0.6590   -3.2840 C.3     1  UNL1        0.0870
      4  O          9.7890   -0.2280   -1.8000 O.2     1  UNL1       -0.3000
      5  C          8.1780   -2.2860   -0.8580 C.3     1  UNL1        0.0430
      6  C          7.3150   -1.5980    0.1190 C.2     1  UNL1       -0.0440
      7  C          7.2190   -2.0320    1.4460 C.2     1  UNL1        0.0080
      8  C          6.5830   -0.4990   -0.2720 C.2     1  UNL1        0.0540
      9  C          6.3930   -1.3460    2.3180 C.2     1  UNL1        0.0510
     10  C          5.7510    0.1910    0.6140 C.2     1  UNL1        0.1660
     11  C          5.6540   -0.2360    1.9190 C.2     1  UNL1        0.1650
     12  O          4.9340    1.2930    0.4700 O.2     1  UNL1       -0.4540
     13  O          4.7720    0.6210    2.5580 O.2     1  UNL1       -0.4540
     14  C          4.3620    1.6590    1.7000 C.3     1  UNL1        0.4680
@<TRIPOS>BOND
     1     3     2    1
     2     2     1    1
     3     2     4    2
     4     1     5    1
     5     5     6    1
     6     8     6    2
     7     8    10    1
     8     6     7    1
     9    12    10    1
    10    12    14    1
    11    10    11    2
    12     7     9    2
    13    14    13    1
    14    11     9    1
    15    11    13    1
