@<TRIPOS>MOLECULE
/home/cewinharhar/GITHUB/reincatalyze/data/processed/docking_pred/2023-May-23-1437_sub9_nm5_bs15_s42_ex16_mel10_mts10000_k50_ec02_g099_lra3e-4_lrc1e-3/04093ca98f76925b46d8e425639cb467aa73d951_ligand_9.pdbqt
 14 15 0 0 0
SMALL
GASTEIGER

@<TRIPOS>ATOM
      1  C          8.3850    0.2000   -2.5640 C.3     1  UNL1        0.0800
      2  C          8.0540   -1.2460   -2.6990 C.2     1  UNL1        0.1300
      3  C          9.1000   -2.2610   -2.9960 C.3     1  UNL1        0.0870
      4  O          6.9070   -1.6410   -2.5680 O.2     1  UNL1       -0.3000
      5  C          8.8930    0.5220   -1.1730 C.3     1  UNL1        0.0430
      6  C          7.8330    0.3830   -0.1580 C.2     1  UNL1       -0.0440
      7  C          7.8980   -0.5930    0.8420 C.2     1  UNL1        0.0080
      8  C          6.7490    1.2310   -0.1840 C.2     1  UNL1        0.0540
      9  C          6.8740   -0.6750    1.7680 C.2     1  UNL1        0.0510
     10  C          5.7160    1.1450    0.7540 C.2     1  UNL1        0.1660
     11  C          5.7790    0.1830    1.7380 C.2     1  UNL1        0.1650
     12  O          4.5510    1.8580    0.9380 O.2     1  UNL1       -0.4540
     13  O          4.6400    0.3290    2.5150 O.2     1  UNL1       -0.4540
     14  C          3.8790    1.4370    2.0970 C.3     1  UNL1        0.4680
@<TRIPOS>BOND
     1     3     2    1
     2     2     4    2
     3     2     1    1
     4     1     5    1
     5     5     6    1
     6     8     6    2
     7     8    10    1
     8     6     7    1
     9    10    12    1
    10    10    11    2
    11     7     9    2
    12    12    14    1
    13    11     9    1
    14    11    13    1
    15    14    13    1
