@<TRIPOS>MOLECULE
/home/cewinharhar/GITHUB/reincatalyze/data/processed/docking_pred/2023-May-23-1437_sub9_nm5_bs15_s42_ex16_mel10_mts10000_k50_ec02_g099_lra3e-4_lrc1e-3/04093ca98f76925b46d8e425639cb467aa73d951_ligand_9.pdbqt
 14 15 0 0 0
SMALL
GASTEIGER

@<TRIPOS>ATOM
      1  C          5.5170    1.9460    1.2530 C.3     1  UNL1        0.0800
      2  C          5.1070    0.7290    2.0070 C.2     1  UNL1        0.1300
      3  C          6.0280   -0.4250    2.1860 C.3     1  UNL1        0.0870
      4  O          3.9950    0.6430    2.5010 O.2     1  UNL1       -0.3000
      5  C          5.3890    1.7370   -0.2430 C.3     1  UNL1        0.0430
      6  C          6.5600    1.0350   -0.7990 C.2     1  UNL1       -0.0440
      7  C          7.8650    1.4640   -0.5330 C.2     1  UNL1        0.0080
      8  C          6.3770   -0.0710   -1.5970 C.2     1  UNL1        0.0540
      9  C          8.9260    0.7660   -1.0810 C.2     1  UNL1        0.0510
     10  C          7.4530   -0.7740   -2.1480 C.2     1  UNL1        0.1660
     11  C          8.7370   -0.3520   -1.8890 C.2     1  UNL1        0.1650
     12  O          7.5310   -1.8850   -2.9610 O.2     1  UNL1       -0.4540
     13  O          9.5870   -1.2220   -2.5530 O.2     1  UNL1       -0.4540
     14  C          8.8680   -2.2620   -3.1710 C.3     1  UNL1        0.4680
@<TRIPOS>BOND
     1    14    12    1
     2    14    13    1
     3    12    10    1
     4    13    11    1
     5    10    11    2
     6    10     8    1
     7    11     9    1
     8     8     6    2
     9     9     7    2
    10     6     7    1
    11     6     5    1
    12     5     1    1
    13     1     2    1
    14     2     3    1
    15     2     4    2
