@<TRIPOS>MOLECULE
/home/cewinharhar/GITHUB/reincatalyze/data/processed/docking_pred/2023-May-23-1437_sub9_nm5_bs15_s42_ex16_mel10_mts10000_k50_ec02_g099_lra3e-4_lrc1e-3/0493ae4577fb245076a56c9e7bbbfc493763ce5a_ligand_9.pdbqt
 14 15 0 0 0
SMALL
GASTEIGER

@<TRIPOS>ATOM
      1  C          6.0950    0.1870    1.3440 C.3     1  UNL1        0.0800
      2  C          5.8800    0.8520    0.0290 C.2     1  UNL1        0.1300
      3  C          5.1620    2.1490   -0.0830 C.3     1  UNL1        0.0870
      4  O          6.2900    0.3450   -1.0030 O.2     1  UNL1       -0.3000
      5  C          6.5240   -1.2560    1.1690 C.3     1  UNL1        0.0430
      6  C          7.6410   -1.6070    2.0630 C.2     1  UNL1       -0.0440
      7  C          7.6580   -1.2090    3.4050 C.2     1  UNL1        0.0080
      8  C          8.6980   -2.3440    1.5790 C.2     1  UNL1        0.0540
      9  C          8.7330   -1.5680    4.1980 C.2     1  UNL1        0.0510
     10  C          9.7820   -2.7050    2.3850 C.2     1  UNL1        0.1660
     11  C          9.8000   -2.3140    3.7050 C.2     1  UNL1        0.1650
     12  O         10.9340   -3.4220    2.1430 O.2     1  UNL1       -0.4540
     13  O         10.9750   -2.8040    4.2530 O.2     1  UNL1       -0.4540
     14  C         11.6800   -3.5900    3.3220 C.3     1  UNL1        0.4680
@<TRIPOS>BOND
     1     4     2    2
     2     3     2    1
     3     2     1    1
     4     5     1    1
     5     5     6    1
     6     8     6    2
     7     8    10    1
     8     6     7    1
     9    12    10    1
    10    12    14    1
    11    10    11    2
    12    14    13    1
    13     7     9    2
    14    11     9    1
    15    11    13    1
