@<TRIPOS>MOLECULE
/home/cewinharhar/GITHUB/reincatalyze/data/processed/docking_pred/2023-May-23-1437_sub9_nm5_bs15_s42_ex16_mel10_mts10000_k50_ec02_g099_lra3e-4_lrc1e-3/0493ae4577fb245076a56c9e7bbbfc493763ce5a_ligand_9.pdbqt
 14 15 0 0 0
SMALL
GASTEIGER

@<TRIPOS>ATOM
      1  C          5.5020    1.9170    1.2830 C.3     1  UNL1        0.0800
      2  C          5.0260    0.7000    1.9980 C.2     1  UNL1        0.1300
      3  C          5.8780   -0.5120    2.1300 C.3     1  UNL1        0.0870
      4  O          3.9140    0.6630    2.5000 O.2     1  UNL1       -0.3000
      5  C          5.3960    1.7490   -0.2200 C.3     1  UNL1        0.0430
      6  C          6.5650    1.0430   -0.7740 C.2     1  UNL1       -0.0440
      7  C          7.8720    1.4440   -0.4760 C.2     1  UNL1        0.0080
      8  C          6.3780   -0.0380   -1.6050 C.2     1  UNL1        0.0540
      9  C          8.9310    0.7430   -1.0250 C.2     1  UNL1        0.0510
     10  C          7.4510   -0.7440   -2.1570 C.2     1  UNL1        0.1660
     11  C          8.7380   -0.3500   -1.8650 C.2     1  UNL1        0.1650
     12  O          7.5260   -1.8340   -2.9970 O.2     1  UNL1       -0.4540
     13  O          9.5850   -1.2160   -2.5380 O.2     1  UNL1       -0.4540
     14  C          8.8590   -2.2280   -3.1950 C.3     1  UNL1        0.4680
@<TRIPOS>BOND
     1    14    12    1
     2    14    13    1
     3    12    10    1
     4    13    11    1
     5    10    11    2
     6    10     8    1
     7    11     9    1
     8     8     6    2
     9     9     7    2
    10     6     7    1
    11     6     5    1
    12     5     1    1
    13     1     2    1
    14     2     3    1
    15     2     4    2
