@<TRIPOS>MOLECULE
/home/cewinharhar/GITHUB/reincatalyze/data/processed/docking_pred/2023-May-23-1437_sub9_nm5_bs15_s42_ex16_mel10_mts10000_k50_ec02_g099_lra3e-4_lrc1e-3/0493ae4577fb245076a56c9e7bbbfc493763ce5a_ligand_9.pdbqt
 14 15 0 0 0
SMALL
GASTEIGER

@<TRIPOS>ATOM
      1  C          5.3500   -0.1060    1.9640 C.3     1  UNL1        0.0800
      2  C          5.2320    1.0840    1.0750 C.2     1  UNL1        0.1300
      3  C          5.9040    1.1380   -0.2510 C.3     1  UNL1        0.0870
      4  O          4.5740    2.0550    1.4120 O.2     1  UNL1       -0.3000
      5  C          6.1110   -1.2270    1.2840 C.3     1  UNL1        0.0430
      6  C          7.3570   -1.5540    2.0000 C.2     1  UNL1       -0.0440
      7  C          8.3870   -2.2770    1.3870 C.2     1  UNL1        0.0080
      8  C          7.5240   -1.1410    3.3030 C.2     1  UNL1        0.0540
      9  C          9.5340   -2.5540    2.1090 C.2     1  UNL1        0.0510
     10  C          8.6860   -1.4230    4.0270 C.2     1  UNL1        0.1660
     11  C          9.6990   -2.1350    3.4250 C.2     1  UNL1        0.1650
     12  O          9.0850   -1.1290    5.3140 O.2     1  UNL1       -0.4540
     13  O         10.7110   -2.2640    4.3640 O.2     1  UNL1       -0.4540
     14  C         10.4010   -1.5630    5.5450 C.3     1  UNL1        0.4680
@<TRIPOS>BOND
     1     3     2    1
     2     2     4    2
     3     2     1    1
     4     5     1    1
     5     5     6    1
     6     7     6    2
     7     7     9    1
     8     6     8    1
     9     9    11    2
    10     8    10    2
    11    11    10    1
    12    11    13    1
    13    10    12    1
    14    13    14    1
    15    12    14    1
