MODEL 1
REMARK VINA RESULT:      -7.4      0.000      0.000
REMARK SMILES CC(=O)CCc1ccc2c(c1)OCO2
REMARK SMILES IDX 4 1 2 2 1 3 3 4 5 5 6 6 7 7 11 8 8 9 10 10 9 11 12 12 14 13
REMARK SMILES IDX 13 14
REMARK H PARENT
REMARK Flexibility Score: inf
ROOT
ATOM      1  C   UNL     1       5.538  -0.218   1.998  1.00  0.00     0.080 C 
ENDROOT
BRANCH   1   2
ATOM      2  C   UNL     1       5.269   1.000   1.183  1.00  0.00     0.130 C 
ATOM      3  C   UNL     1       5.920   1.215  -0.136  1.00  0.00     0.087 C 
ATOM      4  O   UNL     1       4.500   1.861   1.579  1.00  0.00    -0.300 OA
ENDBRANCH   1   2
BRANCH   1   5
ATOM      5  C   UNL     1       6.499  -1.153   1.291  1.00  0.00     0.043 C 
BRANCH   5   6
ATOM      6  C   UNL     1       7.625  -1.539   2.159  1.00  0.00    -0.044 A 
ATOM      7  C   UNL     1       7.662  -1.184   3.513  1.00  0.00     0.008 A 
ATOM      8  C   UNL     1       8.669  -2.269   1.639  1.00  0.00     0.054 A 
ATOM      9  C   UNL     1       8.744  -1.576   4.280  1.00  0.00     0.051 A 
ATOM     10  C   UNL     1       9.761  -2.663   2.418  1.00  0.00     0.166 A 
ATOM     11  C   UNL     1       9.799  -2.313   3.750  1.00  0.00     0.165 A 
ATOM     12  O   UNL     1      10.905  -3.380   2.139  1.00  0.00    -0.454 OA
ATOM     13  O   UNL     1      10.977  -2.829   4.266  1.00  0.00    -0.454 OA
ATOM     14  C   UNL     1      11.664  -3.590   3.302  1.00  0.00     0.468 C 
ENDBRANCH   5   6
ENDBRANCH   1   5
TORSDOF 3
ENDMDL
MODEL 2
REMARK VINA RESULT:      -7.3      3.827      4.866
REMARK SMILES CC(=O)CCc1ccc2c(c1)OCO2
REMARK SMILES IDX 4 1 2 2 1 3 3 4 5 5 6 6 7 7 11 8 8 9 10 10 9 11 12 12 14 13
REMARK SMILES IDX 13 14
REMARK H PARENT
REMARK Flexibility Score: inf
ROOT
ATOM      1  C   UNL     1       5.502   1.917   1.283  1.00  0.00     0.080 C 
ENDROOT
BRANCH   1   2
ATOM      2  C   UNL     1       5.026   0.700   1.998  1.00  0.00     0.130 C 
ATOM      3  C   UNL     1       5.878  -0.512   2.130  1.00  0.00     0.087 C 
ATOM      4  O   UNL     1       3.914   0.663   2.500  1.00  0.00    -0.300 OA
ENDBRANCH   1   2
BRANCH   1   5
ATOM      5  C   UNL     1       5.396   1.749  -0.220  1.00  0.00     0.043 C 
BRANCH   5   6
ATOM      6  C   UNL     1       6.565   1.043  -0.774  1.00  0.00    -0.044 A 
ATOM      7  C   UNL     1       7.872   1.444  -0.476  1.00  0.00     0.008 A 
ATOM      8  C   UNL     1       6.378  -0.038  -1.605  1.00  0.00     0.054 A 
ATOM      9  C   UNL     1       8.931   0.743  -1.025  1.00  0.00     0.051 A 
ATOM     10  C   UNL     1       7.451  -0.744  -2.157  1.00  0.00     0.166 A 
ATOM     11  C   UNL     1       8.738  -0.350  -1.865  1.00  0.00     0.165 A 
ATOM     12  O   UNL     1       7.526  -1.834  -2.997  1.00  0.00    -0.454 OA
ATOM     13  O   UNL     1       9.585  -1.216  -2.538  1.00  0.00    -0.454 OA
ATOM     14  C   UNL     1       8.859  -2.228  -3.195  1.00  0.00     0.468 C 
ENDBRANCH   5   6
ENDBRANCH   1   5
TORSDOF 3
ENDMDL
MODEL 3
REMARK VINA RESULT:      -7.1      3.111      4.262
REMARK SMILES CC(=O)CCc1ccc2c(c1)OCO2
REMARK SMILES IDX 4 1 2 2 1 3 3 4 5 5 6 6 7 7 11 8 8 9 10 10 9 11 12 12 14 13
REMARK SMILES IDX 13 14
REMARK H PARENT
REMARK Flexibility Score: inf
ROOT
ATOM      1  C   UNL     1       5.744   1.352  -0.298  1.00  0.00     0.080 C 
ENDROOT
BRANCH   1   2
ATOM      2  C   UNL     1       5.110   1.269   1.047  1.00  0.00     0.130 C 
ATOM      3  C   UNL     1       5.358   0.118   1.957  1.00  0.00     0.087 C 
ATOM      4  O   UNL     1       4.363   2.149   1.444  1.00  0.00    -0.300 OA
ENDBRANCH   1   2
BRANCH   1   5
ATOM      5  C   UNL     1       7.233   1.078  -0.223  1.00  0.00     0.043 C 
BRANCH   5   6
ATOM      6  C   UNL     1       7.585  -0.208  -0.851  1.00  0.00    -0.044 A 
ATOM      7  C   UNL     1       7.605  -0.363  -2.242  1.00  0.00     0.008 A 
ATOM      8  C   UNL     1       7.905  -1.288  -0.060  1.00  0.00     0.054 A 
ATOM      9  C   UNL     1       7.944  -1.594  -2.774  1.00  0.00     0.051 A 
ATOM     10  C   UNL     1       8.247  -2.530  -0.604  1.00  0.00     0.166 A 
ATOM     11  C   UNL     1       8.266  -2.684  -1.972  1.00  0.00     0.165 A 
ATOM     12  O   UNL     1       8.599  -3.738  -0.039  1.00  0.00    -0.454 OA
ATOM     13  O   UNL     1       8.634  -3.997  -2.222  1.00  0.00    -0.454 OA
ATOM     14  C   UNL     1       8.943  -4.675  -1.028  1.00  0.00     0.468 C 
ENDBRANCH   5   6
ENDBRANCH   1   5
TORSDOF 3
ENDMDL
MODEL 4
REMARK VINA RESULT:      -7.0      1.027      1.080
REMARK SMILES CC(=O)CCc1ccc2c(c1)OCO2
REMARK SMILES IDX 4 1 2 2 1 3 3 4 5 5 6 6 7 7 11 8 8 9 10 10 9 11 12 12 14 13
REMARK SMILES IDX 13 14
REMARK H PARENT
REMARK Flexibility Score: inf
ROOT
ATOM      1  C   UNL     1       6.095   0.187   1.344  1.00  0.00     0.080 C 
ENDROOT
BRANCH   1   2
ATOM      2  C   UNL     1       5.880   0.852   0.029  1.00  0.00     0.130 C 
ATOM      3  C   UNL     1       5.162   2.149  -0.083  1.00  0.00     0.087 C 
ATOM      4  O   UNL     1       6.290   0.345  -1.003  1.00  0.00    -0.300 OA
ENDBRANCH   1   2
BRANCH   1   5
ATOM      5  C   UNL     1       6.524  -1.256   1.169  1.00  0.00     0.043 C 
BRANCH   5   6
ATOM      6  C   UNL     1       7.641  -1.607   2.063  1.00  0.00    -0.044 A 
ATOM      7  C   UNL     1       7.658  -1.209   3.405  1.00  0.00     0.008 A 
ATOM      8  C   UNL     1       8.698  -2.344   1.579  1.00  0.00     0.054 A 
ATOM      9  C   UNL     1       8.733  -1.568   4.198  1.00  0.00     0.051 A 
ATOM     10  C   UNL     1       9.782  -2.705   2.385  1.00  0.00     0.166 A 
ATOM     11  C   UNL     1       9.800  -2.314   3.705  1.00  0.00     0.165 A 
ATOM     12  O   UNL     1      10.934  -3.422   2.143  1.00  0.00    -0.454 OA
ATOM     13  O   UNL     1      10.975  -2.804   4.253  1.00  0.00    -0.454 OA
ATOM     14  C   UNL     1      11.680  -3.590   3.322  1.00  0.00     0.468 C 
ENDBRANCH   5   6
ENDBRANCH   1   5
TORSDOF 3
ENDMDL
MODEL 5
REMARK VINA RESULT:      -6.9      0.987      1.951
REMARK SMILES CC(=O)CCc1ccc2c(c1)OCO2
REMARK SMILES IDX 4 1 2 2 1 3 3 4 5 5 6 6 7 7 11 8 8 9 10 10 9 11 12 12 14 13
REMARK SMILES IDX 13 14
REMARK H PARENT
REMARK Flexibility Score: inf
ROOT
ATOM      1  C   UNL     1       5.350  -0.106   1.964  1.00  0.00     0.080 C 
ENDROOT
BRANCH   1   2
ATOM      2  C   UNL     1       5.232   1.084   1.075  1.00  0.00     0.130 C 
ATOM      3  C   UNL     1       5.904   1.138  -0.251  1.00  0.00     0.087 C 
ATOM      4  O   UNL     1       4.574   2.055   1.412  1.00  0.00    -0.300 OA
ENDBRANCH   1   2
BRANCH   1   5
ATOM      5  C   UNL     1       6.111  -1.227   1.284  1.00  0.00     0.043 C 
BRANCH   5   6
ATOM      6  C   UNL     1       7.357  -1.554   2.000  1.00  0.00    -0.044 A 
ATOM      7  C   UNL     1       8.387  -2.277   1.387  1.00  0.00     0.008 A 
ATOM      8  C   UNL     1       7.524  -1.141   3.303  1.00  0.00     0.054 A 
ATOM      9  C   UNL     1       9.534  -2.554   2.109  1.00  0.00     0.051 A 
ATOM     10  C   UNL     1       8.686  -1.423   4.027  1.00  0.00     0.166 A 
ATOM     11  C   UNL     1       9.699  -2.135   3.425  1.00  0.00     0.165 A 
ATOM     12  O   UNL     1       9.085  -1.129   5.314  1.00  0.00    -0.454 OA
ATOM     13  O   UNL     1      10.711  -2.264   4.364  1.00  0.00    -0.454 OA
ATOM     14  C   UNL     1      10.401  -1.563   5.545  1.00  0.00     0.468 C 
ENDBRANCH   5   6
ENDBRANCH   1   5
TORSDOF 3
ENDMDL
