MODEL 1
REMARK VINA RESULT:      -7.6      0.000      0.000
REMARK SMILES CC(=O)CCc1ccc2c(c1)OCO2
REMARK SMILES IDX 4 1 2 2 1 3 3 4 5 5 6 6 7 7 11 8 8 9 10 10 9 11 12 12 14 13
REMARK SMILES IDX 13 14
REMARK H PARENT
REMARK Flexibility Score: inf
ROOT
ATOM      1  C   UNL     1       5.528   1.910   1.255  1.00  0.00     0.080 C 
ENDROOT
BRANCH   1   2
ATOM      2  C   UNL     1       5.069   0.708   2.007  1.00  0.00     0.130 C 
ATOM      3  C   UNL     1       5.936  -0.489   2.170  1.00  0.00     0.087 C 
ATOM      4  O   UNL     1       3.959   0.672   2.513  1.00  0.00    -0.300 OA
ENDBRANCH   1   2
BRANCH   1   5
ATOM      5  C   UNL     1       5.396   1.707  -0.241  1.00  0.00     0.043 C 
BRANCH   5   6
ATOM      6  C   UNL     1       6.569   1.015  -0.804  1.00  0.00    -0.044 A 
ATOM      7  C   UNL     1       7.872   1.466  -0.563  1.00  0.00     0.008 A 
ATOM      8  C   UNL     1       6.391  -0.104  -1.585  1.00  0.00     0.054 A 
ATOM      9  C   UNL     1       8.934   0.776  -1.118  1.00  0.00     0.051 A 
ATOM     10  C   UNL     1       7.468  -0.799  -2.143  1.00  0.00     0.166 A 
ATOM     11  C   UNL     1       8.751  -0.355  -1.907  1.00  0.00     0.165 A 
ATOM     12  O   UNL     1       7.552  -1.920  -2.941  1.00  0.00    -0.454 OA
ATOM     13  O   UNL     1       9.603  -1.222  -2.572  1.00  0.00    -0.454 OA
ATOM     14  C   UNL     1       8.890  -2.281  -3.166  1.00  0.00     0.468 C 
ENDBRANCH   5   6
ENDBRANCH   1   5
TORSDOF 3
ENDMDL
MODEL 2
REMARK VINA RESULT:      -7.4      1.944      2.418
REMARK SMILES CC(=O)CCc1ccc2c(c1)OCO2
REMARK SMILES IDX 4 1 2 2 1 3 3 4 5 5 6 6 7 7 11 8 8 9 10 10 9 11 12 12 14 13
REMARK SMILES IDX 13 14
REMARK H PARENT
REMARK Flexibility Score: inf
ROOT
ATOM      1  C   UNL     1       5.765   1.192  -0.314  1.00  0.00     0.080 C 
ENDROOT
BRANCH   1   2
ATOM      2  C   UNL     1       5.179   1.204   1.056  1.00  0.00     0.130 C 
ATOM      3  C   UNL     1       5.388   0.077   2.004  1.00  0.00     0.087 C 
ATOM      4  O   UNL     1       4.506   2.146   1.441  1.00  0.00    -0.300 OA
ENDBRANCH   1   2
BRANCH   1   5
ATOM      5  C   UNL     1       7.268   1.003  -0.268  1.00  0.00     0.043 C 
BRANCH   5   6
ATOM      6  C   UNL     1       7.678  -0.275  -0.876  1.00  0.00    -0.044 A 
ATOM      7  C   UNL     1       7.844  -0.408  -2.259  1.00  0.00     0.008 A 
ATOM      8  C   UNL     1       7.906  -1.370  -0.074  1.00  0.00     0.054 A 
ATOM      9  C   UNL     1       8.231  -1.633  -2.774  1.00  0.00     0.051 A 
ATOM     10  C   UNL     1       8.298  -2.605  -0.599  1.00  0.00     0.166 A 
ATOM     11  C   UNL     1       8.461  -2.738  -1.960  1.00  0.00     0.165 A 
ATOM     12  O   UNL     1       8.581  -3.825  -0.021  1.00  0.00    -0.454 OA
ATOM     13  O   UNL     1       8.846  -4.049  -2.192  1.00  0.00    -0.454 OA
ATOM     14  C   UNL     1       9.022  -4.748  -0.983  1.00  0.00     0.468 C 
ENDBRANCH   5   6
ENDBRANCH   1   5
TORSDOF 3
ENDMDL
MODEL 3
REMARK VINA RESULT:      -7.2      2.039      2.608
REMARK SMILES CC(=O)CCc1ccc2c(c1)OCO2
REMARK SMILES IDX 4 1 2 2 1 3 3 4 5 5 6 6 7 7 11 8 8 9 10 10 9 11 12 12 14 13
REMARK SMILES IDX 13 14
REMARK H PARENT
REMARK Flexibility Score: inf
ROOT
ATOM      1  C   UNL     1       5.425  -0.036   2.012  1.00  0.00     0.080 C 
ENDROOT
BRANCH   1   2
ATOM      2  C   UNL     1       4.567   1.155   1.757  1.00  0.00     0.130 C 
ATOM      3  C   UNL     1       4.890   2.136   0.687  1.00  0.00     0.087 C 
ATOM      4  O   UNL     1       3.567   1.361   2.425  1.00  0.00    -0.300 OA
ENDBRANCH   1   2
BRANCH   1   5
ATOM      5  C   UNL     1       6.857   0.216   1.582  1.00  0.00     0.043 C 
BRANCH   5   6
ATOM      6  C   UNL     1       7.279  -0.712   0.518  1.00  0.00    -0.044 A 
ATOM      7  C   UNL     1       7.142  -0.385  -0.836  1.00  0.00     0.008 A 
ATOM      8  C   UNL     1       7.824  -1.931   0.852  1.00  0.00     0.054 A 
ATOM      9  C   UNL     1       7.556  -1.295  -1.791  1.00  0.00     0.051 A 
ATOM     10  C   UNL     1       8.242  -2.847  -0.118  1.00  0.00     0.166 A 
ATOM     11  C   UNL     1       8.107  -2.527  -1.450  1.00  0.00     0.165 A 
ATOM     12  O   UNL     1       8.805  -4.103  -0.043  1.00  0.00    -0.454 OA
ATOM     13  O   UNL     1       8.595  -3.604  -2.173  1.00  0.00    -0.454 OA
ATOM     14  C   UNL     1       9.132  -4.587  -1.320  1.00  0.00     0.468 C 
ENDBRANCH   5   6
ENDBRANCH   1   5
TORSDOF 3
ENDMDL
MODEL 4
REMARK VINA RESULT:      -7.1      1.244      1.441
REMARK SMILES CC(=O)CCc1ccc2c(c1)OCO2
REMARK SMILES IDX 4 1 2 2 1 3 3 4 5 5 6 6 7 7 11 8 8 9 10 10 9 11 12 12 14 13
REMARK SMILES IDX 13 14
REMARK H PARENT
REMARK Flexibility Score: inf
ROOT
ATOM      1  C   UNL     1       6.374   1.224   0.930  1.00  0.00     0.080 C 
ENDROOT
BRANCH   1   2
ATOM      2  C   UNL     1       5.662   0.380   1.930  1.00  0.00     0.130 C 
ATOM      3  C   UNL     1       6.281  -0.846   2.501  1.00  0.00     0.087 C 
ATOM      4  O   UNL     1       4.540   0.674   2.313  1.00  0.00    -0.300 OA
ENDBRANCH   1   2
BRANCH   1   5
ATOM      5  C   UNL     1       5.869   0.957  -0.474  1.00  0.00     0.043 C 
BRANCH   5   6
ATOM      6  C   UNL     1       6.813   0.128  -1.245  1.00  0.00    -0.044 A 
ATOM      7  C   UNL     1       7.505   0.639  -2.349  1.00  0.00     0.008 A 
ATOM      8  C   UNL     1       7.028  -1.181  -0.878  1.00  0.00     0.054 A 
ATOM      9  C   UNL     1       8.378  -0.186  -3.034  1.00  0.00     0.051 A 
ATOM     10  C   UNL     1       7.912  -2.011  -1.574  1.00  0.00     0.166 A 
ATOM     11  C   UNL     1       8.593  -1.509  -2.661  1.00  0.00     0.165 A 
ATOM     12  O   UNL     1       8.293  -3.326  -1.410  1.00  0.00    -0.454 OA
ATOM     13  O   UNL     1       9.386  -2.537  -3.147  1.00  0.00    -0.454 OA
ATOM     14  C   UNL     1       9.295  -3.679  -2.329  1.00  0.00     0.468 C 
ENDBRANCH   5   6
ENDBRANCH   1   5
TORSDOF 3
ENDMDL
MODEL 5
REMARK VINA RESULT:      -7.0      1.995      2.577
REMARK SMILES CC(=O)CCc1ccc2c(c1)OCO2
REMARK SMILES IDX 4 1 2 2 1 3 3 4 5 5 6 6 7 7 11 8 8 9 10 10 9 11 12 12 14 13
REMARK SMILES IDX 13 14
REMARK H PARENT
REMARK Flexibility Score: inf
ROOT
ATOM      1  C   UNL     1       6.871   0.694   1.174  1.00  0.00     0.080 C 
ENDROOT
BRANCH   1   2
ATOM      2  C   UNL     1       5.466   1.091   1.467  1.00  0.00     0.130 C 
ATOM      3  C   UNL     1       4.773   2.149   0.684  1.00  0.00     0.087 C 
ATOM      4  O   UNL     1       4.838   0.556   2.367  1.00  0.00    -0.300 OA
ENDBRANCH   1   2
BRANCH   1   5
ATOM      5  C   UNL     1       7.190   0.848  -0.300  1.00  0.00     0.043 C 
BRANCH   5   6
ATOM      6  C   UNL     1       7.655  -0.418  -0.893  1.00  0.00    -0.044 A 
ATOM      7  C   UNL     1       7.899  -0.539  -2.266  1.00  0.00     0.008 A 
ATOM      8  C   UNL     1       7.862  -1.514  -0.087  1.00  0.00     0.054 A 
ATOM      9  C   UNL     1       8.335  -1.752  -2.767  1.00  0.00     0.051 A 
ATOM     10  C   UNL     1       8.304  -2.739  -0.598  1.00  0.00     0.166 A 
ATOM     11  C   UNL     1       8.542  -2.858  -1.949  1.00  0.00     0.165 A 
ATOM     12  O   UNL     1       8.578  -3.956  -0.013  1.00  0.00    -0.454 OA
ATOM     13  O   UNL     1       8.964  -4.160  -2.167  1.00  0.00    -0.454 OA
ATOM     14  C   UNL     1       9.088  -4.865  -0.955  1.00  0.00     0.468 C 
ENDBRANCH   5   6
ENDBRANCH   1   5
TORSDOF 3
ENDMDL
