@<TRIPOS>MOLECULE
/home/cewinharhar/GITHUB/reincatalyze/data/processed/docking_pred/2023-May-23-1437_sub9_nm5_bs15_s42_ex16_mel10_mts10000_k50_ec02_g099_lra3e-4_lrc1e-3/051d9442833557c4466992e4bdada3c2de553c76_ligand_9.pdbqt
 14 15 0 0 0
SMALL
GASTEIGER

@<TRIPOS>ATOM
      1  C          5.7650    1.1920   -0.3140 C.3     1  UNL1        0.0800
      2  C          5.1790    1.2040    1.0560 C.2     1  UNL1        0.1300
      3  C          5.3880    0.0770    2.0040 C.3     1  UNL1        0.0870
      4  O          4.5060    2.1460    1.4410 O.2     1  UNL1       -0.3000
      5  C          7.2680    1.0030   -0.2680 C.3     1  UNL1        0.0430
      6  C          7.6780   -0.2750   -0.8760 C.2     1  UNL1       -0.0440
      7  C          7.8440   -0.4080   -2.2590 C.2     1  UNL1        0.0080
      8  C          7.9060   -1.3700   -0.0740 C.2     1  UNL1        0.0540
      9  C          8.2310   -1.6330   -2.7740 C.2     1  UNL1        0.0510
     10  C          8.2980   -2.6050   -0.5990 C.2     1  UNL1        0.1660
     11  C          8.4610   -2.7380   -1.9600 C.2     1  UNL1        0.1650
     12  O          8.5810   -3.8250   -0.0210 O.2     1  UNL1       -0.4540
     13  O          8.8460   -4.0490   -2.1920 O.2     1  UNL1       -0.4540
     14  C          9.0220   -4.7480   -0.9830 C.3     1  UNL1        0.4680
@<TRIPOS>BOND
     1     9     7    1
     2     9    11    2
     3     7     6    2
     4    13    11    1
     5    13    14    1
     6    11    10    1
     7    14    12    1
     8     6     5    1
     9     6     8    1
    10    10     8    2
    11    10    12    1
    12     1     5    1
    13     1     2    1
    14     2     4    2
    15     2     3    1
