@<TRIPOS>MOLECULE
/home/cewinharhar/GITHUB/reincatalyze/data/processed/docking_pred/2023-May-23-1437_sub9_nm5_bs15_s42_ex16_mel10_mts10000_k50_ec02_g099_lra3e-4_lrc1e-3/05fc2472135fbee8f2c0d268145bdd055e68f396_ligand_9.pdbqt
 14 15 0 0 0
SMALL
GASTEIGER

@<TRIPOS>ATOM
      1  C          5.5220    1.6130    0.0580 C.3     1  UNL1        0.0800
      2  C          4.8960    1.2200    1.3520 C.2     1  UNL1        0.1300
      3  C          5.3730    0.0410    2.1240 C.3     1  UNL1        0.0870
      4  O          3.9670    1.8590    1.8180 O.2     1  UNL1       -0.3000
      5  C          7.0160    1.3600    0.0700 C.3     1  UNL1        0.0430
      6  C          7.3750    0.1640   -0.7140 C.2     1  UNL1       -0.0440
      7  C          7.3330    0.1660   -2.1130 C.2     1  UNL1        0.0080
      8  C          7.7630   -0.9860   -0.0650 C.2     1  UNL1        0.0540
      9  C          7.6810   -0.9850   -2.7960 C.2     1  UNL1        0.0510
     10  C          8.1150   -2.1470   -0.7600 C.2     1  UNL1        0.1660
     11  C          8.0730   -2.1470   -2.1370 C.2     1  UNL1        0.1650
     12  O          8.5280   -3.3980   -0.3530 O.2     1  UNL1       -0.4540
     13  O          8.4660   -3.4100   -2.5500 O.2     1  UNL1       -0.4540
     14  C          8.8510   -4.2060   -1.4550 C.3     1  UNL1        0.4680
@<TRIPOS>BOND
     1     9    11    2
     2     9     7    1
     3    13    11    1
     4    13    14    1
     5    11    10    1
     6     7     6    2
     7    14    12    1
     8    10    12    1
     9    10     8    2
    10     6     8    1
    11     6     5    1
    12     1     5    1
    13     1     2    1
    14     2     4    2
    15     2     3    1
