MODEL 1
REMARK VINA RESULT:      -7.6      0.000      0.000
REMARK SMILES CC(=O)CCc1ccc2c(c1)OCO2
REMARK SMILES IDX 4 1 2 2 1 3 3 4 5 5 6 6 7 7 11 8 8 9 10 10 9 11 12 12 14 13
REMARK SMILES IDX 13 14
REMARK H PARENT
REMARK Flexibility Score: inf
ROOT
ATOM      1  C   UNL     1       5.587   1.860   1.308  1.00  0.00     0.080 C 
ENDROOT
BRANCH   1   2
ATOM      2  C   UNL     1       5.140   0.644   2.043  1.00  0.00     0.130 C 
ATOM      3  C   UNL     1       6.030  -0.535   2.215  1.00  0.00     0.087 C 
ATOM      4  O   UNL     1       4.022   0.581   2.528  1.00  0.00    -0.300 OA
ENDBRANCH   1   2
BRANCH   1   5
ATOM      5  C   UNL     1       5.434   1.685  -0.190  1.00  0.00     0.043 C 
BRANCH   5   6
ATOM      6  C   UNL     1       6.594   0.992  -0.780  1.00  0.00    -0.044 A 
ATOM      7  C   UNL     1       7.902   1.444  -0.571  1.00  0.00     0.008 A 
ATOM      8  C   UNL     1       6.397  -0.128  -1.555  1.00  0.00     0.054 A 
ATOM      9  C   UNL     1       8.951   0.752  -1.149  1.00  0.00     0.051 A 
ATOM     10  C   UNL     1       7.461  -0.824  -2.137  1.00  0.00     0.166 A 
ATOM     11  C   UNL     1       8.749  -0.380  -1.933  1.00  0.00     0.165 A 
ATOM     12  O   UNL     1       7.525  -1.946  -2.936  1.00  0.00    -0.454 OA
ATOM     13  O   UNL     1       9.585  -1.247  -2.617  1.00  0.00    -0.454 OA
ATOM     14  C   UNL     1       8.859  -2.307  -3.192  1.00  0.00     0.468 C 
ENDBRANCH   5   6
ENDBRANCH   1   5
TORSDOF 3
ENDMDL
MODEL 2
REMARK VINA RESULT:      -7.1      1.249      1.454
REMARK SMILES CC(=O)CCc1ccc2c(c1)OCO2
REMARK SMILES IDX 4 1 2 2 1 3 3 4 5 5 6 6 7 7 11 8 8 9 10 10 9 11 12 12 14 13
REMARK SMILES IDX 13 14
REMARK H PARENT
REMARK Flexibility Score: inf
ROOT
ATOM      1  C   UNL     1       6.393   1.167   0.956  1.00  0.00     0.080 C 
ENDROOT
BRANCH   1   2
ATOM      2  C   UNL     1       5.643   0.349   1.950  1.00  0.00     0.130 C 
ATOM      3  C   UNL     1       6.226  -0.882   2.547  1.00  0.00     0.087 C 
ATOM      4  O   UNL     1       4.520   0.669   2.304  1.00  0.00    -0.300 OA
ENDBRANCH   1   2
BRANCH   1   5
ATOM      5  C   UNL     1       5.892   0.917  -0.453  1.00  0.00     0.043 C 
BRANCH   5   6
ATOM      6  C   UNL     1       6.829   0.083  -1.227  1.00  0.00    -0.044 A 
ATOM      7  C   UNL     1       7.494   0.581  -2.354  1.00  0.00     0.008 A 
ATOM      8  C   UNL     1       7.065  -1.216  -0.840  1.00  0.00     0.054 A 
ATOM      9  C   UNL     1       8.363  -0.248  -3.040  1.00  0.00     0.051 A 
ATOM     10  C   UNL     1       7.945  -2.050  -1.537  1.00  0.00     0.166 A 
ATOM     11  C   UNL     1       8.598  -1.562  -2.647  1.00  0.00     0.165 A 
ATOM     12  O   UNL     1       8.342  -3.358  -1.357  1.00  0.00    -0.454 OA
ATOM     13  O   UNL     1       9.393  -2.590  -3.129  1.00  0.00    -0.454 OA
ATOM     14  C   UNL     1       9.330  -3.718  -2.288  1.00  0.00     0.468 C 
ENDBRANCH   5   6
ENDBRANCH   1   5
TORSDOF 3
ENDMDL
MODEL 3
REMARK VINA RESULT:      -7.0      1.729      2.348
REMARK SMILES CC(=O)CCc1ccc2c(c1)OCO2
REMARK SMILES IDX 4 1 2 2 1 3 3 4 5 5 6 6 7 7 11 8 8 9 10 10 9 11 12 12 14 13
REMARK SMILES IDX 13 14
REMARK H PARENT
REMARK Flexibility Score: inf
ROOT
ATOM      1  C   UNL     1       5.334  -0.018   2.101  1.00  0.00     0.080 C 
ENDROOT
BRANCH   1   2
ATOM      2  C   UNL     1       4.449   1.151   1.834  1.00  0.00     0.130 C 
ATOM      3  C   UNL     1       4.772   2.149   0.780  1.00  0.00     0.087 C 
ATOM      4  O   UNL     1       3.427   1.323   2.478  1.00  0.00    -0.300 OA
ENDBRANCH   1   2
BRANCH   1   5
ATOM      5  C   UNL     1       6.757   0.256   1.657  1.00  0.00     0.043 C 
BRANCH   5   6
ATOM      6  C   UNL     1       7.119  -0.536   0.467  1.00  0.00    -0.044 A 
ATOM      7  C   UNL     1       6.829  -0.089  -0.827  1.00  0.00     0.008 A 
ATOM      8  C   UNL     1       7.761  -1.744   0.622  1.00  0.00     0.054 A 
ATOM      9  C   UNL     1       7.194  -0.875  -1.905  1.00  0.00     0.051 A 
ATOM     10  C   UNL     1       8.128  -2.534  -0.472  1.00  0.00     0.166 A 
ATOM     11  C   UNL     1       7.842  -2.096  -1.746  1.00  0.00     0.165 A 
ATOM     12  O   UNL     1       8.764  -3.753  -0.580  1.00  0.00    -0.454 OA
ATOM     13  O   UNL     1       8.313  -3.064  -2.618  1.00  0.00    -0.454 OA
ATOM     14  C   UNL     1       8.985  -4.089  -1.925  1.00  0.00     0.468 C 
ENDBRANCH   5   6
ENDBRANCH   1   5
TORSDOF 3
ENDMDL
MODEL 4
REMARK VINA RESULT:      -7.0      1.630      1.999
REMARK SMILES CC(=O)CCc1ccc2c(c1)OCO2
REMARK SMILES IDX 4 1 2 2 1 3 3 4 5 5 6 6 7 7 11 8 8 9 10 10 9 11 12 12 14 13
REMARK SMILES IDX 13 14
REMARK H PARENT
REMARK Flexibility Score: inf
ROOT
ATOM      1  C   UNL     1       5.522   1.613   0.058  1.00  0.00     0.080 C 
ENDROOT
BRANCH   1   2
ATOM      2  C   UNL     1       4.896   1.220   1.352  1.00  0.00     0.130 C 
ATOM      3  C   UNL     1       5.373   0.041   2.124  1.00  0.00     0.087 C 
ATOM      4  O   UNL     1       3.967   1.859   1.818  1.00  0.00    -0.300 OA
ENDBRANCH   1   2
BRANCH   1   5
ATOM      5  C   UNL     1       7.016   1.360   0.070  1.00  0.00     0.043 C 
BRANCH   5   6
ATOM      6  C   UNL     1       7.375   0.164  -0.714  1.00  0.00    -0.044 A 
ATOM      7  C   UNL     1       7.333   0.166  -2.113  1.00  0.00     0.008 A 
ATOM      8  C   UNL     1       7.763  -0.986  -0.065  1.00  0.00     0.054 A 
ATOM      9  C   UNL     1       7.681  -0.985  -2.796  1.00  0.00     0.051 A 
ATOM     10  C   UNL     1       8.115  -2.147  -0.760  1.00  0.00     0.166 A 
ATOM     11  C   UNL     1       8.073  -2.147  -2.137  1.00  0.00     0.165 A 
ATOM     12  O   UNL     1       8.528  -3.398  -0.353  1.00  0.00    -0.454 OA
ATOM     13  O   UNL     1       8.466  -3.410  -2.550  1.00  0.00    -0.454 OA
ATOM     14  C   UNL     1       8.851  -4.206  -1.455  1.00  0.00     0.468 C 
ENDBRANCH   5   6
ENDBRANCH   1   5
TORSDOF 3
ENDMDL
MODEL 5
REMARK VINA RESULT:      -6.7      1.250      1.744
REMARK SMILES CC(=O)CCc1ccc2c(c1)OCO2
REMARK SMILES IDX 4 1 2 2 1 3 3 4 5 5 6 6 7 7 11 8 8 9 10 10 9 11 12 12 14 13
REMARK SMILES IDX 13 14
REMARK H PARENT
REMARK Flexibility Score: inf
ROOT
ATOM      1  C   UNL     1       5.290  -0.089   1.980  1.00  0.00     0.080 C 
ENDROOT
BRANCH   1   2
ATOM      2  C   UNL     1       4.441   1.122   1.800  1.00  0.00     0.130 C 
ATOM      3  C   UNL     1       4.753   2.146   0.767  1.00  0.00     0.087 C 
ATOM      4  O   UNL     1       3.460   1.310   2.500  1.00  0.00    -0.300 OA
ENDBRANCH   1   2
BRANCH   1   5
ATOM      5  C   UNL     1       6.764   0.261   1.942  1.00  0.00     0.043 C 
BRANCH   5   6
ATOM      6  C   UNL     1       7.370  -0.063   0.638  1.00  0.00    -0.044 A 
ATOM      7  C   UNL     1       7.851   0.936  -0.215  1.00  0.00     0.008 A 
ATOM      8  C   UNL     1       7.472  -1.377   0.242  1.00  0.00     0.054 A 
ATOM      9  C   UNL     1       8.410   0.572  -1.427  1.00  0.00     0.051 A 
ATOM     10  C   UNL     1       8.039  -1.740  -0.984  1.00  0.00     0.166 A 
ATOM     11  C   UNL     1       8.511  -0.757  -1.825  1.00  0.00     0.165 A 
ATOM     12  O   UNL     1       8.251  -2.956  -1.597  1.00  0.00    -0.454 OA
ATOM     13  O   UNL     1       9.010  -1.397  -2.949  1.00  0.00    -0.454 OA
ATOM     14  C   UNL     1       8.948  -2.796  -2.806  1.00  0.00     0.468 C 
ENDBRANCH   5   6
ENDBRANCH   1   5
TORSDOF 3
ENDMDL
