@<TRIPOS>MOLECULE
/home/cewinharhar/GITHUB/reincatalyze/data/processed/docking_pred/2023-May-23-1437_sub9_nm5_bs15_s42_ex16_mel10_mts10000_k50_ec02_g099_lra3e-4_lrc1e-3/05fc2472135fbee8f2c0d268145bdd055e68f396_ligand_9.pdbqt
 14 15 0 0 0
SMALL
GASTEIGER

@<TRIPOS>ATOM
      1  C          5.2900   -0.0890    1.9800 C.3     1  UNL1        0.0800
      2  C          4.4410    1.1220    1.8000 C.2     1  UNL1        0.1300
      3  C          4.7530    2.1460    0.7670 C.3     1  UNL1        0.0870
      4  O          3.4600    1.3100    2.5000 O.2     1  UNL1       -0.3000
      5  C          6.7640    0.2610    1.9420 C.3     1  UNL1        0.0430
      6  C          7.3700   -0.0630    0.6380 C.2     1  UNL1       -0.0440
      7  C          7.8510    0.9360   -0.2150 C.2     1  UNL1        0.0080
      8  C          7.4720   -1.3770    0.2420 C.2     1  UNL1        0.0540
      9  C          8.4100    0.5720   -1.4270 C.2     1  UNL1        0.0510
     10  C          8.0390   -1.7400   -0.9840 C.2     1  UNL1        0.1660
     11  C          8.5110   -0.7570   -1.8250 C.2     1  UNL1        0.1650
     12  O          8.2510   -2.9560   -1.5970 O.2     1  UNL1       -0.4540
     13  O          9.0100   -1.3970   -2.9490 O.2     1  UNL1       -0.4540
     14  C          8.9480   -2.7960   -2.8060 C.3     1  UNL1        0.4680
@<TRIPOS>BOND
     1    13    14    1
     2    13    11    1
     3    14    12    1
     4    11     9    2
     5    11    10    1
     6    12    10    1
     7     9     7    1
     8    10     8    2
     9     7     6    2
    10     8     6    1
    11     6     5    1
    12     3     2    1
    13     2     1    1
    14     2     4    2
    15     5     1    1
