@<TRIPOS>MOLECULE
/home/cewinharhar/GITHUB/reincatalyze/data/processed/docking_pred/2023-May-23-1437_sub9_nm5_bs15_s42_ex16_mel10_mts10000_k50_ec02_g099_lra3e-4_lrc1e-3/05fc2472135fbee8f2c0d268145bdd055e68f396_ligand_9.pdbqt
 14 15 0 0 0
SMALL
GASTEIGER

@<TRIPOS>ATOM
      1  C          5.5870    1.8600    1.3080 C.3     1  UNL1        0.0800
      2  C          5.1400    0.6440    2.0430 C.2     1  UNL1        0.1300
      3  C          6.0300   -0.5350    2.2150 C.3     1  UNL1        0.0870
      4  O          4.0220    0.5810    2.5280 O.2     1  UNL1       -0.3000
      5  C          5.4340    1.6850   -0.1900 C.3     1  UNL1        0.0430
      6  C          6.5940    0.9920   -0.7800 C.2     1  UNL1       -0.0440
      7  C          7.9020    1.4440   -0.5710 C.2     1  UNL1        0.0080
      8  C          6.3970   -0.1280   -1.5550 C.2     1  UNL1        0.0540
      9  C          8.9510    0.7520   -1.1490 C.2     1  UNL1        0.0510
     10  C          7.4610   -0.8240   -2.1370 C.2     1  UNL1        0.1660
     11  C          8.7490   -0.3800   -1.9330 C.2     1  UNL1        0.1650
     12  O          7.5250   -1.9460   -2.9360 O.2     1  UNL1       -0.4540
     13  O          9.5850   -1.2470   -2.6170 O.2     1  UNL1       -0.4540
     14  C          8.8590   -2.3070   -3.1920 C.3     1  UNL1        0.4680
@<TRIPOS>BOND
     1    14    12    1
     2    14    13    1
     3    12    10    1
     4    13    11    1
     5    10    11    2
     6    10     8    1
     7    11     9    1
     8     8     6    2
     9     9     7    2
    10     6     7    1
    11     6     5    1
    12     5     1    1
    13     1     2    1
    14     2     3    1
    15     2     4    2
