@<TRIPOS>MOLECULE
/home/cewinharhar/GITHUB/reincatalyze/data/processed/docking_pred/2023-May-23-1437_sub9_nm5_bs15_s42_ex16_mel10_mts10000_k50_ec02_g099_lra3e-4_lrc1e-3/05fc2472135fbee8f2c0d268145bdd055e68f396_ligand_9.pdbqt
 14 15 0 0 0
SMALL
GASTEIGER

@<TRIPOS>ATOM
      1  C          6.3930    1.1670    0.9560 C.3     1  UNL1        0.0800
      2  C          5.6430    0.3490    1.9500 C.2     1  UNL1        0.1300
      3  C          6.2260   -0.8820    2.5470 C.3     1  UNL1        0.0870
      4  O          4.5200    0.6690    2.3040 O.2     1  UNL1       -0.3000
      5  C          5.8920    0.9170   -0.4530 C.3     1  UNL1        0.0430
      6  C          6.8290    0.0830   -1.2270 C.2     1  UNL1       -0.0440
      7  C          7.4940    0.5810   -2.3540 C.2     1  UNL1        0.0080
      8  C          7.0650   -1.2160   -0.8400 C.2     1  UNL1        0.0540
      9  C          8.3630   -0.2480   -3.0400 C.2     1  UNL1        0.0510
     10  C          7.9450   -2.0500   -1.5370 C.2     1  UNL1        0.1660
     11  C          8.5980   -1.5620   -2.6470 C.2     1  UNL1        0.1650
     12  O          8.3420   -3.3580   -1.3570 O.2     1  UNL1       -0.4540
     13  O          9.3930   -2.5900   -3.1290 O.2     1  UNL1       -0.4540
     14  C          9.3300   -3.7180   -2.2880 C.3     1  UNL1        0.4680
@<TRIPOS>BOND
     1    13    11    1
     2    13    14    1
     3     9    11    2
     4     9     7    1
     5    11    10    1
     6     7     6    2
     7    14    12    1
     8    10    12    1
     9    10     8    2
    10     6     8    1
    11     6     5    1
    12     5     1    1
    13     1     2    1
    14     2     4    2
    15     2     3    1
