@<TRIPOS>MOLECULE
/home/cewinharhar/GITHUB/reincatalyze/data/processed/docking_pred/2023-May-23-1437_sub9_nm5_bs15_s42_ex16_mel10_mts10000_k50_ec02_g099_lra3e-4_lrc1e-3/074f71e156faecc69724e62cc987f5104d3c940c_ligand_9.pdbqt
 14 15 0 0 0
SMALL
GASTEIGER

@<TRIPOS>ATOM
      1  C          6.3700    1.1900    0.9270 C.3     1  UNL1        0.0800
      2  C          5.6590    0.3670    1.9450 C.2     1  UNL1        0.1300
      3  C          6.2680   -0.8630    2.5190 C.3     1  UNL1        0.0870
      4  O          4.5470    0.6800    2.3390 O.2     1  UNL1       -0.3000
      5  C          5.8570    0.9030   -0.4700 C.3     1  UNL1        0.0430
      6  C          6.8070    0.0850   -1.2450 C.2     1  UNL1       -0.0440
      7  C          7.4890    0.6060   -2.3510 C.2     1  UNL1        0.0080
      8  C          7.0400   -1.2210   -0.8790 C.2     1  UNL1        0.0540
      9  C          8.3700   -0.2080   -3.0390 C.2     1  UNL1        0.0510
     10  C          7.9320   -2.0390   -1.5780 C.2     1  UNL1        0.1660
     11  C          8.6030   -1.5290   -2.6670 C.2     1  UNL1        0.1650
     12  O          8.3290   -3.3500   -1.4160 O.2     1  UNL1       -0.4540
     13  O          9.4070   -2.5470   -3.1560 O.2     1  UNL1       -0.4540
     14  C          9.3320   -3.6900   -2.3390 C.3     1  UNL1        0.4680
@<TRIPOS>BOND
     1    13    11    1
     2    13    14    1
     3     9    11    2
     4     9     7    1
     5    11    10    1
     6     7     6    2
     7    14    12    1
     8    10    12    1
     9    10     8    2
    10     6     8    1
    11     6     5    1
    12     5     1    1
    13     1     2    1
    14     2     4    2
    15     2     3    1
