@<TRIPOS>MOLECULE
/home/cewinharhar/GITHUB/reincatalyze/data/processed/docking_pred/2023-May-23-1437_sub9_nm5_bs15_s42_ex16_mel10_mts10000_k50_ec02_g099_lra3e-4_lrc1e-3/088b63c47bd4d7a6949fea46fb2e227d24226938_ligand_9.pdbqt
 14 15 0 0 0
SMALL
GASTEIGER

@<TRIPOS>ATOM
      1  C          5.6760    1.3330   -0.2830 C.3     1  UNL1        0.0800
      2  C          5.0870    1.2480    1.0830 C.2     1  UNL1        0.1300
      3  C          5.3850    0.1090    1.9920 C.3     1  UNL1        0.0870
      4  O          4.3370    2.1170    1.4970 O.2     1  UNL1       -0.3000
      5  C          7.1750    1.1150   -0.2510 C.3     1  UNL1        0.0430
      6  C          7.5540   -0.1720   -0.8600 C.2     1  UNL1       -0.0440
      7  C          7.6150   -0.3350   -2.2490 C.2     1  UNL1        0.0080
      8  C          7.8600   -1.2450   -0.0540 C.2     1  UNL1        0.0540
      9  C          7.9770   -1.5670   -2.7650 C.2     1  UNL1        0.0510
     10  C          8.2260   -2.4870   -0.5810 C.2     1  UNL1        0.1660
     11  C          8.2850   -2.6500   -1.9470 C.2     1  UNL1        0.1650
     12  O          8.5700   -3.6890    0.0010 O.2     1  UNL1       -0.4540
     13  O          8.6690   -3.9610   -2.1790 O.2     1  UNL1       -0.4540
     14  C          8.9480   -4.6300   -0.9720 C.3     1  UNL1        0.4680
@<TRIPOS>BOND
     1     9     7    1
     2     9    11    2
     3     7     6    2
     4    13    11    1
     5    13    14    1
     6    11    10    1
     7    14    12    1
     8     6     5    1
     9     6     8    1
    10    10     8    2
    11    10    12    1
    12     1     5    1
    13     1     2    1
    14     2     4    2
    15     2     3    1
