@<TRIPOS>MOLECULE
/home/cewinharhar/GITHUB/reincatalyze/data/processed/docking_pred/2023-May-23-1437_sub9_nm5_bs15_s42_ex16_mel10_mts10000_k50_ec02_g099_lra3e-4_lrc1e-3/08a74a7e320cd1ecb560e86b752820c061dfae11_ligand_9.pdbqt
 14 15 0 0 0
SMALL
GASTEIGER

@<TRIPOS>ATOM
      1  C          5.4330   -0.0460    1.9920 C.3     1  UNL1        0.0800
      2  C          4.5780    1.1480    1.7460 C.2     1  UNL1        0.1300
      3  C          4.8860    2.1210    0.6650 C.3     1  UNL1        0.0870
      4  O          3.5910    1.3640    2.4320 O.2     1  UNL1       -0.3000
      5  C          6.8650    0.2050    1.5610 C.3     1  UNL1        0.0430
      6  C          7.2880   -0.7280    0.5010 C.2     1  UNL1       -0.0440
      7  C          7.1530   -0.4080   -0.8550 C.2     1  UNL1        0.0080
      8  C          7.8320   -1.9460    0.8410 C.2     1  UNL1        0.0540
      9  C          7.5690   -1.3230   -1.8050 C.2     1  UNL1        0.0510
     10  C          8.2500   -2.8670   -0.1230 C.2     1  UNL1        0.1660
     11  C          8.1170   -2.5530   -1.4570 C.2     1  UNL1        0.1650
     12  O          8.8120   -4.1240   -0.0410 O.2     1  UNL1       -0.4540
     13  O          8.6060   -3.6340   -2.1740 O.2     1  UNL1       -0.4540
     14  C          9.1400   -4.6140   -1.3160 C.3     1  UNL1        0.4680
@<TRIPOS>BOND
     1    13    11    1
     2    13    14    1
     3     9    11    2
     4     9     7    1
     5    11    10    1
     6    14    12    1
     7     7     6    2
     8    10    12    1
     9    10     8    2
    10     6     8    1
    11     6     5    1
    12     3     2    1
    13     5     1    1
    14     2     1    1
    15     2     4    2
