MODEL 1
REMARK VINA RESULT:      -7.1      0.000      0.000
REMARK SMILES CC(=O)CCc1ccc2c(c1)OCO2
REMARK SMILES IDX 4 1 2 2 1 3 3 4 5 5 6 6 7 7 11 8 8 9 10 10 9 11 12 12 14 13
REMARK SMILES IDX 13 14
REMARK H PARENT
REMARK Flexibility Score: inf
ROOT
ATOM      1  C   UNL     1       9.672   1.318   2.661  1.00  0.00     0.080 C 
ENDROOT
BRANCH   1   2
ATOM      2  C   UNL     1      11.123   0.979   2.682  1.00  0.00     0.130 C 
ATOM      3  C   UNL     1      12.087   1.728   3.531  1.00  0.00     0.087 C 
ATOM      4  O   UNL     1      11.564   0.070   1.998  1.00  0.00    -0.300 OA
ENDBRANCH   1   2
BRANCH   1   5
ATOM      5  C   UNL     1       9.293   2.035   1.381  1.00  0.00     0.043 C 
BRANCH   5   6
ATOM      6  C   UNL     1       8.540   1.159   0.466  1.00  0.00    -0.044 A 
ATOM      7  C   UNL     1       7.147   1.042   0.543  1.00  0.00     0.008 A 
ATOM      8  C   UNL     1       9.212   0.435  -0.493  1.00  0.00     0.054 A 
ATOM      9  C   UNL     1       6.494   0.205  -0.343  1.00  0.00     0.051 A 
ATOM     10  C   UNL     1       8.546  -0.410  -1.386  1.00  0.00     0.166 A 
ATOM     11  C   UNL     1       7.176  -0.526  -1.310  1.00  0.00     0.165 A 
ATOM     12  O   UNL     1       8.981  -1.223  -2.412  1.00  0.00    -0.454 OA
ATOM     13  O   UNL     1       6.794  -1.416  -2.302  1.00  0.00    -0.454 OA
ATOM     14  C   UNL     1       7.896  -1.812  -3.082  1.00  0.00     0.468 C 
ENDBRANCH   5   6
ENDBRANCH   1   5
TORSDOF 3
ENDMDL
MODEL 2
REMARK VINA RESULT:      -7.1      2.723      3.962
REMARK SMILES CC(=O)CCc1ccc2c(c1)OCO2
REMARK SMILES IDX 4 1 2 2 1 3 3 4 5 5 6 6 7 7 11 8 8 9 10 10 9 11 12 12 14 13
REMARK SMILES IDX 13 14
REMARK H PARENT
REMARK Flexibility Score: inf
ROOT
ATOM      1  C   UNL     1       5.518   1.897   1.317  1.00  0.00     0.080 C 
ENDROOT
BRANCH   1   2
ATOM      2  C   UNL     1       5.021   0.676   2.011  1.00  0.00     0.130 C 
ATOM      3  C   UNL     1       5.853  -0.552   2.122  1.00  0.00     0.087 C 
ATOM      4  O   UNL     1       3.909   0.649   2.512  1.00  0.00    -0.300 OA
ENDBRANCH   1   2
BRANCH   1   5
ATOM      5  C   UNL     1       5.412   1.756  -0.188  1.00  0.00     0.043 C 
BRANCH   5   6
ATOM      6  C   UNL     1       6.573   1.047  -0.755  1.00  0.00    -0.044 A 
ATOM      7  C   UNL     1       7.884   1.453  -0.481  1.00  0.00     0.008 A 
ATOM      8  C   UNL     1       6.376  -0.044  -1.571  1.00  0.00     0.054 A 
ATOM      9  C   UNL     1       8.935   0.749  -1.040  1.00  0.00     0.051 A 
ATOM     10  C   UNL     1       7.441  -0.753  -2.133  1.00  0.00     0.166 A 
ATOM     11  C   UNL     1       8.732  -0.353  -1.865  1.00  0.00     0.165 A 
ATOM     12  O   UNL     1       7.505  -1.851  -2.963  1.00  0.00    -0.454 OA
ATOM     13  O   UNL     1       9.570  -1.224  -2.543  1.00  0.00    -0.454 OA
ATOM     14  C   UNL     1       8.837  -2.244  -3.178  1.00  0.00     0.468 C 
ENDBRANCH   5   6
ENDBRANCH   1   5
TORSDOF 3
ENDMDL
MODEL 3
REMARK VINA RESULT:      -6.9      2.642      5.459
REMARK SMILES CC(=O)CCc1ccc2c(c1)OCO2
REMARK SMILES IDX 4 1 2 2 1 3 3 4 5 5 6 6 7 7 11 8 8 9 10 10 9 11 12 12 14 13
REMARK SMILES IDX 13 14
REMARK H PARENT
REMARK Flexibility Score: inf
ROOT
ATOM      1  C   UNL     1       5.756   0.170   1.482  1.00  0.00     0.080 C 
ENDROOT
BRANCH   1   2
ATOM      2  C   UNL     1       4.964   1.377   1.117  1.00  0.00     0.130 C 
ATOM      3  C   UNL     1       5.237   2.143  -0.129  1.00  0.00     0.087 C 
ATOM      4  O   UNL     1       4.061   1.774   1.835  1.00  0.00    -0.300 OA
ENDBRANCH   1   2
BRANCH   1   5
ATOM      5  C   UNL     1       6.716  -0.214   0.373  1.00  0.00     0.043 C 
BRANCH   5   6
ATOM      6  C   UNL     1       8.081   0.275   0.638  1.00  0.00    -0.044 A 
ATOM      7  C   UNL     1       8.997   0.489  -0.399  1.00  0.00     0.008 A 
ATOM      8  C   UNL     1       8.474   0.534   1.931  1.00  0.00     0.054 A 
ATOM      9  C   UNL     1      10.264   0.951  -0.090  1.00  0.00     0.051 A 
ATOM     10  C   UNL     1       9.755   1.001   2.238  1.00  0.00     0.166 A 
ATOM     11  C   UNL     1      10.658   1.211   1.219  1.00  0.00     0.165 A 
ATOM     12  O   UNL     1      10.378   1.327   3.424  1.00  0.00    -0.454 OA
ATOM     13  O   UNL     1      11.827   1.667   1.807  1.00  0.00    -0.454 OA
ATOM     14  C   UNL     1      11.664   1.842   3.194  1.00  0.00     0.468 C 
ENDBRANCH   5   6
ENDBRANCH   1   5
TORSDOF 3
ENDMDL
MODEL 4
REMARK VINA RESULT:      -6.9      2.689      5.273
REMARK SMILES CC(=O)CCc1ccc2c(c1)OCO2
REMARK SMILES IDX 4 1 2 2 1 3 3 4 5 5 6 6 7 7 11 8 8 9 10 10 9 11 12 12 14 13
REMARK SMILES IDX 13 14
REMARK H PARENT
REMARK Flexibility Score: inf
ROOT
ATOM      1  C   UNL     1       5.776   0.908   0.377  1.00  0.00     0.080 C 
ENDROOT
BRANCH   1   2
ATOM      2  C   UNL     1       5.461   0.253   1.677  1.00  0.00     0.130 C 
ATOM      3  C   UNL     1       6.255  -0.898   2.185  1.00  0.00     0.087 C 
ATOM      4  O   UNL     1       4.534   0.645   2.368  1.00  0.00    -0.300 OA
ENDBRANCH   1   2
BRANCH   1   5
ATOM      5  C   UNL     1       6.622   2.150   0.577  1.00  0.00     0.043 C 
BRANCH   5   6
ATOM      6  C   UNL     1       8.040   1.816   0.798  1.00  0.00    -0.044 A 
ATOM      7  C   UNL     1       8.820   1.233  -0.207  1.00  0.00     0.008 A 
ATOM      8  C   UNL     1       8.622   2.082   2.016  1.00  0.00     0.054 A 
ATOM      9  C   UNL     1      10.147   0.942   0.057  1.00  0.00     0.051 A 
ATOM     10  C   UNL     1       9.963   1.787   2.278  1.00  0.00     0.166 A 
ATOM     11  C   UNL     1      10.732   1.211   1.290  1.00  0.00     0.165 A 
ATOM     12  O   UNL     1      10.762   1.951   3.390  1.00  0.00    -0.454 OA
ATOM     13  O   UNL     1      11.999   1.034   1.821  1.00  0.00    -0.454 OA
ATOM     14  C   UNL     1      12.087   1.572   3.119  1.00  0.00     0.468 C 
ENDBRANCH   5   6
ENDBRANCH   1   5
TORSDOF 3
ENDMDL
MODEL 5
REMARK VINA RESULT:      -6.9      1.258      5.237
REMARK SMILES CC(=O)CCc1ccc2c(c1)OCO2
REMARK SMILES IDX 4 1 2 2 1 3 3 4 5 5 6 6 7 7 11 8 8 9 10 10 9 11 12 12 14 13
REMARK SMILES IDX 13 14
REMARK H PARENT
REMARK Flexibility Score: inf
ROOT
ATOM      1  C   UNL     1       6.665   0.513  -0.946  1.00  0.00     0.080 C 
ENDROOT
BRANCH   1   2
ATOM      2  C   UNL     1       7.236  -0.380  -1.993  1.00  0.00     0.130 C 
ATOM      3  C   UNL     1       8.392   0.038  -2.830  1.00  0.00     0.087 C 
ATOM      4  O   UNL     1       6.766  -1.488  -2.196  1.00  0.00    -0.300 OA
ENDBRANCH   1   2
BRANCH   1   5
ATOM      5  C   UNL     1       6.841  -0.080   0.438  1.00  0.00     0.043 C 
BRANCH   5   6
ATOM      6  C   UNL     1       8.023   0.473   1.123  1.00  0.00    -0.044 A 
ATOM      7  C   UNL     1       7.965   1.681   1.826  1.00  0.00     0.008 A 
ATOM      8  C   UNL     1       9.218  -0.209   1.078  1.00  0.00     0.054 A 
ATOM      9  C   UNL     1       9.107   2.150   2.450  1.00  0.00     0.051 A 
ATOM     10  C   UNL     1      10.369   0.269   1.711  1.00  0.00     0.166 A 
ATOM     11  C   UNL     1      10.313   1.458   2.402  1.00  0.00     0.165 A 
ATOM     12  O   UNL     1      11.656  -0.215   1.810  1.00  0.00    -0.454 OA
ATOM     13  O   UNL     1      11.580   1.682   2.919  1.00  0.00    -0.454 OA
ATOM     14  C   UNL     1      12.439   0.601   2.644  1.00  0.00     0.468 C 
ENDBRANCH   5   6
ENDBRANCH   1   5
TORSDOF 3
ENDMDL
