@<TRIPOS>MOLECULE
/home/cewinharhar/GITHUB/reincatalyze/data/processed/docking_pred/2023-May-23-1437_sub9_nm5_bs15_s42_ex16_mel10_mts10000_k50_ec02_g099_lra3e-4_lrc1e-3/09c0e00cbaa22f287e1ef7d21129eabb08ea3244_ligand_9.pdbqt
 14 15 0 0 0
SMALL
GASTEIGER

@<TRIPOS>ATOM
      1  C          6.6340    0.0390    1.8890 C.3     1  UNL1        0.0800
      2  C          5.3590    0.7820    1.6890 C.2     1  UNL1        0.1300
      3  C          5.1880    1.7530    0.5750 C.3     1  UNL1        0.0870
      4  O          4.4110    0.6150    2.4390 O.2     1  UNL1       -0.3000
      5  C          6.5030   -1.4070    1.4520 C.3     1  UNL1        0.0430
      6  C          7.2570   -1.6740    0.2150 C.2     1  UNL1       -0.0440
      7  C          6.8690   -1.1260   -1.0130 C.2     1  UNL1        0.0080
      8  C          8.3730   -2.4780    0.2560 C.2     1  UNL1        0.0540
      9  C          7.6160   -1.4120   -2.1420 C.2     1  UNL1        0.0510
     10  C          9.1260   -2.7630   -0.8870 C.2     1  UNL1        0.1660
     11  C          8.7440   -2.2260   -2.0960 C.2     1  UNL1        0.1650
     12  O         10.2560   -3.5220   -1.1030 O.2     1  UNL1       -0.4540
     13  O          9.6580   -2.6690   -3.0390 O.2     1  UNL1       -0.4540
     14  C         10.6850   -3.4200   -2.4370 C.3     1  UNL1        0.4680
@<TRIPOS>BOND
     1    13    14    1
     2    13    11    1
     3    14    12    1
     4     9    11    2
     5     9     7    1
     6    11    10    1
     7    12    10    1
     8     7     6    2
     9    10     8    2
    10     6     8    1
    11     6     5    1
    12     3     2    1
    13     5     1    1
    14     2     1    1
    15     2     4    2
