@<TRIPOS>MOLECULE
/home/cewinharhar/GITHUB/reincatalyze/data/processed/docking_pred/2023-May-23-1437_sub9_nm5_bs15_s42_ex16_mel10_mts10000_k50_ec02_g099_lra3e-4_lrc1e-3/09c0e00cbaa22f287e1ef7d21129eabb08ea3244_ligand_9.pdbqt
 14 15 0 0 0
SMALL
GASTEIGER

@<TRIPOS>ATOM
      1  C          5.7550    1.1010   -0.3550 C.3     1  UNL1        0.0800
      2  C          5.2450    1.1880    1.0420 C.2     1  UNL1        0.1300
      3  C          5.5100    0.1170    2.0390 C.3     1  UNL1        0.0870
      4  O          4.5890    2.1490    1.4110 O.2     1  UNL1       -0.3000
      5  C          7.2690    1.0400   -0.3850 C.3     1  UNL1        0.0430
      6  C          7.7530   -0.2260   -0.9650 C.2     1  UNL1       -0.0440
      7  C          8.0710   -0.3350   -2.3240 C.2     1  UNL1        0.0080
      8  C          7.9020   -1.3320   -0.1600 C.2     1  UNL1        0.0540
      9  C          8.5210   -1.5480   -2.8120 C.2     1  UNL1        0.0510
     10  C          8.3590   -2.5560   -0.6590 C.2     1  UNL1        0.1660
     11  C          8.6710   -2.6650   -1.9960 C.2     1  UNL1        0.1650
     12  O          8.5880   -3.7830   -0.0730 O.2     1  UNL1       -0.4540
     13  O          9.0900   -3.9690   -2.2050 O.2     1  UNL1       -0.4540
     14  C          9.1390   -4.6880   -0.9950 C.3     1  UNL1        0.4680
@<TRIPOS>BOND
     1     9     7    1
     2     9    11    2
     3     7     6    2
     4    13    11    1
     5    13    14    1
     6    11    10    1
     7    14    12    1
     8     6     5    1
     9     6     8    1
    10    10     8    2
    11    10    12    1
    12     5     1    1
    13     1     2    1
    14     2     4    2
    15     2     3    1
