MODEL 1
REMARK VINA RESULT:      -7.6      0.000      0.000
REMARK SMILES CC(=O)CCc1ccc2c(c1)OCO2
REMARK SMILES IDX 4 1 2 2 1 3 3 4 5 5 6 6 7 7 11 8 8 9 10 10 9 11 12 12 14 13
REMARK SMILES IDX 13 14
REMARK H PARENT
REMARK Flexibility Score: inf
ROOT
ATOM      1  C   UNL     1       5.581   1.871   1.280  1.00  0.00     0.080 C 
ENDROOT
BRANCH   1   2
ATOM      2  C   UNL     1       5.123   0.657   2.013  1.00  0.00     0.130 C 
ATOM      3  C   UNL     1       6.006  -0.525   2.195  1.00  0.00     0.087 C 
ATOM      4  O   UNL     1       4.000   0.599   2.488  1.00  0.00    -0.300 OA
ENDBRANCH   1   2
BRANCH   1   5
ATOM      5  C   UNL     1       5.441   1.694  -0.219  1.00  0.00     0.043 C 
BRANCH   5   6
ATOM      6  C   UNL     1       6.602   0.994  -0.797  1.00  0.00    -0.044 A 
ATOM      7  C   UNL     1       7.911   1.437  -0.574  1.00  0.00     0.008 A 
ATOM      8  C   UNL     1       6.406  -0.125  -1.575  1.00  0.00     0.054 A 
ATOM      9  C   UNL     1       8.961   0.739  -1.142  1.00  0.00     0.051 A 
ATOM     10  C   UNL     1       7.471  -0.827  -2.146  1.00  0.00     0.166 A 
ATOM     11  C   UNL     1       8.759  -0.391  -1.929  1.00  0.00     0.165 A 
ATOM     12  O   UNL     1       7.536  -1.949  -2.946  1.00  0.00    -0.454 OA
ATOM     13  O   UNL     1       9.597  -1.264  -2.605  1.00  0.00    -0.454 OA
ATOM     14  C   UNL     1       8.869  -2.319  -3.188  1.00  0.00     0.468 C 
ENDBRANCH   5   6
ENDBRANCH   1   5
TORSDOF 3
ENDMDL
MODEL 2
REMARK VINA RESULT:      -7.5      1.907      2.357
REMARK SMILES CC(=O)CCc1ccc2c(c1)OCO2
REMARK SMILES IDX 4 1 2 2 1 3 3 4 5 5 6 6 7 7 11 8 8 9 10 10 9 11 12 12 14 13
REMARK SMILES IDX 13 14
REMARK H PARENT
REMARK Flexibility Score: inf
ROOT
ATOM      1  C   UNL     1       5.697   1.261  -0.305  1.00  0.00     0.080 C 
ENDROOT
BRANCH   1   2
ATOM      2  C   UNL     1       5.163   1.227   1.085  1.00  0.00     0.130 C 
ATOM      3  C   UNL     1       5.419   0.077   1.993  1.00  0.00     0.087 C 
ATOM      4  O   UNL     1       4.493   2.150   1.521  1.00  0.00    -0.300 OA
ENDBRANCH   1   2
BRANCH   1   5
ATOM      5  C   UNL     1       7.204   1.099  -0.319  1.00  0.00     0.043 C 
BRANCH   5   6
ATOM      6  C   UNL     1       7.610  -0.189  -0.908  1.00  0.00    -0.044 A 
ATOM      7  C   UNL     1       7.737  -0.355  -2.292  1.00  0.00     0.008 A 
ATOM      8  C   UNL     1       7.875  -1.262  -0.087  1.00  0.00     0.054 A 
ATOM      9  C   UNL     1       8.122  -1.587  -2.788  1.00  0.00     0.051 A 
ATOM     10  C   UNL     1       8.265  -2.505  -0.594  1.00  0.00     0.166 A 
ATOM     11  C   UNL     1       8.389  -2.669  -1.955  1.00  0.00     0.165 A 
ATOM     12  O   UNL     1       8.580  -3.707   0.005  1.00  0.00    -0.454 OA
ATOM     13  O   UNL     1       8.782  -3.982  -2.167  1.00  0.00    -0.454 OA
ATOM     14  C   UNL     1       9.003  -4.649  -0.947  1.00  0.00     0.468 C 
ENDBRANCH   5   6
ENDBRANCH   1   5
TORSDOF 3
ENDMDL
MODEL 3
REMARK VINA RESULT:      -7.2      2.063      2.594
REMARK SMILES CC(=O)CCc1ccc2c(c1)OCO2
REMARK SMILES IDX 4 1 2 2 1 3 3 4 5 5 6 6 7 7 11 8 8 9 10 10 9 11 12 12 14 13
REMARK SMILES IDX 13 14
REMARK H PARENT
REMARK Flexibility Score: inf
ROOT
ATOM      1  C   UNL     1       5.547   0.018   1.966  1.00  0.00     0.080 C 
ENDROOT
BRANCH   1   2
ATOM      2  C   UNL     1       4.652   1.165   1.649  1.00  0.00     0.130 C 
ATOM      3  C   UNL     1       4.948   2.101   0.532  1.00  0.00     0.087 C 
ATOM      4  O   UNL     1       3.642   1.371   2.303  1.00  0.00    -0.300 OA
ENDBRANCH   1   2
BRANCH   1   5
ATOM      5  C   UNL     1       6.962   0.275   1.485  1.00  0.00     0.043 C 
BRANCH   5   6
ATOM      6  C   UNL     1       7.367  -0.685   0.442  1.00  0.00    -0.044 A 
ATOM      7  C   UNL     1       7.258  -0.377  -0.919  1.00  0.00     0.008 A 
ATOM      8  C   UNL     1       7.868  -1.915   0.804  1.00  0.00     0.054 A 
ATOM      9  C   UNL     1       7.655  -1.317  -1.853  1.00  0.00     0.051 A 
ATOM     10  C   UNL     1       8.268  -2.861  -0.145  1.00  0.00     0.166 A 
ATOM     11  C   UNL     1       8.160  -2.559  -1.484  1.00  0.00     0.165 A 
ATOM     12  O   UNL     1       8.788  -4.133  -0.041  1.00  0.00    -0.454 OA
ATOM     13  O   UNL     1       8.623  -3.664  -2.182  1.00  0.00    -0.454 OA
ATOM     14  C   UNL     1       9.115  -4.649  -1.305  1.00  0.00     0.468 C 
ENDBRANCH   5   6
ENDBRANCH   1   5
TORSDOF 3
ENDMDL
MODEL 4
REMARK VINA RESULT:      -7.1      1.228      1.413
REMARK SMILES CC(=O)CCc1ccc2c(c1)OCO2
REMARK SMILES IDX 4 1 2 2 1 3 3 4 5 5 6 6 7 7 11 8 8 9 10 10 9 11 12 12 14 13
REMARK SMILES IDX 13 14
REMARK H PARENT
REMARK Flexibility Score: inf
ROOT
ATOM      1  C   UNL     1       6.349   1.246   0.867  1.00  0.00     0.080 C 
ENDROOT
BRANCH   1   2
ATOM      2  C   UNL     1       5.661   0.434   1.909  1.00  0.00     0.130 C 
ATOM      3  C   UNL     1       6.279  -0.794   2.476  1.00  0.00     0.087 C 
ATOM      4  O   UNL     1       4.562   0.757   2.330  1.00  0.00    -0.300 OA
ENDBRANCH   1   2
BRANCH   1   5
ATOM      5  C   UNL     1       5.836   0.911  -0.520  1.00  0.00     0.043 C 
BRANCH   5   6
ATOM      6  C   UNL     1       6.803   0.097  -1.278  1.00  0.00    -0.044 A 
ATOM      7  C   UNL     1       7.520   0.628  -2.357  1.00  0.00     0.008 A 
ATOM      8  C   UNL     1       7.016  -1.215  -0.924  1.00  0.00     0.054 A 
ATOM      9  C   UNL     1       8.415  -0.183  -3.031  1.00  0.00     0.051 A 
ATOM     10  C   UNL     1       7.923  -2.031  -1.608  1.00  0.00     0.166 A 
ATOM     11  C   UNL     1       8.627  -1.510  -2.671  1.00  0.00     0.165 A 
ATOM     12  O   UNL     1       8.306  -3.346  -1.453  1.00  0.00    -0.454 OA
ATOM     13  O   UNL     1       9.438  -2.527  -3.151  1.00  0.00    -0.454 OA
ATOM     14  C   UNL     1       9.333  -3.681  -2.351  1.00  0.00     0.468 C 
ENDBRANCH   5   6
ENDBRANCH   1   5
TORSDOF 3
ENDMDL
MODEL 5
REMARK VINA RESULT:      -6.8      1.961      2.722
REMARK SMILES CC(=O)CCc1ccc2c(c1)OCO2
REMARK SMILES IDX 4 1 2 2 1 3 3 4 5 5 6 6 7 7 11 8 8 9 10 10 9 11 12 12 14 13
REMARK SMILES IDX 13 14
REMARK H PARENT
REMARK Flexibility Score: inf
ROOT
ATOM      1  C   UNL     1       6.746   0.827   0.697  1.00  0.00     0.080 C 
ENDROOT
BRANCH   1   2
ATOM      2  C   UNL     1       5.436   1.536   0.676  1.00  0.00     0.130 C 
ATOM      3  C   UNL     1       4.901   2.150  -0.569  1.00  0.00     0.087 C 
ATOM      4  O   UNL     1       4.760   1.635   1.687  1.00  0.00    -0.300 OA
ENDBRANCH   1   2
BRANCH   1   5
ATOM      5  C   UNL     1       7.452   0.934  -0.640  1.00  0.00     0.043 C 
BRANCH   5   6
ATOM      6  C   UNL     1       7.856  -0.387  -1.152  1.00  0.00    -0.044 A 
ATOM      7  C   UNL     1       8.111  -0.599  -2.512  1.00  0.00     0.008 A 
ATOM      8  C   UNL     1       7.993  -1.444  -0.281  1.00  0.00     0.054 A 
ATOM      9  C   UNL     1       8.488  -1.861  -2.935  1.00  0.00     0.051 A 
ATOM     10  C   UNL     1       8.375  -2.717  -0.713  1.00  0.00     0.166 A 
ATOM     11  C   UNL     1       8.624  -2.928  -2.051  1.00  0.00     0.165 A 
ATOM     12  O   UNL     1       8.576  -3.912  -0.055  1.00  0.00    -0.454 OA
ATOM     13  O   UNL     1       8.978  -4.261  -2.188  1.00  0.00    -0.454 OA
ATOM     14  C   UNL     1       9.048  -4.899  -0.936  1.00  0.00     0.468 C 
ENDBRANCH   5   6
ENDBRANCH   1   5
TORSDOF 3
ENDMDL
