@<TRIPOS>MOLECULE
/home/cewinharhar/GITHUB/reincatalyze/data/processed/docking_pred/2023-May-23-1437_sub9_nm5_bs15_s42_ex16_mel10_mts10000_k50_ec02_g099_lra3e-4_lrc1e-3/0df60b8790b800bbceb9ee276e91b409308b6f54_ligand_9.pdbqt
 14 15 0 0 0
SMALL
GASTEIGER

@<TRIPOS>ATOM
      1  C          5.4980    1.9360    1.2550 C.3     1  UNL1        0.0800
      2  C          5.0460    0.7240    1.9920 C.2     1  UNL1        0.1300
      3  C          5.9150   -0.4750    2.1310 C.3     1  UNL1        0.0870
      4  O          3.9400    0.6800    2.5070 O.2     1  UNL1       -0.3000
      5  C          5.3810    1.7450   -0.2440 C.3     1  UNL1        0.0430
      6  C          6.5520    1.0430   -0.7980 C.2     1  UNL1       -0.0440
      7  C          7.8580    1.4740   -0.5360 C.2     1  UNL1        0.0080
      8  C          6.3700   -0.0660   -1.5930 C.2     1  UNL1        0.0540
      9  C          8.9180    0.7760   -1.0820 C.2     1  UNL1        0.0510
     10  C          7.4460   -0.7700   -2.1430 C.2     1  UNL1        0.1660
     11  C          8.7310   -0.3450   -1.8860 C.2     1  UNL1        0.1650
     12  O          7.5260   -1.8840   -2.9510 O.2     1  UNL1       -0.4540
     13  O          9.5810   -1.2160   -2.5480 O.2     1  UNL1       -0.4540
     14  C          8.8630   -2.2600   -3.1610 C.3     1  UNL1        0.4680
@<TRIPOS>BOND
     1    14    12    1
     2    14    13    1
     3    12    10    1
     4    13    11    1
     5    10    11    2
     6    10     8    1
     7    11     9    1
     8     8     6    2
     9     9     7    2
    10     6     7    1
    11     6     5    1
    12     5     1    1
    13     1     2    1
    14     2     3    1
    15     2     4    2
