MODEL 1
REMARK VINA RESULT:      -7.7      0.000      0.000
REMARK SMILES CC(=O)CCc1ccc2c(c1)OCO2
REMARK SMILES IDX 4 1 2 2 1 3 3 4 5 5 6 6 7 7 11 8 8 9 10 10 9 11 12 12 14 13
REMARK SMILES IDX 13 14
REMARK H PARENT
REMARK Flexibility Score: inf
ROOT
ATOM      1  C   UNL     1       5.498   1.936   1.255  1.00  0.00     0.080 C 
ENDROOT
BRANCH   1   2
ATOM      2  C   UNL     1       5.046   0.724   1.992  1.00  0.00     0.130 C 
ATOM      3  C   UNL     1       5.915  -0.475   2.131  1.00  0.00     0.087 C 
ATOM      4  O   UNL     1       3.940   0.680   2.507  1.00  0.00    -0.300 OA
ENDBRANCH   1   2
BRANCH   1   5
ATOM      5  C   UNL     1       5.381   1.745  -0.244  1.00  0.00     0.043 C 
BRANCH   5   6
ATOM      6  C   UNL     1       6.552   1.043  -0.798  1.00  0.00    -0.044 A 
ATOM      7  C   UNL     1       7.858   1.474  -0.536  1.00  0.00     0.008 A 
ATOM      8  C   UNL     1       6.370  -0.066  -1.593  1.00  0.00     0.054 A 
ATOM      9  C   UNL     1       8.918   0.776  -1.082  1.00  0.00     0.051 A 
ATOM     10  C   UNL     1       7.446  -0.770  -2.143  1.00  0.00     0.166 A 
ATOM     11  C   UNL     1       8.731  -0.345  -1.886  1.00  0.00     0.165 A 
ATOM     12  O   UNL     1       7.526  -1.884  -2.951  1.00  0.00    -0.454 OA
ATOM     13  O   UNL     1       9.581  -1.216  -2.548  1.00  0.00    -0.454 OA
ATOM     14  C   UNL     1       8.863  -2.260  -3.161  1.00  0.00     0.468 C 
ENDBRANCH   5   6
ENDBRANCH   1   5
TORSDOF 3
ENDMDL
MODEL 2
REMARK VINA RESULT:      -7.5      1.926      2.373
REMARK SMILES CC(=O)CCc1ccc2c(c1)OCO2
REMARK SMILES IDX 4 1 2 2 1 3 3 4 5 5 6 6 7 7 11 8 8 9 10 10 9 11 12 12 14 13
REMARK SMILES IDX 13 14
REMARK H PARENT
REMARK Flexibility Score: inf
ROOT
ATOM      1  C   UNL     1       5.748   1.379  -0.281  1.00  0.00     0.080 C 
ENDROOT
BRANCH   1   2
ATOM      2  C   UNL     1       5.123   1.267   1.067  1.00  0.00     0.130 C 
ATOM      3  C   UNL     1       5.355   0.085   1.940  1.00  0.00     0.087 C 
ATOM      4  O   UNL     1       4.397   2.149   1.496  1.00  0.00    -0.300 OA
ENDBRANCH   1   2
BRANCH   1   5
ATOM      5  C   UNL     1       7.243   1.136  -0.216  1.00  0.00     0.043 C 
BRANCH   5   6
ATOM      6  C   UNL     1       7.614  -0.151  -0.830  1.00  0.00    -0.044 A 
ATOM      7  C   UNL     1       7.694  -0.305  -2.219  1.00  0.00     0.008 A 
ATOM      8  C   UNL     1       7.894  -1.234  -0.028  1.00  0.00     0.054 A 
ATOM      9  C   UNL     1       8.049  -1.537  -2.738  1.00  0.00     0.051 A 
ATOM     10  C   UNL     1       8.252  -2.477  -0.557  1.00  0.00     0.166 A 
ATOM     11  C   UNL     1       8.330  -2.630  -1.924  1.00  0.00     0.165 A 
ATOM     12  O   UNL     1       8.572  -3.688   0.020  1.00  0.00    -0.454 OA
ATOM     13  O   UNL     1       8.701  -3.944  -2.160  1.00  0.00    -0.454 OA
ATOM     14  C   UNL     1       8.953  -4.626  -0.954  1.00  0.00     0.468 C 
ENDBRANCH   5   6
ENDBRANCH   1   5
TORSDOF 3
ENDMDL
MODEL 3
REMARK VINA RESULT:      -7.2      2.081      2.676
REMARK SMILES CC(=O)CCc1ccc2c(c1)OCO2
REMARK SMILES IDX 4 1 2 2 1 3 3 4 5 5 6 6 7 7 11 8 8 9 10 10 9 11 12 12 14 13
REMARK SMILES IDX 13 14
REMARK H PARENT
REMARK Flexibility Score: inf
ROOT
ATOM      1  C   UNL     1       5.358  -0.122   2.006  1.00  0.00     0.080 C 
ENDROOT
BRANCH   1   2
ATOM      2  C   UNL     1       4.548   1.106   1.774  1.00  0.00     0.130 C 
ATOM      3  C   UNL     1       4.901   2.084   0.710  1.00  0.00     0.087 C 
ATOM      4  O   UNL     1       3.564   1.346   2.455  1.00  0.00    -0.300 OA
ENDBRANCH   1   2
BRANCH   1   5
ATOM      5  C   UNL     1       6.813   0.101   1.643  1.00  0.00     0.043 C 
BRANCH   5   6
ATOM      6  C   UNL     1       7.255  -0.811   0.573  1.00  0.00    -0.044 A 
ATOM      7  C   UNL     1       7.120  -0.475  -0.779  1.00  0.00     0.008 A 
ATOM      8  C   UNL     1       7.819  -2.023   0.900  1.00  0.00     0.054 A 
ATOM      9  C   UNL     1       7.554  -1.371  -1.739  1.00  0.00     0.051 A 
ATOM     10  C   UNL     1       8.256  -2.925  -0.075  1.00  0.00     0.166 A 
ATOM     11  C   UNL     1       8.122  -2.596  -1.405  1.00  0.00     0.165 A 
ATOM     12  O   UNL     1       8.839  -4.173  -0.007  1.00  0.00    -0.454 OA
ATOM     13  O   UNL     1       8.632  -3.659  -2.134  1.00  0.00    -0.454 OA
ATOM     14  C   UNL     1       9.180  -4.641  -1.286  1.00  0.00     0.468 C 
ENDBRANCH   5   6
ENDBRANCH   1   5
TORSDOF 3
ENDMDL
MODEL 4
REMARK VINA RESULT:      -7.1      1.964      2.498
REMARK SMILES CC(=O)CCc1ccc2c(c1)OCO2
REMARK SMILES IDX 4 1 2 2 1 3 3 4 5 5 6 6 7 7 11 8 8 9 10 10 9 11 12 12 14 13
REMARK SMILES IDX 13 14
REMARK H PARENT
REMARK Flexibility Score: inf
ROOT
ATOM      1  C   UNL     1       6.793   0.838   1.431  1.00  0.00     0.080 C 
ENDROOT
BRANCH   1   2
ATOM      2  C   UNL     1       5.343   1.169   1.497  1.00  0.00     0.130 C 
ATOM      3  C   UNL     1       4.717   2.129   0.549  1.00  0.00     0.087 C 
ATOM      4  O   UNL     1       4.621   0.659   2.339  1.00  0.00    -0.300 OA
ENDBRANCH   1   2
BRANCH   1   5
ATOM      5  C   UNL     1       7.349   1.073   0.041  1.00  0.00     0.043 C 
BRANCH   5   6
ATOM      6  C   UNL     1       7.668  -0.194  -0.642  1.00  0.00    -0.044 A 
ATOM      7  C   UNL     1       7.654  -0.299  -2.037  1.00  0.00     0.008 A 
ATOM      8  C   UNL     1       7.993  -1.306   0.102  1.00  0.00     0.054 A 
ATOM      9  C   UNL     1       7.963  -1.514  -2.622  1.00  0.00     0.051 A 
ATOM     10  C   UNL     1       8.305  -2.532  -0.495  1.00  0.00     0.166 A 
ATOM     11  C   UNL     1       8.290  -2.636  -1.868  1.00  0.00     0.165 A 
ATOM     12  O   UNL     1       8.654  -3.764   0.017  1.00  0.00    -0.454 OA
ATOM     13  O   UNL     1       8.634  -3.943  -2.174  1.00  0.00    -0.454 OA
ATOM     14  C   UNL     1       8.961  -4.668  -1.013  1.00  0.00     0.468 C 
ENDBRANCH   5   6
ENDBRANCH   1   5
TORSDOF 3
ENDMDL
MODEL 5
REMARK VINA RESULT:      -7.1      1.270      1.500
REMARK SMILES CC(=O)CCc1ccc2c(c1)OCO2
REMARK SMILES IDX 4 1 2 2 1 3 3 4 5 5 6 6 7 7 11 8 8 9 10 10 9 11 12 12 14 13
REMARK SMILES IDX 13 14
REMARK H PARENT
REMARK Flexibility Score: inf
ROOT
ATOM      1  C   UNL     1       6.381   1.183   0.919  1.00  0.00     0.080 C 
ENDROOT
BRANCH   1   2
ATOM      2  C   UNL     1       5.668   0.362   1.937  1.00  0.00     0.130 C 
ATOM      3  C   UNL     1       6.273  -0.871   2.509  1.00  0.00     0.087 C 
ATOM      4  O   UNL     1       4.558   0.679   2.333  1.00  0.00    -0.300 OA
ENDBRANCH   1   2
BRANCH   1   5
ATOM      5  C   UNL     1       5.868   0.894  -0.478  1.00  0.00     0.043 C 
BRANCH   5   6
ATOM      6  C   UNL     1       6.818   0.074  -1.250  1.00  0.00    -0.044 A 
ATOM      7  C   UNL     1       7.501   0.589  -2.357  1.00  0.00     0.008 A 
ATOM      8  C   UNL     1       7.049  -1.232  -0.879  1.00  0.00     0.054 A 
ATOM      9  C   UNL     1       8.381  -0.228  -3.043  1.00  0.00     0.051 A 
ATOM     10  C   UNL     1       7.941  -2.054  -1.575  1.00  0.00     0.166 A 
ATOM     11  C   UNL     1       8.612  -1.548  -2.666  1.00  0.00     0.165 A 
ATOM     12  O   UNL     1       8.337  -3.364  -1.409  1.00  0.00    -0.454 OA
ATOM     13  O   UNL     1       9.415  -2.568  -3.152  1.00  0.00    -0.454 OA
ATOM     14  C   UNL     1       9.340  -3.709  -2.330  1.00  0.00     0.468 C 
ENDBRANCH   5   6
ENDBRANCH   1   5
TORSDOF 3
ENDMDL
