@<TRIPOS>MOLECULE
/home/cewinharhar/GITHUB/reincatalyze/data/processed/docking_pred/2023-May-23-1437_sub9_nm5_bs15_s42_ex16_mel10_mts10000_k50_ec02_g099_lra3e-4_lrc1e-3/0f3266fadafcf1f0427c019efa4a75acf26c4d64_ligand_9.pdbqt
 14 15 0 0 0
SMALL
GASTEIGER

@<TRIPOS>ATOM
      1  C          5.2790   -0.1660    2.3040 C.3     1  UNL1        0.0800
      2  C          4.3660    0.9650    1.9800 C.2     1  UNL1        0.1300
      3  C          4.6440    1.8940    0.8520 C.3     1  UNL1        0.0870
      4  O          3.3570    1.1640    2.6360 O.2     1  UNL1       -0.3000
      5  C          6.7170    0.1730    1.9680 C.3     1  UNL1        0.0430
      6  C          7.2640   -0.7250    0.9350 C.2     1  UNL1       -0.0440
      7  C          7.5710   -2.0620    1.2140 C.2     1  UNL1        0.0080
      8  C          7.4790   -0.2490   -0.3390 C.2     1  UNL1        0.0540
      9  C          8.0800   -2.8580    0.2040 C.2     1  UNL1        0.0510
     10  C          7.9940   -1.0580   -1.3560 C.2     1  UNL1        0.1660
     11  C          8.2970   -2.3730   -1.0820 C.2     1  UNL1        0.1650
     12  O          8.2940   -0.8250   -2.6810 O.2     1  UNL1       -0.4540
     13  O          8.7810   -2.9260   -2.2570 O.2     1  UNL1       -0.4540
     14  C          8.7110   -2.0040   -3.3190 C.3     1  UNL1        0.4680
@<TRIPOS>BOND
     1    14    12    1
     2    14    13    1
     3    12    10    1
     4    13    11    1
     5    10    11    2
     6    10     8    1
     7    11     9    1
     8     8     6    2
     9     9     7    2
    10     3     2    1
    11     6     7    1
    12     6     5    1
    13     5     1    1
    14     2     1    1
    15     2     4    2
