MODEL 1
REMARK VINA RESULT:      -6.6      0.000      0.000
REMARK SMILES CC(=O)CCc1ccc2c(c1)OCO2
REMARK SMILES IDX 4 1 2 2 1 3 3 4 5 5 6 6 7 7 11 8 8 9 10 10 9 11 12 12 14 13
REMARK SMILES IDX 13 14
REMARK H PARENT
REMARK Flexibility Score: inf
ROOT
ATOM      1  C   UNL     1       5.409  -0.367   2.112  1.00  0.00     0.080 C 
ENDROOT
BRANCH   1   2
ATOM      2  C   UNL     1       4.500   0.803   1.956  1.00  0.00     0.130 C 
ATOM      3  C   UNL     1       4.715   1.823   0.895  1.00  0.00     0.087 C 
ATOM      4  O   UNL     1       3.546   0.959   2.701  1.00  0.00    -0.300 OA
ENDBRANCH   1   2
BRANCH   1   5
ATOM      5  C   UNL     1       6.816  -0.036   1.656  1.00  0.00     0.043 C 
BRANCH   5   6
ATOM      6  C   UNL     1       7.261  -0.925   0.567  1.00  0.00    -0.044 A 
ATOM      7  C   UNL     1       7.110  -0.569  -0.778  1.00  0.00     0.008 A 
ATOM      8  C   UNL     1       7.842  -2.135   0.870  1.00  0.00     0.054 A 
ATOM      9  C   UNL     1       7.547  -1.443  -1.756  1.00  0.00     0.051 A 
ATOM     10  C   UNL     1       8.283  -3.015  -0.123  1.00  0.00     0.166 A 
ATOM     11  C   UNL     1       8.134  -2.667  -1.447  1.00  0.00     0.165 A 
ATOM     12  O   UNL     1       8.882  -4.257  -0.080  1.00  0.00    -0.454 OA
ATOM     13  O   UNL     1       8.651  -3.711  -2.197  1.00  0.00    -0.454 OA
ATOM     14  C   UNL     1       9.218  -4.699  -1.370  1.00  0.00     0.468 C 
ENDBRANCH   5   6
ENDBRANCH   1   5
TORSDOF 3
ENDMDL
MODEL 2
REMARK VINA RESULT:      -5.9      1.056      1.978
REMARK SMILES CC(=O)CCc1ccc2c(c1)OCO2
REMARK SMILES IDX 4 1 2 2 1 3 3 4 5 5 6 6 7 7 11 8 8 9 10 10 9 11 12 12 14 13
REMARK SMILES IDX 13 14
REMARK H PARENT
REMARK Flexibility Score: inf
ROOT
ATOM      1  C   UNL     1       5.279  -0.166   2.304  1.00  0.00     0.080 C 
ENDROOT
BRANCH   1   2
ATOM      2  C   UNL     1       4.366   0.965   1.980  1.00  0.00     0.130 C 
ATOM      3  C   UNL     1       4.644   1.894   0.852  1.00  0.00     0.087 C 
ATOM      4  O   UNL     1       3.357   1.164   2.636  1.00  0.00    -0.300 OA
ENDBRANCH   1   2
BRANCH   1   5
ATOM      5  C   UNL     1       6.717   0.173   1.968  1.00  0.00     0.043 C 
BRANCH   5   6
ATOM      6  C   UNL     1       7.264  -0.725   0.935  1.00  0.00    -0.044 A 
ATOM      7  C   UNL     1       7.571  -2.062   1.214  1.00  0.00     0.008 A 
ATOM      8  C   UNL     1       7.479  -0.249  -0.339  1.00  0.00     0.054 A 
ATOM      9  C   UNL     1       8.080  -2.858   0.204  1.00  0.00     0.051 A 
ATOM     10  C   UNL     1       7.994  -1.058  -1.356  1.00  0.00     0.166 A 
ATOM     11  C   UNL     1       8.297  -2.373  -1.082  1.00  0.00     0.165 A 
ATOM     12  O   UNL     1       8.294  -0.825  -2.681  1.00  0.00    -0.454 OA
ATOM     13  O   UNL     1       8.781  -2.926  -2.257  1.00  0.00    -0.454 OA
ATOM     14  C   UNL     1       8.711  -2.004  -3.319  1.00  0.00     0.468 C 
ENDBRANCH   5   6
ENDBRANCH   1   5
TORSDOF 3
ENDMDL
MODEL 3
REMARK VINA RESULT:      -5.8      1.875      5.443
REMARK SMILES CC(=O)CCc1ccc2c(c1)OCO2
REMARK SMILES IDX 4 1 2 2 1 3 3 4 5 5 6 6 7 7 11 8 8 9 10 10 9 11 12 12 14 13
REMARK SMILES IDX 13 14
REMARK H PARENT
REMARK Flexibility Score: inf
ROOT
ATOM      1  C   UNL     1       8.104  -1.772  -2.275  1.00  0.00     0.080 C 
ENDROOT
BRANCH   1   2
ATOM      2  C   UNL     1       8.771  -0.444  -2.374  1.00  0.00     0.130 C 
ATOM      3  C   UNL     1       8.200   0.658  -3.195  1.00  0.00     0.087 C 
ATOM      4  O   UNL     1       9.813  -0.220  -1.779  1.00  0.00    -0.300 OA
ENDBRANCH   1   2
BRANCH   1   5
ATOM      5  C   UNL     1       8.233  -2.350  -0.880  1.00  0.00     0.043 C 
BRANCH   5   6
ATOM      6  C   UNL     1       7.361  -1.654   0.083  1.00  0.00    -0.044 A 
ATOM      7  C   UNL     1       7.242  -2.085   1.409  1.00  0.00     0.008 A 
ATOM      8  C   UNL     1       6.644  -0.551  -0.321  1.00  0.00     0.054 A 
ATOM      9  C   UNL     1       6.409  -1.391   2.268  1.00  0.00     0.051 A 
ATOM     10  C   UNL     1       5.803   0.148   0.552  1.00  0.00     0.166 A 
ATOM     11  C   UNL     1       5.684  -0.277   1.856  1.00  0.00     0.165 A 
ATOM     12  O   UNL     1       4.997   1.255   0.394  1.00  0.00    -0.454 OA
ATOM     13  O   UNL     1       4.800   0.589   2.480  1.00  0.00    -0.454 OA
ATOM     14  C   UNL     1       4.410   1.628   1.615  1.00  0.00     0.468 C 
ENDBRANCH   5   6
ENDBRANCH   1   5
TORSDOF 3
ENDMDL
MODEL 4
REMARK VINA RESULT:      -5.8      1.347      6.127
REMARK SMILES CC(=O)CCc1ccc2c(c1)OCO2
REMARK SMILES IDX 4 1 2 2 1 3 3 4 5 5 6 6 7 7 11 8 8 9 10 10 9 11 12 12 14 13
REMARK SMILES IDX 13 14
REMARK H PARENT
REMARK Flexibility Score: inf
ROOT
ATOM      1  C   UNL     1       8.700  -3.981  -0.444  1.00  0.00     0.080 C 
ENDROOT
BRANCH   1   2
ATOM      2  C   UNL     1       9.289  -4.855  -1.497  1.00  0.00     0.130 C 
ATOM      3  C   UNL     1       8.944  -6.298  -1.596  1.00  0.00     0.087 C 
ATOM      4  O   UNL     1      10.078  -4.408  -2.314  1.00  0.00    -0.300 OA
ENDBRANCH   1   2
BRANCH   1   5
ATOM      5  C   UNL     1       8.309  -2.629  -1.007  1.00  0.00     0.043 C 
BRANCH   5   6
ATOM      6  C   UNL     1       7.483  -1.860  -0.059  1.00  0.00    -0.044 A 
ATOM      7  C   UNL     1       7.428  -2.191   1.300  1.00  0.00     0.008 A 
ATOM      8  C   UNL     1       6.746  -0.789  -0.509  1.00  0.00     0.054 A 
ATOM      9  C   UNL     1       6.636  -1.433   2.143  1.00  0.00     0.051 A 
ATOM     10  C   UNL     1       5.947  -0.025   0.348  1.00  0.00     0.166 A 
ATOM     11  C   UNL     1       5.891  -0.350   1.685  1.00  0.00     0.165 A 
ATOM     12  O   UNL     1       5.133   1.069   0.147  1.00  0.00    -0.454 OA
ATOM     13  O   UNL     1       5.036   0.561   2.284  1.00  0.00    -0.454 OA
ATOM     14  C   UNL     1       4.604   1.534   1.362  1.00  0.00     0.468 C 
ENDBRANCH   5   6
ENDBRANCH   1   5
TORSDOF 3
ENDMDL
MODEL 5
REMARK VINA RESULT:      -5.7      1.373      2.291
REMARK SMILES CC(=O)CCc1ccc2c(c1)OCO2
REMARK SMILES IDX 4 1 2 2 1 3 3 4 5 5 6 6 7 7 11 8 8 9 10 10 9 11 12 12 14 13
REMARK SMILES IDX 13 14
REMARK H PARENT
REMARK Flexibility Score: inf
ROOT
ATOM      1  C   UNL     1       5.973   0.688   2.046  1.00  0.00     0.080 C 
ENDROOT
BRANCH   1   2
ATOM      2  C   UNL     1       4.677   1.315   1.664  1.00  0.00     0.130 C 
ATOM      3  C   UNL     1       3.404   0.953   2.343  1.00  0.00     0.087 C 
ATOM      4  O   UNL     1       4.623   2.149   0.775  1.00  0.00    -0.300 OA
ENDBRANCH   1   2
BRANCH   1   5
ATOM      5  C   UNL     1       5.891  -0.825   1.986  1.00  0.00     0.043 C 
BRANCH   5   6
ATOM      6  C   UNL     1       6.719  -1.374   0.898  1.00  0.00    -0.044 A 
ATOM      7  C   UNL     1       7.563  -2.472   1.101  1.00  0.00     0.008 A 
ATOM      8  C   UNL     1       6.666  -0.804  -0.354  1.00  0.00     0.054 A 
ATOM      9  C   UNL     1       8.315  -2.945   0.041  1.00  0.00     0.051 A 
ATOM     10  C   UNL     1       7.429  -1.286  -1.422  1.00  0.00     0.166 A 
ATOM     11  C   UNL     1       8.260  -2.366  -1.223  1.00  0.00     0.165 A 
ATOM     12  O   UNL     1       7.552  -0.898  -2.739  1.00  0.00    -0.454 OA
ATOM     13  O   UNL     1       8.882  -2.622  -2.434  1.00  0.00    -0.454 OA
ATOM     14  C   UNL     1       8.394  -1.772  -3.446  1.00  0.00     0.468 C 
ENDBRANCH   5   6
ENDBRANCH   1   5
TORSDOF 3
ENDMDL
