@<TRIPOS>MOLECULE
/home/cewinharhar/GITHUB/reincatalyze/data/processed/docking_pred/2023-May-23-1437_sub9_nm5_bs15_s42_ex16_mel10_mts10000_k50_ec02_g099_lra3e-4_lrc1e-3/104e94148118840ff9051874ebdd157f969f5898_ligand_9.pdbqt
 14 15 0 0 0
SMALL
GASTEIGER

@<TRIPOS>ATOM
      1  C          5.6870    1.3030   -0.3090 C.3     1  UNL1        0.0800
      2  C          5.1030    1.2570    1.0600 C.2     1  UNL1        0.1300
      3  C          5.3820    0.1310    1.9910 C.3     1  UNL1        0.0870
      4  O          4.3730    2.1500    1.4600 O.2     1  UNL1       -0.3000
      5  C          7.1880    1.0930   -0.2750 C.3     1  UNL1        0.0430
      6  C          7.5730   -0.1970   -0.8740 C.2     1  UNL1       -0.0440
      7  C          7.6530   -0.3670   -2.2610 C.2     1  UNL1        0.0080
      8  C          7.8660   -1.2670   -0.0590 C.2     1  UNL1        0.0540
      9  C          8.0210   -1.6010   -2.7660 C.2     1  UNL1        0.0510
     10  C          8.2380   -2.5120   -0.5740 C.2     1  UNL1        0.1660
     11  C          8.3160   -2.6810   -1.9390 C.2     1  UNL1        0.1650
     12  O          8.5730   -3.7120    0.0170 O.2     1  UNL1       -0.4540
     13  O          8.7010   -3.9940   -2.1590 O.2     1  UNL1       -0.4540
     14  C          8.9630   -4.6570   -0.9450 C.3     1  UNL1        0.4680
@<TRIPOS>BOND
     1     9     7    1
     2     9    11    2
     3     7     6    2
     4    13    11    1
     5    13    14    1
     6    11    10    1
     7    14    12    1
     8     6     5    1
     9     6     8    1
    10    10     8    2
    11    10    12    1
    12     1     5    1
    13     1     2    1
    14     2     4    2
    15     2     3    1
