MODEL 1
REMARK VINA RESULT:      -7.7      0.000      0.000
REMARK SMILES CC(=O)CCc1ccc2c(c1)OCO2
REMARK SMILES IDX 4 1 2 2 1 3 3 4 5 5 6 6 7 7 11 8 8 9 10 10 9 11 12 12 14 13
REMARK SMILES IDX 13 14
REMARK H PARENT
REMARK Flexibility Score: inf
ROOT
ATOM      1  C   UNL     1       5.503   1.924   1.256  1.00  0.00     0.080 C 
ENDROOT
BRANCH   1   2
ATOM      2  C   UNL     1       5.069   0.707   1.998  1.00  0.00     0.130 C 
ATOM      3  C   UNL     1       5.965  -0.468   2.163  1.00  0.00     0.087 C 
ATOM      4  O   UNL     1       3.956   0.640   2.495  1.00  0.00    -0.300 OA
ENDBRANCH   1   2
BRANCH   1   5
ATOM      5  C   UNL     1       5.382   1.727  -0.242  1.00  0.00     0.043 C 
BRANCH   5   6
ATOM      6  C   UNL     1       6.552   1.024  -0.797  1.00  0.00    -0.044 A 
ATOM      7  C   UNL     1       7.858   1.452  -0.532  1.00  0.00     0.008 A 
ATOM      8  C   UNL     1       6.368  -0.082  -1.595  1.00  0.00     0.054 A 
ATOM      9  C   UNL     1       8.918   0.753  -1.081  1.00  0.00     0.051 A 
ATOM     10  C   UNL     1       7.443  -0.786  -2.147  1.00  0.00     0.166 A 
ATOM     11  C   UNL     1       8.728  -0.365  -1.887  1.00  0.00     0.165 A 
ATOM     12  O   UNL     1       7.520  -1.898  -2.959  1.00  0.00    -0.454 OA
ATOM     13  O   UNL     1       9.577  -1.236  -2.552  1.00  0.00    -0.454 OA
ATOM     14  C   UNL     1       8.856  -2.276  -3.169  1.00  0.00     0.468 C 
ENDBRANCH   5   6
ENDBRANCH   1   5
TORSDOF 3
ENDMDL
MODEL 2
REMARK VINA RESULT:      -7.5      1.931      2.391
REMARK SMILES CC(=O)CCc1ccc2c(c1)OCO2
REMARK SMILES IDX 4 1 2 2 1 3 3 4 5 5 6 6 7 7 11 8 8 9 10 10 9 11 12 12 14 13
REMARK SMILES IDX 13 14
REMARK H PARENT
REMARK Flexibility Score: inf
ROOT
ATOM      1  C   UNL     1       5.687   1.303  -0.309  1.00  0.00     0.080 C 
ENDROOT
BRANCH   1   2
ATOM      2  C   UNL     1       5.103   1.257   1.060  1.00  0.00     0.130 C 
ATOM      3  C   UNL     1       5.382   0.131   1.991  1.00  0.00     0.087 C 
ATOM      4  O   UNL     1       4.373   2.150   1.460  1.00  0.00    -0.300 OA
ENDBRANCH   1   2
BRANCH   1   5
ATOM      5  C   UNL     1       7.188   1.093  -0.275  1.00  0.00     0.043 C 
BRANCH   5   6
ATOM      6  C   UNL     1       7.573  -0.197  -0.874  1.00  0.00    -0.044 A 
ATOM      7  C   UNL     1       7.653  -0.367  -2.261  1.00  0.00     0.008 A 
ATOM      8  C   UNL     1       7.866  -1.267  -0.059  1.00  0.00     0.054 A 
ATOM      9  C   UNL     1       8.021  -1.601  -2.766  1.00  0.00     0.051 A 
ATOM     10  C   UNL     1       8.238  -2.512  -0.574  1.00  0.00     0.166 A 
ATOM     11  C   UNL     1       8.316  -2.681  -1.939  1.00  0.00     0.165 A 
ATOM     12  O   UNL     1       8.573  -3.712   0.017  1.00  0.00    -0.454 OA
ATOM     13  O   UNL     1       8.701  -3.994  -2.159  1.00  0.00    -0.454 OA
ATOM     14  C   UNL     1       8.963  -4.657  -0.945  1.00  0.00     0.468 C 
ENDBRANCH   5   6
ENDBRANCH   1   5
TORSDOF 3
ENDMDL
MODEL 3
REMARK VINA RESULT:      -7.2      2.090      2.651
REMARK SMILES CC(=O)CCc1ccc2c(c1)OCO2
REMARK SMILES IDX 4 1 2 2 1 3 3 4 5 5 6 6 7 7 11 8 8 9 10 10 9 11 12 12 14 13
REMARK SMILES IDX 13 14
REMARK H PARENT
REMARK Flexibility Score: inf
ROOT
ATOM      1  C   UNL     1       5.478  -0.051   1.942  1.00  0.00     0.080 C 
ENDROOT
BRANCH   1   2
ATOM      2  C   UNL     1       4.645   1.150   1.652  1.00  0.00     0.130 C 
ATOM      3  C   UNL     1       5.027   2.130   0.600  1.00  0.00     0.087 C 
ATOM      4  O   UNL     1       3.619   1.366   2.276  1.00  0.00    -0.300 OA
ENDBRANCH   1   2
BRANCH   1   5
ATOM      5  C   UNL     1       6.921   0.169   1.534  1.00  0.00     0.043 C 
BRANCH   5   6
ATOM      6  C   UNL     1       7.340  -0.771   0.479  1.00  0.00    -0.044 A 
ATOM      7  C   UNL     1       7.216  -0.453  -0.878  1.00  0.00     0.008 A 
ATOM      8  C   UNL     1       7.871  -1.993   0.826  1.00  0.00     0.054 A 
ATOM      9  C   UNL     1       7.626  -1.375  -1.824  1.00  0.00     0.051 A 
ATOM     10  C   UNL     1       8.285  -2.921  -0.134  1.00  0.00     0.166 A 
ATOM     11  C   UNL     1       8.162  -2.610  -1.470  1.00  0.00     0.165 A 
ATOM     12  O   UNL     1       8.834  -4.183  -0.045  1.00  0.00    -0.454 OA
ATOM     13  O   UNL     1       8.644  -3.698  -2.181  1.00  0.00    -0.454 OA
ATOM     14  C   UNL     1       9.164  -4.680  -1.317  1.00  0.00     0.468 C 
ENDBRANCH   5   6
ENDBRANCH   1   5
TORSDOF 3
ENDMDL
MODEL 4
REMARK VINA RESULT:      -7.1      1.264      1.482
REMARK SMILES CC(=O)CCc1ccc2c(c1)OCO2
REMARK SMILES IDX 4 1 2 2 1 3 3 4 5 5 6 6 7 7 11 8 8 9 10 10 9 11 12 12 14 13
REMARK SMILES IDX 13 14
REMARK H PARENT
REMARK Flexibility Score: inf
ROOT
ATOM      1  C   UNL     1       6.412   1.194   0.938  1.00  0.00     0.080 C 
ENDROOT
BRANCH   1   2
ATOM      2  C   UNL     1       5.678   0.357   1.928  1.00  0.00     0.130 C 
ATOM      3  C   UNL     1       6.272  -0.883   2.495  1.00  0.00     0.087 C 
ATOM      4  O   UNL     1       4.559   0.668   2.304  1.00  0.00    -0.300 OA
ENDBRANCH   1   2
BRANCH   1   5
ATOM      5  C   UNL     1       5.907   0.951  -0.470  1.00  0.00     0.043 C 
BRANCH   5   6
ATOM      6  C   UNL     1       6.837   0.113  -1.247  1.00  0.00    -0.044 A 
ATOM      7  C   UNL     1       7.514   0.612  -2.366  1.00  0.00     0.008 A 
ATOM      8  C   UNL     1       7.055  -1.193  -0.871  1.00  0.00     0.054 A 
ATOM      9  C   UNL     1       8.376  -0.221  -3.056  1.00  0.00     0.051 A 
ATOM     10  C   UNL     1       7.928  -2.031  -1.572  1.00  0.00     0.166 A 
ATOM     11  C   UNL     1       8.593  -1.541  -2.673  1.00  0.00     0.165 A 
ATOM     12  O   UNL     1       8.308  -3.345  -1.402  1.00  0.00    -0.454 OA
ATOM     13  O   UNL     1       9.377  -2.575  -3.161  1.00  0.00    -0.454 OA
ATOM     14  C   UNL     1       9.296  -3.709  -2.331  1.00  0.00     0.468 C 
ENDBRANCH   5   6
ENDBRANCH   1   5
TORSDOF 3
ENDMDL
MODEL 5
REMARK VINA RESULT:      -7.0      1.944      2.508
REMARK SMILES CC(=O)CCc1ccc2c(c1)OCO2
REMARK SMILES IDX 4 1 2 2 1 3 3 4 5 5 6 6 7 7 11 8 8 9 10 10 9 11 12 12 14 13
REMARK SMILES IDX 13 14
REMARK H PARENT
REMARK Flexibility Score: inf
ROOT
ATOM      1  C   UNL     1       6.863   0.924   1.308  1.00  0.00     0.080 C 
ENDROOT
BRANCH   1   2
ATOM      2  C   UNL     1       5.403   1.148   1.497  1.00  0.00     0.130 C 
ATOM      3  C   UNL     1       4.656   2.150   0.690  1.00  0.00     0.087 C 
ATOM      4  O   UNL     1       4.773   0.511   2.326  1.00  0.00    -0.300 OA
ENDBRANCH   1   2
BRANCH   1   5
ATOM      5  C   UNL     1       7.262   1.091  -0.145  1.00  0.00     0.043 C 
BRANCH   5   6
ATOM      6  C   UNL     1       7.582  -0.201  -0.777  1.00  0.00    -0.044 A 
ATOM      7  C   UNL     1       7.524  -0.373  -2.165  1.00  0.00     0.008 A 
ATOM      8  C   UNL     1       7.950  -1.271   0.007  1.00  0.00     0.054 A 
ATOM      9  C   UNL     1       7.836  -1.609  -2.701  1.00  0.00     0.051 A 
ATOM     10  C   UNL     1       8.265  -2.518  -0.540  1.00  0.00     0.166 A 
ATOM     11  C   UNL     1       8.207  -2.689  -1.906  1.00  0.00     0.165 A 
ATOM     12  O   UNL     1       8.651  -3.719   0.017  1.00  0.00    -0.454 OA
ATOM     13  O   UNL     1       8.564  -4.004  -2.161  1.00  0.00    -0.454 OA
ATOM     14  C   UNL     1       8.941  -4.667  -0.978  1.00  0.00     0.468 C 
ENDBRANCH   5   6
ENDBRANCH   1   5
TORSDOF 3
ENDMDL
