@<TRIPOS>MOLECULE
/home/cewinharhar/GITHUB/reincatalyze/data/processed/docking_pred/2023-May-23-1437_sub9_nm5_bs15_s42_ex16_mel10_mts10000_k50_ec02_g099_lra3e-4_lrc1e-3/107d9fe849eadfc4c8ef3d04203b28ca0debfaf3_ligand_9.pdbqt
 14 15 0 0 0
SMALL
GASTEIGER

@<TRIPOS>ATOM
      1  C          5.4560   -0.0150    2.0070 C.3     1  UNL1        0.0800
      2  C          4.5810    1.1640    1.7550 C.2     1  UNL1        0.1300
      3  C          4.8890    2.1500    0.6850 C.3     1  UNL1        0.0870
      4  O          3.5790    1.3550    2.4250 O.2     1  UNL1       -0.3000
      5  C          6.8780    0.2480    1.5540 C.3     1  UNL1        0.0430
      6  C          7.2970   -0.6910    0.4980 C.2     1  UNL1       -0.0440
      7  C          7.1780   -0.3700   -0.8590 C.2     1  UNL1        0.0080
      8  C          7.8220   -1.9160    0.8430 C.2     1  UNL1        0.0540
      9  C          7.5890   -1.2900   -1.8060 C.2     1  UNL1        0.0510
     10  C          8.2370   -2.8430   -0.1180 C.2     1  UNL1        0.1660
     11  C          8.1190   -2.5280   -1.4530 C.2     1  UNL1        0.1650
     12  O          8.7820   -4.1070   -0.0310 O.2     1  UNL1       -0.4540
     13  O          8.6000   -3.6150   -2.1660 O.2     1  UNL1       -0.4540
     14  C          9.1140   -4.6010   -1.3030 C.3     1  UNL1        0.4680
@<TRIPOS>BOND
     1    13    11    1
     2    13    14    1
     3     9    11    2
     4     9     7    1
     5    11    10    1
     6    14    12    1
     7     7     6    2
     8    10    12    1
     9    10     8    2
    10     6     8    1
    11     6     5    1
    12     3     2    1
    13     5     1    1
    14     2     1    1
    15     2     4    2
