MODEL 1
REMARK VINA RESULT:      -7.6      0.000      0.000
REMARK SMILES CC(=O)CCc1ccc2c(c1)OCO2
REMARK SMILES IDX 4 1 2 2 1 3 3 4 5 5 6 6 7 7 11 8 8 9 10 10 9 11 12 12 14 13
REMARK SMILES IDX 13 14
REMARK H PARENT
REMARK Flexibility Score: inf
ROOT
ATOM      1  C   UNL     1       5.560   1.896   1.289  1.00  0.00     0.080 C 
ENDROOT
BRANCH   1   2
ATOM      2  C   UNL     1       5.115   0.679   2.022  1.00  0.00     0.130 C 
ATOM      3  C   UNL     1       6.007  -0.499   2.194  1.00  0.00     0.087 C 
ATOM      4  O   UNL     1       3.997   0.613   2.507  1.00  0.00    -0.300 OA
ENDBRANCH   1   2
BRANCH   1   5
ATOM      5  C   UNL     1       5.425   1.716  -0.210  1.00  0.00     0.043 C 
BRANCH   5   6
ATOM      6  C   UNL     1       6.588   1.017  -0.784  1.00  0.00    -0.044 A 
ATOM      7  C   UNL     1       7.896   1.462  -0.557  1.00  0.00     0.008 A 
ATOM      8  C   UNL     1       6.397  -0.104  -1.560  1.00  0.00     0.054 A 
ATOM      9  C   UNL     1       8.949   0.765  -1.121  1.00  0.00     0.051 A 
ATOM     10  C   UNL     1       7.465  -0.805  -2.127  1.00  0.00     0.166 A 
ATOM     11  C   UNL     1       8.752  -0.367  -1.905  1.00  0.00     0.165 A 
ATOM     12  O   UNL     1       7.535  -1.928  -2.923  1.00  0.00    -0.454 OA
ATOM     13  O   UNL     1       9.594  -1.239  -2.577  1.00  0.00    -0.454 OA
ATOM     14  C   UNL     1       8.870  -2.296  -3.160  1.00  0.00     0.468 C 
ENDBRANCH   5   6
ENDBRANCH   1   5
TORSDOF 3
ENDMDL
MODEL 2
REMARK VINA RESULT:      -7.2      1.725      2.133
REMARK SMILES CC(=O)CCc1ccc2c(c1)OCO2
REMARK SMILES IDX 4 1 2 2 1 3 3 4 5 5 6 6 7 7 11 8 8 9 10 10 9 11 12 12 14 13
REMARK SMILES IDX 13 14
REMARK H PARENT
REMARK Flexibility Score: inf
ROOT
ATOM      1  C   UNL     1       5.531   1.548   0.012  1.00  0.00     0.080 C 
ENDROOT
BRANCH   1   2
ATOM      2  C   UNL     1       4.925   1.162   1.316  1.00  0.00     0.130 C 
ATOM      3  C   UNL     1       5.423  -0.004   2.094  1.00  0.00     0.087 C 
ATOM      4  O   UNL     1       3.995   1.797   1.787  1.00  0.00    -0.300 OA
ENDBRANCH   1   2
BRANCH   1   5
ATOM      5  C   UNL     1       7.026   1.298   0.004  1.00  0.00     0.043 C 
BRANCH   5   6
ATOM      6  C   UNL     1       7.369   0.054  -0.708  1.00  0.00    -0.044 A 
ATOM      7  C   UNL     1       7.242  -0.053  -2.098  1.00  0.00     0.008 A 
ATOM      8  C   UNL     1       7.827  -1.033  -0.000  1.00  0.00     0.054 A 
ATOM      9  C   UNL     1       7.579  -1.246  -2.713  1.00  0.00     0.051 A 
ATOM     10  C   UNL     1       8.167  -2.237  -0.626  1.00  0.00     0.166 A 
ATOM     11  C   UNL     1       8.041  -2.343  -1.994  1.00  0.00     0.165 A 
ATOM     12  O   UNL     1       8.638  -3.442  -0.152  1.00  0.00    -0.454 OA
ATOM     13  O   UNL     1       8.443  -3.626  -2.334  1.00  0.00    -0.454 OA
ATOM     14  C   UNL     1       8.915  -4.326  -1.208  1.00  0.00     0.468 C 
ENDBRANCH   5   6
ENDBRANCH   1   5
TORSDOF 3
ENDMDL
MODEL 3
REMARK VINA RESULT:      -7.1      2.037      2.597
REMARK SMILES CC(=O)CCc1ccc2c(c1)OCO2
REMARK SMILES IDX 4 1 2 2 1 3 3 4 5 5 6 6 7 7 11 8 8 9 10 10 9 11 12 12 14 13
REMARK SMILES IDX 13 14
REMARK H PARENT
REMARK Flexibility Score: inf
ROOT
ATOM      1  C   UNL     1       5.456  -0.015   2.007  1.00  0.00     0.080 C 
ENDROOT
BRANCH   1   2
ATOM      2  C   UNL     1       4.581   1.164   1.755  1.00  0.00     0.130 C 
ATOM      3  C   UNL     1       4.889   2.150   0.685  1.00  0.00     0.087 C 
ATOM      4  O   UNL     1       3.579   1.355   2.425  1.00  0.00    -0.300 OA
ENDBRANCH   1   2
BRANCH   1   5
ATOM      5  C   UNL     1       6.878   0.248   1.554  1.00  0.00     0.043 C 
BRANCH   5   6
ATOM      6  C   UNL     1       7.297  -0.691   0.498  1.00  0.00    -0.044 A 
ATOM      7  C   UNL     1       7.178  -0.370  -0.859  1.00  0.00     0.008 A 
ATOM      8  C   UNL     1       7.822  -1.916   0.843  1.00  0.00     0.054 A 
ATOM      9  C   UNL     1       7.589  -1.290  -1.806  1.00  0.00     0.051 A 
ATOM     10  C   UNL     1       8.237  -2.843  -0.118  1.00  0.00     0.166 A 
ATOM     11  C   UNL     1       8.119  -2.528  -1.453  1.00  0.00     0.165 A 
ATOM     12  O   UNL     1       8.782  -4.107  -0.031  1.00  0.00    -0.454 OA
ATOM     13  O   UNL     1       8.600  -3.615  -2.166  1.00  0.00    -0.454 OA
ATOM     14  C   UNL     1       9.114  -4.601  -1.303  1.00  0.00     0.468 C 
ENDBRANCH   5   6
ENDBRANCH   1   5
TORSDOF 3
ENDMDL
MODEL 4
REMARK VINA RESULT:      -7.0      1.229      1.429
REMARK SMILES CC(=O)CCc1ccc2c(c1)OCO2
REMARK SMILES IDX 4 1 2 2 1 3 3 4 5 5 6 6 7 7 11 8 8 9 10 10 9 11 12 12 14 13
REMARK SMILES IDX 13 14
REMARK H PARENT
REMARK Flexibility Score: inf
ROOT
ATOM      1  C   UNL     1       6.354   1.268   0.865  1.00  0.00     0.080 C 
ENDROOT
BRANCH   1   2
ATOM      2  C   UNL     1       5.652   0.445   1.889  1.00  0.00     0.130 C 
ATOM      3  C   UNL     1       6.268  -0.784   2.459  1.00  0.00     0.087 C 
ATOM      4  O   UNL     1       4.543   0.757   2.291  1.00  0.00    -0.300 OA
ENDBRANCH   1   2
BRANCH   1   5
ATOM      5  C   UNL     1       5.857   0.952  -0.531  1.00  0.00     0.043 C 
BRANCH   5   6
ATOM      6  C   UNL     1       6.819   0.122  -1.279  1.00  0.00    -0.044 A 
ATOM      7  C   UNL     1       7.542   0.634  -2.362  1.00  0.00     0.008 A 
ATOM      8  C   UNL     1       7.021  -1.188  -0.909  1.00  0.00     0.054 A 
ATOM      9  C   UNL     1       8.432  -0.191  -3.025  1.00  0.00     0.051 A 
ATOM     10  C   UNL     1       7.922  -2.019  -1.583  1.00  0.00     0.166 A 
ATOM     11  C   UNL     1       8.633  -1.516  -2.650  1.00  0.00     0.165 A 
ATOM     12  O   UNL     1       8.295  -3.335  -1.412  1.00  0.00    -0.454 OA
ATOM     13  O   UNL     1       9.437  -2.544  -3.116  1.00  0.00    -0.454 OA
ATOM     14  C   UNL     1       9.321  -3.688  -2.304  1.00  0.00     0.468 C 
ENDBRANCH   5   6
ENDBRANCH   1   5
TORSDOF 3
ENDMDL
MODEL 5
REMARK VINA RESULT:      -6.7      1.187      5.164
REMARK SMILES CC(=O)CCc1ccc2c(c1)OCO2
REMARK SMILES IDX 4 1 2 2 1 3 3 4 5 5 6 6 7 7 11 8 8 9 10 10 9 11 12 12 14 13
REMARK SMILES IDX 13 14
REMARK H PARENT
REMARK Flexibility Score: inf
ROOT
ATOM      1  C   UNL     1       8.307   0.192  -2.688  1.00  0.00     0.080 C 
ENDROOT
BRANCH   1   2
ATOM      2  C   UNL     1       8.022  -1.268  -2.758  1.00  0.00     0.130 C 
ATOM      3  C   UNL     1       9.096  -2.261  -3.030  1.00  0.00     0.087 C 
ATOM      4  O   UNL     1       6.890  -1.694  -2.594  1.00  0.00    -0.300 OA
ENDBRANCH   1   2
BRANCH   1   5
ATOM      5  C   UNL     1       8.835   0.585  -1.322  1.00  0.00     0.043 C 
BRANCH   5   6
ATOM      6  C   UNL     1       7.809   0.434  -0.276  1.00  0.00    -0.044 A 
ATOM      7  C   UNL     1       7.924  -0.532   0.731  1.00  0.00     0.008 A 
ATOM      8  C   UNL     1       6.707   1.258  -0.277  1.00  0.00     0.054 A 
ATOM      9  C   UNL     1       6.930  -0.627   1.687  1.00  0.00     0.051 A 
ATOM     10  C   UNL     1       5.704   1.159   0.693  1.00  0.00     0.166 A 
ATOM     11  C   UNL     1       5.817   0.208   1.683  1.00  0.00     0.165 A 
ATOM     12  O   UNL     1       4.530   1.850   0.905  1.00  0.00    -0.454 OA
ATOM     13  O   UNL     1       4.698   0.337   2.491  1.00  0.00    -0.454 OA
ATOM     14  C   UNL     1       3.902   1.425   2.087  1.00  0.00     0.468 C 
ENDBRANCH   5   6
ENDBRANCH   1   5
TORSDOF 3
ENDMDL
