@<TRIPOS>MOLECULE
/home/cewinharhar/GITHUB/reincatalyze/data/processed/docking_pred/2023-May-23-1437_sub9_nm5_bs15_s42_ex16_mel10_mts10000_k50_ec02_g099_lra3e-4_lrc1e-3/10ef791c1764d6d7d99274693c0e95c254b80295_ligand_9.pdbqt
 14 15 0 0 0
SMALL
GASTEIGER

@<TRIPOS>ATOM
      1  C          5.5120    1.9480    1.2600 C.3     1  UNL1        0.0800
      2  C          5.0780    0.7320    2.0030 C.2     1  UNL1        0.1300
      3  C          5.9850   -0.4320    2.1940 C.3     1  UNL1        0.0870
      4  O          3.9580    0.6550    2.4810 O.2     1  UNL1       -0.3000
      5  C          5.3850    1.7520   -0.2380 C.3     1  UNL1        0.0430
      6  C          6.5530    1.0480   -0.7970 C.2     1  UNL1       -0.0440
      7  C          7.8600    1.4840   -0.5480 C.2     1  UNL1        0.0080
      8  C          6.3660   -0.0660   -1.5830 C.2     1  UNL1        0.0540
      9  C          8.9170    0.7830   -1.0990 C.2     1  UNL1        0.0510
     10  C          7.4380   -0.7710   -2.1380 C.2     1  UNL1        0.1660
     11  C          8.7240   -0.3430   -1.8940 C.2     1  UNL1        0.1650
     12  O          7.5130   -1.8900   -2.9400 O.2     1  UNL1       -0.4540
     13  O          9.5700   -1.2170   -2.5580 O.2     1  UNL1       -0.4540
     14  C          8.8480   -2.2660   -3.1590 C.3     1  UNL1        0.4680
@<TRIPOS>BOND
     1    14    12    1
     2    14    13    1
     3    12    10    1
     4    13    11    1
     5    10    11    2
     6    10     8    1
     7    11     9    1
     8     8     6    2
     9     9     7    2
    10     6     7    1
    11     6     5    1
    12     5     1    1
    13     1     2    1
    14     2     3    1
    15     2     4    2
