@<TRIPOS>MOLECULE
/home/cewinharhar/GITHUB/reincatalyze/data/processed/docking_pred/2023-May-23-1437_sub9_nm5_bs15_s42_ex16_mel10_mts10000_k50_ec02_g099_lra3e-4_lrc1e-3/12e5788d749ca0b681d4f032b25b6d257325d045_ligand_9.pdbqt
 14 15 0 0 0
SMALL
GASTEIGER

@<TRIPOS>ATOM
      1  C          5.7390    1.2160   -0.3350 C.3     1  UNL1        0.0800
      2  C          5.2380    1.1990    1.0680 C.2     1  UNL1        0.1300
      3  C          5.4580    0.0300    1.9620 C.3     1  UNL1        0.0870
      4  O          4.6260    2.1500    1.5270 O.2     1  UNL1       -0.3000
      5  C          7.2450    1.0500   -0.3830 C.3     1  UNL1        0.0430
      6  C          7.6330   -0.2490   -0.9610 C.2     1  UNL1       -0.0440
      7  C          7.7180   -0.4390   -2.3450 C.2     1  UNL1        0.0080
      8  C          7.9230   -1.3070   -0.1300 C.2     1  UNL1        0.0540
      9  C          8.0880   -1.6800   -2.8310 C.2     1  UNL1        0.0510
     10  C          8.2970   -2.5590   -0.6250 C.2     1  UNL1        0.1660
     11  C          8.3800   -2.7480   -1.9870 C.2     1  UNL1        0.1650
     12  O          8.6300   -3.7500   -0.0150 O.2     1  UNL1       -0.4540
     13  O          8.7670   -4.0640   -2.1870 O.2     1  UNL1       -0.4540
     14  C          9.0240   -4.7090   -0.9620 C.3     1  UNL1        0.4680
@<TRIPOS>BOND
     1     9     7    1
     2     9    11    2
     3     7     6    2
     4    13    11    1
     5    13    14    1
     6    11    10    1
     7    14    12    1
     8     6     5    1
     9     6     8    1
    10    10     8    2
    11    10    12    1
    12     5     1    1
    13     1     2    1
    14     2     4    2
    15     2     3    1
