MODEL 1
REMARK VINA RESULT:      -7.7      0.000      0.000
REMARK SMILES CC(=O)CCc1ccc2c(c1)OCO2
REMARK SMILES IDX 4 1 2 2 1 3 3 4 5 5 6 6 7 7 11 8 8 9 10 10 9 11 12 12 14 13
REMARK SMILES IDX 13 14
REMARK H PARENT
REMARK Flexibility Score: inf
ROOT
ATOM      1  C   UNL     1       5.508   1.927   1.247  1.00  0.00     0.080 C 
ENDROOT
BRANCH   1   2
ATOM      2  C   UNL     1       5.073   0.718   1.999  1.00  0.00     0.130 C 
ATOM      3  C   UNL     1       5.966  -0.458   2.172  1.00  0.00     0.087 C 
ATOM      4  O   UNL     1       3.961   0.657   2.499  1.00  0.00    -0.300 OA
ENDBRANCH   1   2
BRANCH   1   5
ATOM      5  C   UNL     1       5.382   1.720  -0.249  1.00  0.00     0.043 C 
BRANCH   5   6
ATOM      6  C   UNL     1       6.555   1.022  -0.805  1.00  0.00    -0.044 A 
ATOM      7  C   UNL     1       7.859   1.463  -0.550  1.00  0.00     0.008 A 
ATOM      8  C   UNL     1       6.376  -0.091  -1.594  1.00  0.00     0.054 A 
ATOM      9  C   UNL     1       8.921   0.767  -1.098  1.00  0.00     0.051 A 
ATOM     10  C   UNL     1       7.453  -0.791  -2.145  1.00  0.00     0.166 A 
ATOM     11  C   UNL     1       8.736  -0.358  -1.896  1.00  0.00     0.165 A 
ATOM     12  O   UNL     1       7.536  -1.908  -2.950  1.00  0.00    -0.454 OA
ATOM     13  O   UNL     1       9.589  -1.228  -2.558  1.00  0.00    -0.454 OA
ATOM     14  C   UNL     1       8.874  -2.278  -3.164  1.00  0.00     0.468 C 
ENDBRANCH   5   6
ENDBRANCH   1   5
TORSDOF 3
ENDMDL
MODEL 2
REMARK VINA RESULT:      -7.4      1.929      2.427
REMARK SMILES CC(=O)CCc1ccc2c(c1)OCO2
REMARK SMILES IDX 4 1 2 2 1 3 3 4 5 5 6 6 7 7 11 8 8 9 10 10 9 11 12 12 14 13
REMARK SMILES IDX 13 14
REMARK H PARENT
REMARK Flexibility Score: inf
ROOT
ATOM      1  C   UNL     1       5.739   1.216  -0.335  1.00  0.00     0.080 C 
ENDROOT
BRANCH   1   2
ATOM      2  C   UNL     1       5.238   1.199   1.068  1.00  0.00     0.130 C 
ATOM      3  C   UNL     1       5.458   0.030   1.962  1.00  0.00     0.087 C 
ATOM      4  O   UNL     1       4.626   2.150   1.527  1.00  0.00    -0.300 OA
ENDBRANCH   1   2
BRANCH   1   5
ATOM      5  C   UNL     1       7.245   1.050  -0.383  1.00  0.00     0.043 C 
BRANCH   5   6
ATOM      6  C   UNL     1       7.633  -0.249  -0.961  1.00  0.00    -0.044 A 
ATOM      7  C   UNL     1       7.718  -0.439  -2.345  1.00  0.00     0.008 A 
ATOM      8  C   UNL     1       7.923  -1.307  -0.130  1.00  0.00     0.054 A 
ATOM      9  C   UNL     1       8.088  -1.680  -2.831  1.00  0.00     0.051 A 
ATOM     10  C   UNL     1       8.297  -2.559  -0.625  1.00  0.00     0.166 A 
ATOM     11  C   UNL     1       8.380  -2.748  -1.987  1.00  0.00     0.165 A 
ATOM     12  O   UNL     1       8.630  -3.750  -0.015  1.00  0.00    -0.454 OA
ATOM     13  O   UNL     1       8.767  -4.064  -2.187  1.00  0.00    -0.454 OA
ATOM     14  C   UNL     1       9.024  -4.709  -0.962  1.00  0.00     0.468 C 
ENDBRANCH   5   6
ENDBRANCH   1   5
TORSDOF 3
ENDMDL
MODEL 3
REMARK VINA RESULT:      -7.2      2.046      2.624
REMARK SMILES CC(=O)CCc1ccc2c(c1)OCO2
REMARK SMILES IDX 4 1 2 2 1 3 3 4 5 5 6 6 7 7 11 8 8 9 10 10 9 11 12 12 14 13
REMARK SMILES IDX 13 14
REMARK H PARENT
REMARK Flexibility Score: inf
ROOT
ATOM      1  C   UNL     1       5.425  -0.053   2.029  1.00  0.00     0.080 C 
ENDROOT
BRANCH   1   2
ATOM      2  C   UNL     1       4.573   1.140   1.767  1.00  0.00     0.130 C 
ATOM      3  C   UNL     1       4.899   2.112   0.689  1.00  0.00     0.087 C 
ATOM      4  O   UNL     1       3.574   1.356   2.435  1.00  0.00    -0.300 OA
ENDBRANCH   1   2
BRANCH   1   5
ATOM      5  C   UNL     1       6.860   0.193   1.605  1.00  0.00     0.043 C 
BRANCH   5   6
ATOM      6  C   UNL     1       7.280  -0.731   0.537  1.00  0.00    -0.044 A 
ATOM      7  C   UNL     1       7.137  -0.402  -0.816  1.00  0.00     0.008 A 
ATOM      8  C   UNL     1       7.830  -1.949   0.865  1.00  0.00     0.054 A 
ATOM      9  C   UNL     1       7.550  -1.308  -1.775  1.00  0.00     0.051 A 
ATOM     10  C   UNL     1       8.247  -2.862  -0.108  1.00  0.00     0.166 A 
ATOM     11  C   UNL     1       8.105  -2.539  -1.439  1.00  0.00     0.165 A 
ATOM     12  O   UNL     1       8.814  -4.117  -0.038  1.00  0.00    -0.454 OA
ATOM     13  O   UNL     1       8.594  -3.613  -2.167  1.00  0.00    -0.454 OA
ATOM     14  C   UNL     1       9.136  -4.597  -1.318  1.00  0.00     0.468 C 
ENDBRANCH   5   6
ENDBRANCH   1   5
TORSDOF 3
ENDMDL
MODEL 4
REMARK VINA RESULT:      -7.1      1.255      1.469
REMARK SMILES CC(=O)CCc1ccc2c(c1)OCO2
REMARK SMILES IDX 4 1 2 2 1 3 3 4 5 5 6 6 7 7 11 8 8 9 10 10 9 11 12 12 14 13
REMARK SMILES IDX 13 14
REMARK H PARENT
REMARK Flexibility Score: inf
ROOT
ATOM      1  C   UNL     1       6.370   1.190   0.927  1.00  0.00     0.080 C 
ENDROOT
BRANCH   1   2
ATOM      2  C   UNL     1       5.659   0.367   1.945  1.00  0.00     0.130 C 
ATOM      3  C   UNL     1       6.268  -0.863   2.519  1.00  0.00     0.087 C 
ATOM      4  O   UNL     1       4.547   0.680   2.339  1.00  0.00    -0.300 OA
ENDBRANCH   1   2
BRANCH   1   5
ATOM      5  C   UNL     1       5.857   0.903  -0.470  1.00  0.00     0.043 C 
BRANCH   5   6
ATOM      6  C   UNL     1       6.807   0.085  -1.245  1.00  0.00    -0.044 A 
ATOM      7  C   UNL     1       7.489   0.606  -2.351  1.00  0.00     0.008 A 
ATOM      8  C   UNL     1       7.040  -1.221  -0.879  1.00  0.00     0.054 A 
ATOM      9  C   UNL     1       8.370  -0.208  -3.039  1.00  0.00     0.051 A 
ATOM     10  C   UNL     1       7.932  -2.039  -1.578  1.00  0.00     0.166 A 
ATOM     11  C   UNL     1       8.603  -1.529  -2.667  1.00  0.00     0.165 A 
ATOM     12  O   UNL     1       8.329  -3.350  -1.416  1.00  0.00    -0.454 OA
ATOM     13  O   UNL     1       9.407  -2.547  -3.156  1.00  0.00    -0.454 OA
ATOM     14  C   UNL     1       9.332  -3.690  -2.339  1.00  0.00     0.468 C 
ENDBRANCH   5   6
ENDBRANCH   1   5
TORSDOF 3
ENDMDL
MODEL 5
REMARK VINA RESULT:      -7.1      1.986      2.545
REMARK SMILES CC(=O)CCc1ccc2c(c1)OCO2
REMARK SMILES IDX 4 1 2 2 1 3 3 4 5 5 6 6 7 7 11 8 8 9 10 10 9 11 12 12 14 13
REMARK SMILES IDX 13 14
REMARK H PARENT
REMARK Flexibility Score: inf
ROOT
ATOM      1  C   UNL     1       6.766   0.604   1.363  1.00  0.00     0.080 C 
ENDROOT
BRANCH   1   2
ATOM      2  C   UNL     1       5.353   1.050   1.515  1.00  0.00     0.130 C 
ATOM      3  C   UNL     1       4.786   2.143   0.681  1.00  0.00     0.087 C 
ATOM      4  O   UNL     1       4.616   0.527   2.334  1.00  0.00    -0.300 OA
ENDBRANCH   1   2
BRANCH   1   5
ATOM      5  C   UNL     1       7.279   0.866  -0.039  1.00  0.00     0.043 C 
BRANCH   5   6
ATOM      6  C   UNL     1       7.694  -0.378  -0.711  1.00  0.00    -0.044 A 
ATOM      7  C   UNL     1       7.868  -0.440  -2.098  1.00  0.00     0.008 A 
ATOM      8  C   UNL     1       7.921  -1.513   0.035  1.00  0.00     0.054 A 
ATOM      9  C   UNL     1       8.259  -1.636  -2.673  1.00  0.00     0.051 A 
ATOM     10  C   UNL     1       8.318  -2.719  -0.551  1.00  0.00     0.166 A 
ATOM     11  C   UNL     1       8.488  -2.781  -1.916  1.00  0.00     0.165 A 
ATOM     12  O   UNL     1       8.601  -3.965  -0.035  1.00  0.00    -0.454 OA
ATOM     13  O   UNL     1       8.877  -4.077  -2.213  1.00  0.00    -0.454 OA
ATOM     14  C   UNL     1       9.049  -4.837  -1.040  1.00  0.00     0.468 C 
ENDBRANCH   5   6
ENDBRANCH   1   5
TORSDOF 3
ENDMDL
