@<TRIPOS>MOLECULE
/home/cewinharhar/GITHUB/reincatalyze/data/processed/docking_pred/2023-May-23-1437_sub9_nm5_bs15_s42_ex16_mel10_mts10000_k50_ec02_g099_lra3e-4_lrc1e-3/12e5788d749ca0b681d4f032b25b6d257325d045_ligand_9.pdbqt
 14 15 0 0 0
SMALL
GASTEIGER

@<TRIPOS>ATOM
      1  C          5.4250   -0.0530    2.0290 C.3     1  UNL1        0.0800
      2  C          4.5730    1.1400    1.7670 C.2     1  UNL1        0.1300
      3  C          4.8990    2.1120    0.6890 C.3     1  UNL1        0.0870
      4  O          3.5740    1.3560    2.4350 O.2     1  UNL1       -0.3000
      5  C          6.8600    0.1930    1.6050 C.3     1  UNL1        0.0430
      6  C          7.2800   -0.7310    0.5370 C.2     1  UNL1       -0.0440
      7  C          7.1370   -0.4020   -0.8160 C.2     1  UNL1        0.0080
      8  C          7.8300   -1.9490    0.8650 C.2     1  UNL1        0.0540
      9  C          7.5500   -1.3080   -1.7750 C.2     1  UNL1        0.0510
     10  C          8.2470   -2.8620   -0.1080 C.2     1  UNL1        0.1660
     11  C          8.1050   -2.5390   -1.4390 C.2     1  UNL1        0.1650
     12  O          8.8140   -4.1170   -0.0380 O.2     1  UNL1       -0.4540
     13  O          8.5940   -3.6130   -2.1670 O.2     1  UNL1       -0.4540
     14  C          9.1360   -4.5970   -1.3180 C.3     1  UNL1        0.4680
@<TRIPOS>BOND
     1    13    11    1
     2    13    14    1
     3     9    11    2
     4     9     7    1
     5    11    10    1
     6    14    12    1
     7     7     6    2
     8    10    12    1
     9    10     8    2
    10     6     8    1
    11     6     5    1
    12     3     2    1
    13     5     1    1
    14     2     1    1
    15     2     4    2
