@<TRIPOS>MOLECULE
/home/cewinharhar/GITHUB/reincatalyze/data/processed/docking_pred/2023-May-23-1437_sub9_nm5_bs15_s42_ex16_mel10_mts10000_k50_ec02_g099_lra3e-4_lrc1e-3/137462db5aaa4c0d89203b892bf7897df04b2771_ligand_9.pdbqt
 14 15 0 0 0
SMALL
GASTEIGER

@<TRIPOS>ATOM
      1  C          6.3830    1.1790    0.9240 C.3     1  UNL1        0.0800
      2  C          5.6600    0.3650    1.9410 C.2     1  UNL1        0.1300
      3  C          6.2580   -0.8640    2.5260 C.3     1  UNL1        0.0870
      4  O          4.5470    0.6870    2.3240 O.2     1  UNL1       -0.3000
      5  C          5.8690    0.8960   -0.4740 C.3     1  UNL1        0.0430
      6  C          6.8150    0.0730   -1.2480 C.2     1  UNL1       -0.0440
      7  C          7.4910    0.5840   -2.3620 C.2     1  UNL1        0.0080
      8  C          7.0500   -1.2310   -0.8730 C.2     1  UNL1        0.0540
      9  C          8.3680   -0.2360   -3.0490 C.2     1  UNL1        0.0510
     10  C          7.9380   -2.0550   -1.5710 C.2     1  UNL1        0.1660
     11  C          8.6020   -1.5530   -2.6680 C.2     1  UNL1        0.1650
     12  O          8.3360   -3.3640   -1.4010 O.2     1  UNL1       -0.4540
     13  O          9.4030   -2.5750   -3.1530 O.2     1  UNL1       -0.4540
     14  C          9.3330   -3.7120   -2.3260 C.3     1  UNL1        0.4680
@<TRIPOS>BOND
     1    13    11    1
     2    13    14    1
     3     9    11    2
     4     9     7    1
     5    11    10    1
     6     7     6    2
     7    14    12    1
     8    10    12    1
     9    10     8    2
    10     6     8    1
    11     6     5    1
    12     5     1    1
    13     1     2    1
    14     2     4    2
    15     2     3    1
