MODEL 1
REMARK VINA RESULT:      -7.6      0.000      0.000
REMARK SMILES CC(=O)CCc1ccc2c(c1)OCO2
REMARK SMILES IDX 4 1 2 2 1 3 3 4 5 5 6 6 7 7 11 8 8 9 10 10 9 11 12 12 14 13
REMARK SMILES IDX 13 14
REMARK H PARENT
REMARK Flexibility Score: inf
ROOT
ATOM      1  C   UNL     1       5.556   1.896   1.290  1.00  0.00     0.080 C 
ENDROOT
BRANCH   1   2
ATOM      2  C   UNL     1       5.122   0.674   2.023  1.00  0.00     0.130 C 
ATOM      3  C   UNL     1       6.023  -0.498   2.190  1.00  0.00     0.087 C 
ATOM      4  O   UNL     1       4.006   0.599   2.511  1.00  0.00    -0.300 OA
ENDBRANCH   1   2
BRANCH   1   5
ATOM      5  C   UNL     1       5.421   1.716  -0.209  1.00  0.00     0.043 C 
BRANCH   5   6
ATOM      6  C   UNL     1       6.584   1.017  -0.783  1.00  0.00    -0.044 A 
ATOM      7  C   UNL     1       7.893   1.451  -0.540  1.00  0.00     0.008 A 
ATOM      8  C   UNL     1       6.392  -0.091  -1.576  1.00  0.00     0.054 A 
ATOM      9  C   UNL     1       8.946   0.755  -1.105  1.00  0.00     0.051 A 
ATOM     10  C   UNL     1       7.460  -0.792  -2.144  1.00  0.00     0.166 A 
ATOM     11  C   UNL     1       8.747  -0.365  -1.907  1.00  0.00     0.165 A 
ATOM     12  O   UNL     1       7.528  -1.904  -2.956  1.00  0.00    -0.454 OA
ATOM     13  O   UNL     1       9.589  -1.234  -2.584  1.00  0.00    -0.454 OA
ATOM     14  C   UNL     1       8.862  -2.277  -3.188  1.00  0.00     0.468 C 
ENDBRANCH   5   6
ENDBRANCH   1   5
TORSDOF 3
ENDMDL
MODEL 2
REMARK VINA RESULT:      -7.4      1.824      2.265
REMARK SMILES CC(=O)CCc1ccc2c(c1)OCO2
REMARK SMILES IDX 4 1 2 2 1 3 3 4 5 5 6 6 7 7 11 8 8 9 10 10 9 11 12 12 14 13
REMARK SMILES IDX 13 14
REMARK H PARENT
REMARK Flexibility Score: inf
ROOT
ATOM      1  C   UNL     1       5.665   1.450  -0.284  1.00  0.00     0.080 C 
ENDROOT
BRANCH   1   2
ATOM      2  C   UNL     1       5.080   1.276   1.074  1.00  0.00     0.130 C 
ATOM      3  C   UNL     1       5.465   0.138   1.951  1.00  0.00     0.087 C 
ATOM      4  O   UNL     1       4.260   2.068   1.510  1.00  0.00    -0.300 OA
ENDBRANCH   1   2
BRANCH   1   5
ATOM      5  C   UNL     1       7.167   1.242  -0.267  1.00  0.00     0.043 C 
BRANCH   5   6
ATOM      6  C   UNL     1       7.549  -0.035  -0.897  1.00  0.00    -0.044 A 
ATOM      7  C   UNL     1       7.621  -0.174  -2.287  1.00  0.00     0.008 A 
ATOM      8  C   UNL     1       7.846  -1.123  -0.107  1.00  0.00     0.054 A 
ATOM      9  C   UNL     1       7.986  -1.396  -2.822  1.00  0.00     0.051 A 
ATOM     10  C   UNL     1       8.215  -2.356  -0.653  1.00  0.00     0.166 A 
ATOM     11  C   UNL     1       8.285  -2.494  -2.021  1.00  0.00     0.165 A 
ATOM     12  O   UNL     1       8.553  -3.569  -0.090  1.00  0.00    -0.454 OA
ATOM     13  O   UNL     1       8.670  -3.801  -2.273  1.00  0.00    -0.454 OA
ATOM     14  C   UNL     1       8.938  -4.492  -1.076  1.00  0.00     0.468 C 
ENDBRANCH   5   6
ENDBRANCH   1   5
TORSDOF 3
ENDMDL
MODEL 3
REMARK VINA RESULT:      -7.2      2.082      2.641
REMARK SMILES CC(=O)CCc1ccc2c(c1)OCO2
REMARK SMILES IDX 4 1 2 2 1 3 3 4 5 5 6 6 7 7 11 8 8 9 10 10 9 11 12 12 14 13
REMARK SMILES IDX 13 14
REMARK H PARENT
REMARK Flexibility Score: inf
ROOT
ATOM      1  C   UNL     1       5.491  -0.036   1.949  1.00  0.00     0.080 C 
ENDROOT
BRANCH   1   2
ATOM      2  C   UNL     1       4.654   1.161   1.656  1.00  0.00     0.130 C 
ATOM      3  C   UNL     1       5.026   2.133   0.594  1.00  0.00     0.087 C 
ATOM      4  O   UNL     1       3.631   1.379   2.285  1.00  0.00    -0.300 OA
ENDBRANCH   1   2
BRANCH   1   5
ATOM      5  C   UNL     1       6.932   0.185   1.532  1.00  0.00     0.043 C 
BRANCH   5   6
ATOM      6  C   UNL     1       7.345  -0.757   0.475  1.00  0.00    -0.044 A 
ATOM      7  C   UNL     1       7.217  -0.438  -0.881  1.00  0.00     0.008 A 
ATOM      8  C   UNL     1       7.873  -1.980   0.820  1.00  0.00     0.054 A 
ATOM      9  C   UNL     1       7.623  -1.361  -1.829  1.00  0.00     0.051 A 
ATOM     10  C   UNL     1       8.282  -2.909  -0.141  1.00  0.00     0.166 A 
ATOM     11  C   UNL     1       8.156  -2.597  -1.476  1.00  0.00     0.165 A 
ATOM     12  O   UNL     1       8.828  -4.172  -0.055  1.00  0.00    -0.454 OA
ATOM     13  O   UNL     1       8.633  -3.685  -2.190  1.00  0.00    -0.454 OA
ATOM     14  C   UNL     1       9.153  -4.669  -1.328  1.00  0.00     0.468 C 
ENDBRANCH   5   6
ENDBRANCH   1   5
TORSDOF 3
ENDMDL
MODEL 4
REMARK VINA RESULT:      -7.1      1.968      2.528
REMARK SMILES CC(=O)CCc1ccc2c(c1)OCO2
REMARK SMILES IDX 4 1 2 2 1 3 3 4 5 5 6 6 7 7 11 8 8 9 10 10 9 11 12 12 14 13
REMARK SMILES IDX 13 14
REMARK H PARENT
REMARK Flexibility Score: inf
ROOT
ATOM      1  C   UNL     1       6.806   0.820   1.287  1.00  0.00     0.080 C 
ENDROOT
BRANCH   1   2
ATOM      2  C   UNL     1       5.369   1.186   1.432  1.00  0.00     0.130 C 
ATOM      3  C   UNL     1       4.712   2.150   0.509  1.00  0.00     0.087 C 
ATOM      4  O   UNL     1       4.686   0.703   2.320  1.00  0.00    -0.300 OA
ENDBRANCH   1   2
BRANCH   1   5
ATOM      5  C   UNL     1       7.282   1.016  -0.139  1.00  0.00     0.043 C 
BRANCH   5   6
ATOM      6  C   UNL     1       7.640  -0.263  -0.777  1.00  0.00    -0.044 A 
ATOM      7  C   UNL     1       7.684  -0.401  -2.169  1.00  0.00     0.008 A 
ATOM      8  C   UNL     1       7.942  -1.355   0.005  1.00  0.00     0.054 A 
ATOM      9  C   UNL     1       8.027  -1.626  -2.711  1.00  0.00     0.051 A 
ATOM     10  C   UNL     1       8.289  -2.591  -0.548  1.00  0.00     0.166 A 
ATOM     11  C   UNL     1       8.331  -2.728  -1.917  1.00  0.00     0.165 A 
ATOM     12  O   UNL     1       8.626  -3.807   0.007  1.00  0.00    -0.454 OA
ATOM     13  O   UNL     1       8.698  -4.039  -2.178  1.00  0.00    -0.454 OA
ATOM     14  C   UNL     1       8.983  -4.733  -0.987  1.00  0.00     0.468 C 
ENDBRANCH   5   6
ENDBRANCH   1   5
TORSDOF 3
ENDMDL
MODEL 5
REMARK VINA RESULT:      -7.1      1.256      1.478
REMARK SMILES CC(=O)CCc1ccc2c(c1)OCO2
REMARK SMILES IDX 4 1 2 2 1 3 3 4 5 5 6 6 7 7 11 8 8 9 10 10 9 11 12 12 14 13
REMARK SMILES IDX 13 14
REMARK H PARENT
REMARK Flexibility Score: inf
ROOT
ATOM      1  C   UNL     1       6.383   1.179   0.924  1.00  0.00     0.080 C 
ENDROOT
BRANCH   1   2
ATOM      2  C   UNL     1       5.660   0.365   1.941  1.00  0.00     0.130 C 
ATOM      3  C   UNL     1       6.258  -0.864   2.526  1.00  0.00     0.087 C 
ATOM      4  O   UNL     1       4.547   0.687   2.324  1.00  0.00    -0.300 OA
ENDBRANCH   1   2
BRANCH   1   5
ATOM      5  C   UNL     1       5.869   0.896  -0.474  1.00  0.00     0.043 C 
BRANCH   5   6
ATOM      6  C   UNL     1       6.815   0.073  -1.248  1.00  0.00    -0.044 A 
ATOM      7  C   UNL     1       7.491   0.584  -2.362  1.00  0.00     0.008 A 
ATOM      8  C   UNL     1       7.050  -1.231  -0.873  1.00  0.00     0.054 A 
ATOM      9  C   UNL     1       8.368  -0.236  -3.049  1.00  0.00     0.051 A 
ATOM     10  C   UNL     1       7.938  -2.055  -1.571  1.00  0.00     0.166 A 
ATOM     11  C   UNL     1       8.602  -1.553  -2.668  1.00  0.00     0.165 A 
ATOM     12  O   UNL     1       8.336  -3.364  -1.401  1.00  0.00    -0.454 OA
ATOM     13  O   UNL     1       9.403  -2.575  -3.153  1.00  0.00    -0.454 OA
ATOM     14  C   UNL     1       9.333  -3.712  -2.326  1.00  0.00     0.468 C 
ENDBRANCH   5   6
ENDBRANCH   1   5
TORSDOF 3
ENDMDL
