@<TRIPOS>MOLECULE
/home/cewinharhar/GITHUB/reincatalyze/data/processed/docking_pred/2023-May-23-1437_sub9_nm5_bs15_s42_ex16_mel10_mts10000_k50_ec02_g099_lra3e-4_lrc1e-3/141a4713aaf07cdd351da17b8461b13d6c9c65f9_ligand_9.pdbqt
 14 15 0 0 0
SMALL
GASTEIGER

@<TRIPOS>ATOM
      1  C          5.7670    1.3350   -0.2600 C.3     1  UNL1        0.0800
      2  C          5.1880    1.2720    1.1110 C.2     1  UNL1        0.1300
      3  C          5.4880    0.1430    2.0330 C.3     1  UNL1        0.0870
      4  O          4.4460    2.1500    1.5200 O.2     1  UNL1       -0.3000
      5  C          7.2620    1.0860   -0.2390 C.3     1  UNL1        0.0430
      6  C          7.6080   -0.2080   -0.8550 C.2     1  UNL1       -0.0440
      7  C          7.6320   -0.3760   -2.2440 C.2     1  UNL1        0.0080
      8  C          7.9210   -1.2820   -0.0530 C.2     1  UNL1        0.0540
      9  C          7.9650   -1.6130   -2.7650 C.2     1  UNL1        0.0510
     10  C          8.2580   -2.5310   -0.5850 C.2     1  UNL1        0.1660
     11  C          8.2800   -2.6970   -1.9520 C.2     1  UNL1        0.1650
     12  O          8.6020   -3.7350   -0.0090 O.2     1  UNL1       -0.4540
     13  O          8.6420   -4.0140   -2.1890 O.2     1  UNL1       -0.4540
     14  C          8.9430   -4.6830   -0.9880 C.3     1  UNL1        0.4680
@<TRIPOS>BOND
     1     9     7    1
     2     9    11    2
     3     7     6    2
     4    13    11    1
     5    13    14    1
     6    11    10    1
     7    14    12    1
     8     6     5    1
     9     6     8    1
    10    10     8    2
    11    10    12    1
    12     1     5    1
    13     1     2    1
    14     2     4    2
    15     2     3    1
