@<TRIPOS>MOLECULE
/home/cewinharhar/GITHUB/reincatalyze/data/processed/docking_pred/2023-May-23-1437_sub9_nm5_bs15_s42_ex16_mel10_mts10000_k50_ec02_g099_lra3e-4_lrc1e-3/141be626e2cd6ba8f6b8a46d6dbef4dd02701a2b_ligand_9.pdbqt
 14 15 0 0 0
SMALL
GASTEIGER

@<TRIPOS>ATOM
      1  C          5.5020    0.0030    1.9940 C.3     1  UNL1        0.0800
      2  C          4.6390    1.1700    1.6620 C.2     1  UNL1        0.1300
      3  C          4.9900    2.1160    0.5690 C.3     1  UNL1        0.0870
      4  O          3.6110    1.3860    2.2830 O.2     1  UNL1       -0.3000
      5  C          6.9340    0.2350    1.5540 C.3     1  UNL1        0.0430
      6  C          7.3410   -0.7100    0.4980 C.2     1  UNL1       -0.0440
      7  C          7.2160   -0.3910   -0.8590 C.2     1  UNL1        0.0080
      8  C          7.8600   -1.9370    0.8430 C.2     1  UNL1        0.0540
      9  C          7.6150   -1.3160   -1.8060 C.2     1  UNL1        0.0510
     10  C          8.2630   -2.8690   -0.1170 C.2     1  UNL1        0.1660
     11  C          8.1390   -2.5560   -1.4530 C.2     1  UNL1        0.1650
     12  O          8.8000   -4.1360   -0.0300 O.2     1  UNL1       -0.4540
     13  O          8.6080   -3.6490   -2.1650 O.2     1  UNL1       -0.4540
     14  C          9.1210   -4.6360   -1.3030 C.3     1  UNL1        0.4680
@<TRIPOS>BOND
     1    13    11    1
     2    13    14    1
     3     9    11    2
     4     9     7    1
     5    11    10    1
     6    14    12    1
     7     7     6    2
     8    10    12    1
     9    10     8    2
    10     6     8    1
    11     6     5    1
    12     3     2    1
    13     5     1    1
    14     2     1    1
    15     2     4    2
