@<TRIPOS>MOLECULE
/home/cewinharhar/GITHUB/reincatalyze/data/processed/docking_pred/2023-May-23-1437_sub9_nm5_bs15_s42_ex16_mel10_mts10000_k50_ec02_g099_lra3e-4_lrc1e-3/141be626e2cd6ba8f6b8a46d6dbef4dd02701a2b_ligand_9.pdbqt
 14 15 0 0 0
SMALL
GASTEIGER

@<TRIPOS>ATOM
      1  C          6.3840    1.1570    0.9670 C.3     1  UNL1        0.0800
      2  C          5.6450    0.3310    1.9620 C.2     1  UNL1        0.1300
      3  C          6.2410   -0.8950    2.5570 C.3     1  UNL1        0.0870
      4  O          4.5190    0.6390    2.3190 O.2     1  UNL1       -0.3000
      5  C          5.8790    0.9070   -0.4400 C.3     1  UNL1        0.0430
      6  C          6.8160    0.0770   -1.2180 C.2     1  UNL1       -0.0440
      7  C          7.4680    0.5750   -2.3520 C.2     1  UNL1        0.0080
      8  C          7.0660   -1.2190   -0.8280 C.2     1  UNL1        0.0540
      9  C          8.3370   -0.2490   -3.0430 C.2     1  UNL1        0.0510
     10  C          7.9470   -2.0480   -1.5290 C.2     1  UNL1        0.1660
     11  C          8.5870   -1.5590   -2.6460 C.2     1  UNL1        0.1650
     12  O          8.3560   -3.3520   -1.3460 O.2     1  UNL1       -0.4540
     13  O          9.3860   -2.5830   -3.1300 O.2     1  UNL1       -0.4540
     14  C          9.3390   -3.7080   -2.2840 C.3     1  UNL1        0.4680
@<TRIPOS>BOND
     1    13    11    1
     2    13    14    1
     3     9    11    2
     4     9     7    1
     5    11    10    1
     6     7     6    2
     7    14    12    1
     8    10    12    1
     9    10     8    2
    10     6     8    1
    11     6     5    1
    12     5     1    1
    13     1     2    1
    14     2     4    2
    15     2     3    1
