MODEL 1
REMARK VINA RESULT:      -7.6      0.000      0.000
REMARK SMILES CC(=O)CCc1ccc2c(c1)OCO2
REMARK SMILES IDX 4 1 2 2 1 3 3 4 5 5 6 6 7 7 11 8 8 9 10 10 9 11 12 12 14 13
REMARK SMILES IDX 13 14
REMARK H PARENT
REMARK Flexibility Score: inf
ROOT
ATOM      1  C   UNL     1       5.503   1.928   1.267  1.00  0.00     0.080 C 
ENDROOT
BRANCH   1   2
ATOM      2  C   UNL     1       5.047   0.715   2.000  1.00  0.00     0.130 C 
ATOM      3  C   UNL     1       5.916  -0.484   2.142  1.00  0.00     0.087 C 
ATOM      4  O   UNL     1       3.938   0.669   2.507  1.00  0.00    -0.300 OA
ENDBRANCH   1   2
BRANCH   1   5
ATOM      5  C   UNL     1       5.383   1.744  -0.233  1.00  0.00     0.043 C 
BRANCH   5   6
ATOM      6  C   UNL     1       6.553   1.043  -0.793  1.00  0.00    -0.044 A 
ATOM      7  C   UNL     1       7.858   1.479  -0.540  1.00  0.00     0.008 A 
ATOM      8  C   UNL     1       6.368  -0.069  -1.583  1.00  0.00     0.054 A 
ATOM      9  C   UNL     1       8.917   0.781  -1.091  1.00  0.00     0.051 A 
ATOM     10  C   UNL     1       7.442  -0.771  -2.138  1.00  0.00     0.166 A 
ATOM     11  C   UNL     1       8.727  -0.342  -1.890  1.00  0.00     0.165 A 
ATOM     12  O   UNL     1       7.519  -1.887  -2.944  1.00  0.00    -0.454 OA
ATOM     13  O   UNL     1       9.575  -1.214  -2.556  1.00  0.00    -0.454 OA
ATOM     14  C   UNL     1       8.855  -2.260  -3.162  1.00  0.00     0.468 C 
ENDBRANCH   5   6
ENDBRANCH   1   5
TORSDOF 3
ENDMDL
MODEL 2
REMARK VINA RESULT:      -7.4      1.950      2.447
REMARK SMILES CC(=O)CCc1ccc2c(c1)OCO2
REMARK SMILES IDX 4 1 2 2 1 3 3 4 5 5 6 6 7 7 11 8 8 9 10 10 9 11 12 12 14 13
REMARK SMILES IDX 13 14
REMARK H PARENT
REMARK Flexibility Score: inf
ROOT
ATOM      1  C   UNL     1       5.756   1.180  -0.307  1.00  0.00     0.080 C 
ENDROOT
BRANCH   1   2
ATOM      2  C   UNL     1       5.244   1.174   1.092  1.00  0.00     0.130 C 
ATOM      3  C   UNL     1       5.402  -0.011   1.976  1.00  0.00     0.087 C 
ATOM      4  O   UNL     1       4.676   2.150   1.556  1.00  0.00    -0.300 OA
ENDBRANCH   1   2
BRANCH   1   5
ATOM      5  C   UNL     1       7.263   1.017  -0.343  1.00  0.00     0.043 C 
BRANCH   5   6
ATOM      6  C   UNL     1       7.659  -0.274  -0.931  1.00  0.00    -0.044 A 
ATOM      7  C   UNL     1       7.762  -0.448  -2.316  1.00  0.00     0.008 A 
ATOM      8  C   UNL     1       7.938  -1.342  -0.108  1.00  0.00     0.054 A 
ATOM      9  C   UNL     1       8.139  -1.683  -2.811  1.00  0.00     0.051 A 
ATOM     10  C   UNL     1       8.320  -2.588  -0.614  1.00  0.00     0.166 A 
ATOM     11  C   UNL     1       8.420  -2.760  -1.977  1.00  0.00     0.165 A 
ATOM     12  O   UNL     1       8.645  -3.786  -0.014  1.00  0.00    -0.454 OA
ATOM     13  O   UNL     1       8.811  -4.074  -2.187  1.00  0.00    -0.454 OA
ATOM     14  C   UNL     1       9.052  -4.734  -0.967  1.00  0.00     0.468 C 
ENDBRANCH   5   6
ENDBRANCH   1   5
TORSDOF 3
ENDMDL
MODEL 3
REMARK VINA RESULT:      -7.2      2.076      2.631
REMARK SMILES CC(=O)CCc1ccc2c(c1)OCO2
REMARK SMILES IDX 4 1 2 2 1 3 3 4 5 5 6 6 7 7 11 8 8 9 10 10 9 11 12 12 14 13
REMARK SMILES IDX 13 14
REMARK H PARENT
REMARK Flexibility Score: inf
ROOT
ATOM      1  C   UNL     1       5.502   0.003   1.994  1.00  0.00     0.080 C 
ENDROOT
BRANCH   1   2
ATOM      2  C   UNL     1       4.639   1.170   1.662  1.00  0.00     0.130 C 
ATOM      3  C   UNL     1       4.990   2.116   0.569  1.00  0.00     0.087 C 
ATOM      4  O   UNL     1       3.611   1.386   2.283  1.00  0.00    -0.300 OA
ENDBRANCH   1   2
BRANCH   1   5
ATOM      5  C   UNL     1       6.934   0.235   1.554  1.00  0.00     0.043 C 
BRANCH   5   6
ATOM      6  C   UNL     1       7.341  -0.710   0.498  1.00  0.00    -0.044 A 
ATOM      7  C   UNL     1       7.216  -0.391  -0.859  1.00  0.00     0.008 A 
ATOM      8  C   UNL     1       7.860  -1.937   0.843  1.00  0.00     0.054 A 
ATOM      9  C   UNL     1       7.615  -1.316  -1.806  1.00  0.00     0.051 A 
ATOM     10  C   UNL     1       8.263  -2.869  -0.117  1.00  0.00     0.166 A 
ATOM     11  C   UNL     1       8.139  -2.556  -1.453  1.00  0.00     0.165 A 
ATOM     12  O   UNL     1       8.800  -4.136  -0.030  1.00  0.00    -0.454 OA
ATOM     13  O   UNL     1       8.608  -3.649  -2.165  1.00  0.00    -0.454 OA
ATOM     14  C   UNL     1       9.121  -4.636  -1.303  1.00  0.00     0.468 C 
ENDBRANCH   5   6
ENDBRANCH   1   5
TORSDOF 3
ENDMDL
MODEL 4
REMARK VINA RESULT:      -7.0      1.281      1.509
REMARK SMILES CC(=O)CCc1ccc2c(c1)OCO2
REMARK SMILES IDX 4 1 2 2 1 3 3 4 5 5 6 6 7 7 11 8 8 9 10 10 9 11 12 12 14 13
REMARK SMILES IDX 13 14
REMARK H PARENT
REMARK Flexibility Score: inf
ROOT
ATOM      1  C   UNL     1       6.384   1.157   0.967  1.00  0.00     0.080 C 
ENDROOT
BRANCH   1   2
ATOM      2  C   UNL     1       5.645   0.331   1.962  1.00  0.00     0.130 C 
ATOM      3  C   UNL     1       6.241  -0.895   2.557  1.00  0.00     0.087 C 
ATOM      4  O   UNL     1       4.519   0.639   2.319  1.00  0.00    -0.300 OA
ENDBRANCH   1   2
BRANCH   1   5
ATOM      5  C   UNL     1       5.879   0.907  -0.440  1.00  0.00     0.043 C 
BRANCH   5   6
ATOM      6  C   UNL     1       6.816   0.077  -1.218  1.00  0.00    -0.044 A 
ATOM      7  C   UNL     1       7.468   0.575  -2.352  1.00  0.00     0.008 A 
ATOM      8  C   UNL     1       7.066  -1.219  -0.828  1.00  0.00     0.054 A 
ATOM      9  C   UNL     1       8.337  -0.249  -3.043  1.00  0.00     0.051 A 
ATOM     10  C   UNL     1       7.947  -2.048  -1.529  1.00  0.00     0.166 A 
ATOM     11  C   UNL     1       8.587  -1.559  -2.646  1.00  0.00     0.165 A 
ATOM     12  O   UNL     1       8.356  -3.352  -1.346  1.00  0.00    -0.454 OA
ATOM     13  O   UNL     1       9.386  -2.583  -3.130  1.00  0.00    -0.454 OA
ATOM     14  C   UNL     1       9.339  -3.708  -2.284  1.00  0.00     0.468 C 
ENDBRANCH   5   6
ENDBRANCH   1   5
TORSDOF 3
ENDMDL
MODEL 5
REMARK VINA RESULT:      -6.8      1.266      1.754
REMARK SMILES CC(=O)CCc1ccc2c(c1)OCO2
REMARK SMILES IDX 4 1 2 2 1 3 3 4 5 5 6 6 7 7 11 8 8 9 10 10 9 11 12 12 14 13
REMARK SMILES IDX 13 14
REMARK H PARENT
REMARK Flexibility Score: inf
ROOT
ATOM      1  C   UNL     1       5.329  -0.056   1.976  1.00  0.00     0.080 C 
ENDROOT
BRANCH   1   2
ATOM      2  C   UNL     1       4.449   1.131   1.784  1.00  0.00     0.130 C 
ATOM      3  C   UNL     1       4.729   2.150   0.738  1.00  0.00     0.087 C 
ATOM      4  O   UNL     1       3.465   1.301   2.486  1.00  0.00    -0.300 OA
ENDBRANCH   1   2
BRANCH   1   5
ATOM      5  C   UNL     1       6.794   0.330   1.911  1.00  0.00     0.043 C 
BRANCH   5   6
ATOM      6  C   UNL     1       7.397  -0.032   0.616  1.00  0.00    -0.044 A 
ATOM      7  C   UNL     1       7.896   0.941  -0.257  1.00  0.00     0.008 A 
ATOM      8  C   UNL     1       7.479  -1.355   0.247  1.00  0.00     0.054 A 
ATOM      9  C   UNL     1       8.452   0.543  -1.459  1.00  0.00     0.051 A 
ATOM     10  C   UNL     1       8.043  -1.753  -0.969  1.00  0.00     0.166 A 
ATOM     11  C   UNL     1       8.533  -0.796  -1.829  1.00  0.00     0.165 A 
ATOM     12  O   UNL     1       8.237  -2.986  -1.556  1.00  0.00    -0.454 OA
ATOM     13  O   UNL     1       9.024  -1.468  -2.938  1.00  0.00    -0.454 OA
ATOM     14  C   UNL     1       8.939  -2.862  -2.766  1.00  0.00     0.468 C 
ENDBRANCH   5   6
ENDBRANCH   1   5
TORSDOF 3
ENDMDL
