@<TRIPOS>MOLECULE
/home/cewinharhar/GITHUB/reincatalyze/data/processed/docking_pred/2023-May-23-1437_sub9_nm5_bs15_s42_ex16_mel10_mts10000_k50_ec02_g099_lra3e-4_lrc1e-3/141be626e2cd6ba8f6b8a46d6dbef4dd02701a2b_ligand_9.pdbqt
 14 15 0 0 0
SMALL
GASTEIGER

@<TRIPOS>ATOM
      1  C          5.5030    1.9280    1.2670 C.3     1  UNL1        0.0800
      2  C          5.0470    0.7150    2.0000 C.2     1  UNL1        0.1300
      3  C          5.9160   -0.4840    2.1420 C.3     1  UNL1        0.0870
      4  O          3.9380    0.6690    2.5070 O.2     1  UNL1       -0.3000
      5  C          5.3830    1.7440   -0.2330 C.3     1  UNL1        0.0430
      6  C          6.5530    1.0430   -0.7930 C.2     1  UNL1       -0.0440
      7  C          7.8580    1.4790   -0.5400 C.2     1  UNL1        0.0080
      8  C          6.3680   -0.0690   -1.5830 C.2     1  UNL1        0.0540
      9  C          8.9170    0.7810   -1.0910 C.2     1  UNL1        0.0510
     10  C          7.4420   -0.7710   -2.1380 C.2     1  UNL1        0.1660
     11  C          8.7270   -0.3420   -1.8900 C.2     1  UNL1        0.1650
     12  O          7.5190   -1.8870   -2.9440 O.2     1  UNL1       -0.4540
     13  O          9.5750   -1.2140   -2.5560 O.2     1  UNL1       -0.4540
     14  C          8.8550   -2.2600   -3.1620 C.3     1  UNL1        0.4680
@<TRIPOS>BOND
     1    14    12    1
     2    14    13    1
     3    12    10    1
     4    13    11    1
     5    10    11    2
     6    10     8    1
     7    11     9    1
     8     8     6    2
     9     9     7    2
    10     6     7    1
    11     6     5    1
    12     5     1    1
    13     1     2    1
    14     2     3    1
    15     2     4    2
