@<TRIPOS>MOLECULE
/home/cewinharhar/GITHUB/reincatalyze/data/processed/docking_pred/2023-May-23-1437_sub9_nm5_bs15_s42_ex16_mel10_mts10000_k50_ec02_g099_lra3e-4_lrc1e-3/141be626e2cd6ba8f6b8a46d6dbef4dd02701a2b_ligand_9.pdbqt
 14 15 0 0 0
SMALL
GASTEIGER

@<TRIPOS>ATOM
      1  C          5.3290   -0.0560    1.9760 C.3     1  UNL1        0.0800
      2  C          4.4490    1.1310    1.7840 C.2     1  UNL1        0.1300
      3  C          4.7290    2.1500    0.7380 C.3     1  UNL1        0.0870
      4  O          3.4650    1.3010    2.4860 O.2     1  UNL1       -0.3000
      5  C          6.7940    0.3300    1.9110 C.3     1  UNL1        0.0430
      6  C          7.3970   -0.0320    0.6160 C.2     1  UNL1       -0.0440
      7  C          7.8960    0.9410   -0.2570 C.2     1  UNL1        0.0080
      8  C          7.4790   -1.3550    0.2470 C.2     1  UNL1        0.0540
      9  C          8.4520    0.5430   -1.4590 C.2     1  UNL1        0.0510
     10  C          8.0430   -1.7530   -0.9690 C.2     1  UNL1        0.1660
     11  C          8.5330   -0.7960   -1.8290 C.2     1  UNL1        0.1650
     12  O          8.2370   -2.9860   -1.5560 O.2     1  UNL1       -0.4540
     13  O          9.0240   -1.4680   -2.9380 O.2     1  UNL1       -0.4540
     14  C          8.9390   -2.8620   -2.7660 C.3     1  UNL1        0.4680
@<TRIPOS>BOND
     1    13    14    1
     2    13    11    1
     3    14    12    1
     4    11     9    2
     5    11    10    1
     6    12    10    1
     7     9     7    1
     8    10     8    2
     9     7     6    2
    10     8     6    1
    11     6     5    1
    12     3     2    1
    13     2     1    1
    14     2     4    2
    15     5     1    1
