@<TRIPOS>MOLECULE
/home/cewinharhar/GITHUB/reincatalyze/data/processed/docking_pred/2023-May-23-1437_sub9_nm5_bs15_s42_ex16_mel10_mts10000_k50_ec02_g099_lra3e-4_lrc1e-3/1444e75be78da7e2931ed2b5f85ad252461f0798_ligand_9.pdbqt
 14 15 0 0 0
SMALL
GASTEIGER

@<TRIPOS>ATOM
      1  C          5.4930    1.9380    1.2760 C.3     1  UNL1        0.0800
      2  C          5.0500    0.7140    2.0000 C.2     1  UNL1        0.1300
      3  C          5.9370   -0.4710    2.1460 C.3     1  UNL1        0.0870
      4  O          3.9370    0.6480    2.4970 O.2     1  UNL1       -0.3000
      5  C          5.3760    1.7620   -0.2250 C.3     1  UNL1        0.0430
      6  C          6.5420    1.0550   -0.7850 C.2     1  UNL1       -0.0440
      7  C          7.8500    1.4810   -0.5280 C.2     1  UNL1        0.0080
      8  C          6.3520   -0.0530   -1.5790 C.2     1  UNL1        0.0540
      9  C          8.9050    0.7780   -1.0800 C.2     1  UNL1        0.0510
     10  C          7.4220   -0.7610   -2.1330 C.2     1  UNL1        0.1660
     11  C          8.7100   -0.3410   -1.8820 C.2     1  UNL1        0.1650
     12  O          7.4930   -1.8750   -2.9430 O.2     1  UNL1       -0.4540
     13  O          9.5530   -1.2160   -2.5480 O.2     1  UNL1       -0.4540
     14  C          8.8280   -2.2570   -3.1590 C.3     1  UNL1        0.4680
@<TRIPOS>BOND
     1    14    12    1
     2    14    13    1
     3    12    10    1
     4    13    11    1
     5    10    11    2
     6    10     8    1
     7    11     9    1
     8     8     6    2
     9     9     7    2
    10     6     7    1
    11     6     5    1
    12     5     1    1
    13     1     2    1
    14     2     3    1
    15     2     4    2
