@<TRIPOS>MOLECULE
/home/cewinharhar/GITHUB/reincatalyze/data/processed/docking_pred/2023-May-23-1437_sub9_nm5_bs15_s42_ex16_mel10_mts10000_k50_ec02_g099_lra3e-4_lrc1e-3/1444e75be78da7e2931ed2b5f85ad252461f0798_ligand_9.pdbqt
 14 15 0 0 0
SMALL
GASTEIGER

@<TRIPOS>ATOM
      1  C          6.3420    1.1860    0.9040 C.3     1  UNL1        0.0800
      2  C          5.6500    0.3690    1.9400 C.2     1  UNL1        0.1300
      3  C          6.2900   -0.8300    2.5440 C.3     1  UNL1        0.0870
      4  O          4.5300    0.6630    2.3250 O.2     1  UNL1       -0.3000
      5  C          5.8290    0.8620   -0.4850 C.3     1  UNL1        0.0430
      6  C          6.8000    0.0620   -1.2540 C.2     1  UNL1       -0.0440
      7  C          7.5100    0.6080   -2.3300 C.2     1  UNL1        0.0080
      8  C          7.0230   -1.2520   -0.9120 C.2     1  UNL1        0.0540
      9  C          8.4090   -0.1900   -3.0130 C.2     1  UNL1        0.0510
     10  C          7.9340   -2.0540   -1.6060 C.2     1  UNL1        0.1660
     11  C          8.6320   -1.5190   -2.6660 C.2     1  UNL1        0.1650
     12  O          8.3280   -3.3680   -1.4640 O.2     1  UNL1       -0.4540
     13  O          9.4490   -2.5250   -3.1570 O.2     1  UNL1       -0.4540
     14  C          9.3550   -3.6870   -2.3680 C.3     1  UNL1        0.4680
@<TRIPOS>BOND
     1    13    11    1
     2    13    14    1
     3     9    11    2
     4     9     7    1
     5    11    10    1
     6    14    12    1
     7     7     6    2
     8    10    12    1
     9    10     8    2
    10     6     8    1
    11     6     5    1
    12     5     1    1
    13     1     2    1
    14     2     4    2
    15     2     3    1
