MODEL 1
REMARK VINA RESULT:      -7.6      0.000      0.000
REMARK SMILES CC(=O)CCc1ccc2c(c1)OCO2
REMARK SMILES IDX 4 1 2 2 1 3 3 4 5 5 6 6 7 7 11 8 8 9 10 10 9 11 12 12 14 13
REMARK SMILES IDX 13 14
REMARK H PARENT
REMARK Flexibility Score: inf
ROOT
ATOM      1  C   UNL     1       5.493   1.938   1.276  1.00  0.00     0.080 C 
ENDROOT
BRANCH   1   2
ATOM      2  C   UNL     1       5.050   0.714   2.000  1.00  0.00     0.130 C 
ATOM      3  C   UNL     1       5.937  -0.471   2.146  1.00  0.00     0.087 C 
ATOM      4  O   UNL     1       3.937   0.648   2.497  1.00  0.00    -0.300 OA
ENDBRANCH   1   2
BRANCH   1   5
ATOM      5  C   UNL     1       5.376   1.762  -0.225  1.00  0.00     0.043 C 
BRANCH   5   6
ATOM      6  C   UNL     1       6.542   1.055  -0.785  1.00  0.00    -0.044 A 
ATOM      7  C   UNL     1       7.850   1.481  -0.528  1.00  0.00     0.008 A 
ATOM      8  C   UNL     1       6.352  -0.053  -1.579  1.00  0.00     0.054 A 
ATOM      9  C   UNL     1       8.905   0.778  -1.080  1.00  0.00     0.051 A 
ATOM     10  C   UNL     1       7.422  -0.761  -2.133  1.00  0.00     0.166 A 
ATOM     11  C   UNL     1       8.710  -0.341  -1.882  1.00  0.00     0.165 A 
ATOM     12  O   UNL     1       7.493  -1.875  -2.943  1.00  0.00    -0.454 OA
ATOM     13  O   UNL     1       9.553  -1.216  -2.548  1.00  0.00    -0.454 OA
ATOM     14  C   UNL     1       8.828  -2.257  -3.159  1.00  0.00     0.468 C 
ENDBRANCH   5   6
ENDBRANCH   1   5
TORSDOF 3
ENDMDL
MODEL 2
REMARK VINA RESULT:      -7.4      1.943      2.434
REMARK SMILES CC(=O)CCc1ccc2c(c1)OCO2
REMARK SMILES IDX 4 1 2 2 1 3 3 4 5 5 6 6 7 7 11 8 8 9 10 10 9 11 12 12 14 13
REMARK SMILES IDX 13 14
REMARK H PARENT
REMARK Flexibility Score: inf
ROOT
ATOM      1  C   UNL     1       5.737   1.209  -0.332  1.00  0.00     0.080 C 
ENDROOT
BRANCH   1   2
ATOM      2  C   UNL     1       5.188   1.189   1.053  1.00  0.00     0.130 C 
ATOM      3  C   UNL     1       5.358   0.011   1.944  1.00  0.00     0.087 C 
ATOM      4  O   UNL     1       4.577   2.147   1.498  1.00  0.00    -0.300 OA
ENDBRANCH   1   2
BRANCH   1   5
ATOM      5  C   UNL     1       7.243   1.034  -0.329  1.00  0.00     0.043 C 
BRANCH   5   6
ATOM      6  C   UNL     1       7.645  -0.252  -0.926  1.00  0.00    -0.044 A 
ATOM      7  C   UNL     1       7.749  -0.416  -2.312  1.00  0.00     0.008 A 
ATOM      8  C   UNL     1       7.930  -1.324  -0.110  1.00  0.00     0.054 A 
ATOM      9  C   UNL     1       8.132  -1.646  -2.815  1.00  0.00     0.051 A 
ATOM     10  C   UNL     1       8.317  -2.565  -0.624  1.00  0.00     0.166 A 
ATOM     11  C   UNL     1       8.418  -2.727  -1.988  1.00  0.00     0.165 A 
ATOM     12  O   UNL     1       8.647  -3.765  -0.032  1.00  0.00    -0.454 OA
ATOM     13  O   UNL     1       8.814  -4.038  -2.207  1.00  0.00    -0.454 OA
ATOM     14  C   UNL     1       9.059  -4.705  -0.991  1.00  0.00     0.468 C 
ENDBRANCH   5   6
ENDBRANCH   1   5
TORSDOF 3
ENDMDL
MODEL 3
REMARK VINA RESULT:      -7.3      2.068      2.632
REMARK SMILES CC(=O)CCc1ccc2c(c1)OCO2
REMARK SMILES IDX 4 1 2 2 1 3 3 4 5 5 6 6 7 7 11 8 8 9 10 10 9 11 12 12 14 13
REMARK SMILES IDX 13 14
REMARK H PARENT
REMARK Flexibility Score: inf
ROOT
ATOM      1  C   UNL     1       5.423  -0.046   2.005  1.00  0.00     0.080 C 
ENDROOT
BRANCH   1   2
ATOM      2  C   UNL     1       4.533   1.122   1.753  1.00  0.00     0.130 C 
ATOM      3  C   UNL     1       4.820   2.103   0.673  1.00  0.00     0.087 C 
ATOM      4  O   UNL     1       3.536   1.308   2.432  1.00  0.00    -0.300 OA
ENDBRANCH   1   2
BRANCH   1   5
ATOM      5  C   UNL     1       6.840   0.233   1.546  1.00  0.00     0.043 C 
BRANCH   5   6
ATOM      6  C   UNL     1       7.271  -0.709   0.498  1.00  0.00    -0.044 A 
ATOM      7  C   UNL     1       7.141  -0.402  -0.862  1.00  0.00     0.008 A 
ATOM      8  C   UNL     1       7.817  -1.922   0.853  1.00  0.00     0.054 A 
ATOM      9  C   UNL     1       7.564  -1.325  -1.801  1.00  0.00     0.051 A 
ATOM     10  C   UNL     1       8.242  -2.851  -0.101  1.00  0.00     0.166 A 
ATOM     11  C   UNL     1       8.114  -2.551  -1.439  1.00  0.00     0.165 A 
ATOM     12  O   UNL     1       8.808  -4.105  -0.004  1.00  0.00    -0.454 OA
ATOM     13  O   UNL     1       8.610  -3.637  -2.143  1.00  0.00    -0.454 OA
ATOM     14  C   UNL     1       9.143  -4.607  -1.272  1.00  0.00     0.468 C 
ENDBRANCH   5   6
ENDBRANCH   1   5
TORSDOF 3
ENDMDL
MODEL 4
REMARK VINA RESULT:      -7.1      1.969      2.529
REMARK SMILES CC(=O)CCc1ccc2c(c1)OCO2
REMARK SMILES IDX 4 1 2 2 1 3 3 4 5 5 6 6 7 7 11 8 8 9 10 10 9 11 12 12 14 13
REMARK SMILES IDX 13 14
REMARK H PARENT
REMARK Flexibility Score: inf
ROOT
ATOM      1  C   UNL     1       6.648   0.618   1.313  1.00  0.00     0.080 C 
ENDROOT
BRANCH   1   2
ATOM      2  C   UNL     1       5.252   1.122   1.446  1.00  0.00     0.130 C 
ATOM      3  C   UNL     1       4.702   2.150   0.523  1.00  0.00     0.087 C 
ATOM      4  O   UNL     1       4.516   0.703   2.324  1.00  0.00    -0.300 OA
ENDBRANCH   1   2
BRANCH   1   5
ATOM      5  C   UNL     1       7.203   0.894  -0.070  1.00  0.00     0.043 C 
BRANCH   5   6
ATOM      6  C   UNL     1       7.636  -0.345  -0.742  1.00  0.00    -0.044 A 
ATOM      7  C   UNL     1       7.811  -0.404  -2.129  1.00  0.00     0.008 A 
ATOM      8  C   UNL     1       7.881  -1.475   0.004  1.00  0.00     0.054 A 
ATOM      9  C   UNL     1       8.220  -1.593  -2.704  1.00  0.00     0.051 A 
ATOM     10  C   UNL     1       8.295  -2.675  -0.582  1.00  0.00     0.166 A 
ATOM     11  C   UNL     1       8.466  -2.735  -1.947  1.00  0.00     0.165 A 
ATOM     12  O   UNL     1       8.597  -3.918  -0.066  1.00  0.00    -0.454 OA
ATOM     13  O   UNL     1       8.874  -4.025  -2.244  1.00  0.00    -0.454 OA
ATOM     14  C   UNL     1       9.058  -4.783  -1.072  1.00  0.00     0.468 C 
ENDBRANCH   5   6
ENDBRANCH   1   5
TORSDOF 3
ENDMDL
MODEL 5
REMARK VINA RESULT:      -7.0      1.264      1.483
REMARK SMILES CC(=O)CCc1ccc2c(c1)OCO2
REMARK SMILES IDX 4 1 2 2 1 3 3 4 5 5 6 6 7 7 11 8 8 9 10 10 9 11 12 12 14 13
REMARK SMILES IDX 13 14
REMARK H PARENT
REMARK Flexibility Score: inf
ROOT
ATOM      1  C   UNL     1       6.342   1.186   0.904  1.00  0.00     0.080 C 
ENDROOT
BRANCH   1   2
ATOM      2  C   UNL     1       5.650   0.369   1.940  1.00  0.00     0.130 C 
ATOM      3  C   UNL     1       6.290  -0.830   2.544  1.00  0.00     0.087 C 
ATOM      4  O   UNL     1       4.530   0.663   2.325  1.00  0.00    -0.300 OA
ENDBRANCH   1   2
BRANCH   1   5
ATOM      5  C   UNL     1       5.829   0.862  -0.485  1.00  0.00     0.043 C 
BRANCH   5   6
ATOM      6  C   UNL     1       6.800   0.062  -1.254  1.00  0.00    -0.044 A 
ATOM      7  C   UNL     1       7.510   0.608  -2.330  1.00  0.00     0.008 A 
ATOM      8  C   UNL     1       7.023  -1.252  -0.912  1.00  0.00     0.054 A 
ATOM      9  C   UNL     1       8.409  -0.190  -3.013  1.00  0.00     0.051 A 
ATOM     10  C   UNL     1       7.934  -2.054  -1.606  1.00  0.00     0.166 A 
ATOM     11  C   UNL     1       8.632  -1.519  -2.666  1.00  0.00     0.165 A 
ATOM     12  O   UNL     1       8.328  -3.368  -1.464  1.00  0.00    -0.454 OA
ATOM     13  O   UNL     1       9.449  -2.525  -3.157  1.00  0.00    -0.454 OA
ATOM     14  C   UNL     1       9.355  -3.687  -2.368  1.00  0.00     0.468 C 
ENDBRANCH   5   6
ENDBRANCH   1   5
TORSDOF 3
ENDMDL
