@<TRIPOS>MOLECULE
/home/cewinharhar/GITHUB/reincatalyze/data/processed/docking_pred/2023-May-23-1437_sub9_nm5_bs15_s42_ex16_mel10_mts10000_k50_ec02_g099_lra3e-4_lrc1e-3/1e16add1d5649bf0b13dd0d86c7d3fc630d89625_ligand_9.pdbqt
 14 15 0 0 0
SMALL
GASTEIGER

@<TRIPOS>ATOM
      1  C          8.1120   -2.6370   -3.5680 C.3     1  UNL1        0.0800
      2  C          9.2520   -3.5770   -3.3790 C.2     1  UNL1        0.1300
      3  C          9.0390   -5.0400   -3.2130 C.3     1  UNL1        0.0870
      4  O         10.4020   -3.1710   -3.3560 O.2     1  UNL1       -0.3000
      5  C          8.4630   -1.2430   -3.0850 C.3     1  UNL1        0.0430
      6  C          7.7100   -0.8790   -1.8720 C.2     1  UNL1       -0.0440
      7  C          7.7480   -1.6730   -0.7200 C.2     1  UNL1        0.0080
      8  C          6.9490    0.2680   -1.8600 C.2     1  UNL1        0.0540
      9  C          7.0210   -1.2810    0.3900 C.2     1  UNL1        0.0510
     10  C          6.2170    0.6600   -0.7350 C.2     1  UNL1        0.1660
     11  C          6.2530   -0.1210    0.3990 C.2     1  UNL1        0.1650
     12  O          5.3970    1.7380   -0.4770 O.2     1  UNL1       -0.4540
     13  O          5.4470    0.5010    1.3390 O.2     1  UNL1       -0.4540
     14  C          4.9570    1.7290    0.8570 C.3     1  UNL1        0.4680
@<TRIPOS>BOND
     1     1     2    1
     2     1     5    1
     3     2     4    2
     4     2     3    1
     5     5     6    1
     6     6     8    2
     7     6     7    1
     8     8    10    1
     9    10    12    1
    10    10    11    2
    11     7     9    2
    12    12    14    1
    13     9    11    1
    14    11    13    1
    15    14    13    1
