@<TRIPOS>MOLECULE
/home/cewinharhar/GITHUB/reincatalyze/data/processed/docking_pred/2023-May-23-1437_sub9_nm5_bs15_s42_ex16_mel10_mts10000_k50_ec02_g099_lra3e-4_lrc1e-3/1e16add1d5649bf0b13dd0d86c7d3fc630d89625_ligand_9.pdbqt
 14 15 0 0 0
SMALL
GASTEIGER

@<TRIPOS>ATOM
      1  C          6.0660   -0.2660    1.5820 C.3     1  UNL1        0.0800
      2  C          5.0510    0.8210    1.6610 C.2     1  UNL1        0.1300
      3  C          5.0790    1.9850    0.7360 C.3     1  UNL1        0.0870
      4  O          4.1600    0.7870    2.4950 O.2     1  UNL1       -0.3000
      5  C          7.3940    0.2570    1.0720 C.3     1  UNL1        0.0430
      6  C          7.7160   -0.2780   -0.2630 C.2     1  UNL1       -0.0440
      7  C          7.8280    0.5570   -1.3800 C.2     1  UNL1        0.0080
      8  C          7.9160   -1.6300   -0.4260 C.2     1  UNL1        0.0540
      9  C          8.1340   -0.0020   -2.6080 C.2     1  UNL1        0.0510
     10  C          8.2250   -2.1900   -1.6690 C.2     1  UNL1        0.1660
     11  C          8.3340   -1.3690   -2.7690 C.2     1  UNL1        0.1650
     12  O          8.4650   -3.4830   -2.0840 O.2     1  UNL1       -0.4540
     13  O          8.6440   -2.1830   -3.8480 O.2     1  UNL1       -0.4540
     14  C          8.8250   -3.5180   -3.4410 C.3     1  UNL1        0.4680
@<TRIPOS>BOND
     1    13    14    1
     2    13    11    1
     3    14    12    1
     4    11     9    2
     5    11    10    1
     6     9     7    1
     7    12    10    1
     8    10     8    2
     9     7     6    2
    10     8     6    1
    11     6     5    1
    12     3     2    1
    13     5     1    1
    14     1     2    1
    15     2     4    2
