@<TRIPOS>MOLECULE
/home/cewinharhar/GITHUB/reincatalyze/data/processed/docking_pred/2023-May-23-1437_sub9_nm5_bs15_s42_ex16_mel10_mts10000_k50_ec02_g099_lra3e-4_lrc1e-3/1e16add1d5649bf0b13dd0d86c7d3fc630d89625_ligand_9.pdbqt
 14 15 0 0 0
SMALL
GASTEIGER

@<TRIPOS>ATOM
      1  C          6.0280    1.5890    1.1490 C.3     1  UNL1        0.0800
      2  C          5.4620    0.4860    1.9750 C.2     1  UNL1        0.1300
      3  C          6.2430   -0.7440    2.2750 C.3     1  UNL1        0.0870
      4  O          4.3330    0.5600    2.4310 O.2     1  UNL1       -0.3000
      5  C          5.7460    1.3740   -0.3250 C.3     1  UNL1        0.0430
      6  C          6.8160    0.6000   -0.9780 C.2     1  UNL1       -0.0440
      7  C          8.1590    0.9840   -0.8880 C.2     1  UNL1        0.0080
      8  C          6.4990   -0.5310   -1.6960 C.2     1  UNL1        0.0540
      9  C          9.1200    0.2180   -1.5220 C.2     1  UNL1        0.0510
     10  C          7.4750   -1.3030   -2.3340 C.2     1  UNL1        0.1660
     11  C          8.7960   -0.9250   -2.2470 C.2     1  UNL1        0.1650
     12  O          7.4150   -2.4510   -3.0950 O.2     1  UNL1       -0.4540
     13  O          9.5280   -1.8580   -2.9630 O.2     1  UNL1       -0.4540
     14  C          8.7030   -2.8930   -3.4420 C.3     1  UNL1        0.4680
@<TRIPOS>BOND
     1    14    12    1
     2    14    13    1
     3    12    10    1
     4    13    11    1
     5    10    11    2
     6    10     8    1
     7    11     9    1
     8     8     6    2
     9     9     7    2
    10     6     7    1
    11     6     5    1
    12     5     1    1
    13     1     2    1
    14     2     3    1
    15     2     4    2
