MODEL 1
REMARK VINA RESULT:      -7.5      0.000      0.000
REMARK SMILES CC(=O)CCc1ccc2c(c1)OCO2
REMARK SMILES IDX 4 1 2 2 1 3 3 4 5 5 6 6 7 7 11 8 8 9 10 10 9 11 12 12 14 13
REMARK SMILES IDX 13 14
REMARK H PARENT
REMARK Flexibility Score: inf
ROOT
ATOM      1  C   UNL     1       6.028   1.589   1.149  1.00  0.00     0.080 C 
ENDROOT
BRANCH   1   2
ATOM      2  C   UNL     1       5.462   0.486   1.975  1.00  0.00     0.130 C 
ATOM      3  C   UNL     1       6.243  -0.744   2.275  1.00  0.00     0.087 C 
ATOM      4  O   UNL     1       4.333   0.560   2.431  1.00  0.00    -0.300 OA
ENDBRANCH   1   2
BRANCH   1   5
ATOM      5  C   UNL     1       5.746   1.374  -0.325  1.00  0.00     0.043 C 
BRANCH   5   6
ATOM      6  C   UNL     1       6.816   0.600  -0.978  1.00  0.00    -0.044 A 
ATOM      7  C   UNL     1       8.159   0.984  -0.888  1.00  0.00     0.008 A 
ATOM      8  C   UNL     1       6.499  -0.531  -1.696  1.00  0.00     0.054 A 
ATOM      9  C   UNL     1       9.120   0.218  -1.522  1.00  0.00     0.051 A 
ATOM     10  C   UNL     1       7.475  -1.303  -2.334  1.00  0.00     0.166 A 
ATOM     11  C   UNL     1       8.796  -0.925  -2.247  1.00  0.00     0.165 A 
ATOM     12  O   UNL     1       7.415  -2.451  -3.095  1.00  0.00    -0.454 OA
ATOM     13  O   UNL     1       9.528  -1.858  -2.963  1.00  0.00    -0.454 OA
ATOM     14  C   UNL     1       8.703  -2.893  -3.442  1.00  0.00     0.468 C 
ENDBRANCH   5   6
ENDBRANCH   1   5
TORSDOF 3
ENDMDL
MODEL 2
REMARK VINA RESULT:      -7.0      1.602      5.567
REMARK SMILES CC(=O)CCc1ccc2c(c1)OCO2
REMARK SMILES IDX 4 1 2 2 1 3 3 4 5 5 6 6 7 7 11 8 8 9 10 10 9 11 12 12 14 13
REMARK SMILES IDX 13 14
REMARK H PARENT
REMARK Flexibility Score: inf
ROOT
ATOM      1  C   UNL     1       8.112  -2.637  -3.568  1.00  0.00     0.080 C 
ENDROOT
BRANCH   1   2
ATOM      2  C   UNL     1       9.252  -3.577  -3.379  1.00  0.00     0.130 C 
ATOM      3  C   UNL     1       9.039  -5.040  -3.213  1.00  0.00     0.087 C 
ATOM      4  O   UNL     1      10.402  -3.171  -3.356  1.00  0.00    -0.300 OA
ENDBRANCH   1   2
BRANCH   1   5
ATOM      5  C   UNL     1       8.463  -1.243  -3.085  1.00  0.00     0.043 C 
BRANCH   5   6
ATOM      6  C   UNL     1       7.710  -0.879  -1.872  1.00  0.00    -0.044 A 
ATOM      7  C   UNL     1       7.748  -1.673  -0.720  1.00  0.00     0.008 A 
ATOM      8  C   UNL     1       6.949   0.268  -1.860  1.00  0.00     0.054 A 
ATOM      9  C   UNL     1       7.021  -1.281   0.390  1.00  0.00     0.051 A 
ATOM     10  C   UNL     1       6.217   0.660  -0.735  1.00  0.00     0.166 A 
ATOM     11  C   UNL     1       6.253  -0.121   0.399  1.00  0.00     0.165 A 
ATOM     12  O   UNL     1       5.397   1.738  -0.477  1.00  0.00    -0.454 OA
ATOM     13  O   UNL     1       5.447   0.501   1.339  1.00  0.00    -0.454 OA
ATOM     14  C   UNL     1       4.957   1.729   0.857  1.00  0.00     0.468 C 
ENDBRANCH   5   6
ENDBRANCH   1   5
TORSDOF 3
ENDMDL
MODEL 3
REMARK VINA RESULT:      -7.0      2.733      3.692
REMARK SMILES CC(=O)CCc1ccc2c(c1)OCO2
REMARK SMILES IDX 4 1 2 2 1 3 3 4 5 5 6 6 7 7 11 8 8 9 10 10 9 11 12 12 14 13
REMARK SMILES IDX 13 14
REMARK H PARENT
REMARK Flexibility Score: inf
ROOT
ATOM      1  C   UNL     1       9.615   1.202   2.309  1.00  0.00     0.080 C 
ENDROOT
BRANCH   1   2
ATOM      2  C   UNL     1      11.037   0.760   2.368  1.00  0.00     0.130 C 
ATOM      3  C   UNL     1      12.044   1.476   3.196  1.00  0.00     0.087 C 
ATOM      4  O   UNL     1      11.418  -0.210   1.733  1.00  0.00    -0.300 OA
ENDBRANCH   1   2
BRANCH   1   5
ATOM      5  C   UNL     1       9.310   1.899   0.998  1.00  0.00     0.043 C 
BRANCH   5   6
ATOM      6  C   UNL     1       8.568   1.023   0.073  1.00  0.00    -0.044 A 
ATOM      7  C   UNL     1       7.169   0.970   0.077  1.00  0.00     0.008 A 
ATOM      8  C   UNL     1       9.257   0.236  -0.821  1.00  0.00     0.054 A 
ATOM      9  C   UNL     1       6.527   0.130  -0.814  1.00  0.00     0.051 A 
ATOM     10  C   UNL     1       8.603  -0.611  -1.720  1.00  0.00     0.166 A 
ATOM     11  C   UNL     1       7.227  -0.665  -1.717  1.00  0.00     0.165 A 
ATOM     12  O   UNL     1       9.055  -1.480  -2.692  1.00  0.00    -0.454 OA
ATOM     13  O   UNL     1       6.858  -1.573  -2.696  1.00  0.00    -0.454 OA
ATOM     14  C   UNL     1       7.982  -2.046  -3.400  1.00  0.00     0.468 C 
ENDBRANCH   5   6
ENDBRANCH   1   5
TORSDOF 3
ENDMDL
MODEL 4
REMARK VINA RESULT:      -6.9      1.248      1.660
REMARK SMILES CC(=O)CCc1ccc2c(c1)OCO2
REMARK SMILES IDX 4 1 2 2 1 3 3 4 5 5 6 6 7 7 11 8 8 9 10 10 9 11 12 12 14 13
REMARK SMILES IDX 13 14
REMARK H PARENT
REMARK Flexibility Score: inf
ROOT
ATOM      1  C   UNL     1       6.066  -0.266   1.582  1.00  0.00     0.080 C 
ENDROOT
BRANCH   1   2
ATOM      2  C   UNL     1       5.051   0.821   1.661  1.00  0.00     0.130 C 
ATOM      3  C   UNL     1       5.079   1.985   0.736  1.00  0.00     0.087 C 
ATOM      4  O   UNL     1       4.160   0.787   2.495  1.00  0.00    -0.300 OA
ENDBRANCH   1   2
BRANCH   1   5
ATOM      5  C   UNL     1       7.394   0.257   1.072  1.00  0.00     0.043 C 
BRANCH   5   6
ATOM      6  C   UNL     1       7.716  -0.278  -0.263  1.00  0.00    -0.044 A 
ATOM      7  C   UNL     1       7.828   0.557  -1.380  1.00  0.00     0.008 A 
ATOM      8  C   UNL     1       7.916  -1.630  -0.426  1.00  0.00     0.054 A 
ATOM      9  C   UNL     1       8.134  -0.002  -2.608  1.00  0.00     0.051 A 
ATOM     10  C   UNL     1       8.225  -2.190  -1.669  1.00  0.00     0.166 A 
ATOM     11  C   UNL     1       8.334  -1.369  -2.769  1.00  0.00     0.165 A 
ATOM     12  O   UNL     1       8.465  -3.483  -2.084  1.00  0.00    -0.454 OA
ATOM     13  O   UNL     1       8.644  -2.183  -3.848  1.00  0.00    -0.454 OA
ATOM     14  C   UNL     1       8.825  -3.518  -3.441  1.00  0.00     0.468 C 
ENDBRANCH   5   6
ENDBRANCH   1   5
TORSDOF 3
ENDMDL
MODEL 5
REMARK VINA RESULT:      -6.9      1.610      5.423
REMARK SMILES CC(=O)CCc1ccc2c(c1)OCO2
REMARK SMILES IDX 4 1 2 2 1 3 3 4 5 5 6 6 7 7 11 8 8 9 10 10 9 11 12 12 14 13
REMARK SMILES IDX 13 14
REMARK H PARENT
REMARK Flexibility Score: inf
ROOT
ATOM      1  C   UNL     1       8.105  -2.512  -3.610  1.00  0.00     0.080 C 
ENDROOT
BRANCH   1   2
ATOM      2  C   UNL     1       9.223  -3.476  -3.410  1.00  0.00     0.130 C 
ATOM      3  C   UNL     1       8.984  -4.941  -3.321  1.00  0.00     0.087 C 
ATOM      4  O   UNL     1      10.376  -3.087  -3.311  1.00  0.00    -0.300 OA
ENDBRANCH   1   2
BRANCH   1   5
ATOM      5  C   UNL     1       8.487  -1.121  -3.144  1.00  0.00     0.043 C 
BRANCH   5   6
ATOM      6  C   UNL     1       7.722  -0.715  -1.952  1.00  0.00    -0.044 A 
ATOM      7  C   UNL     1       6.860   0.388  -1.976  1.00  0.00     0.008 A 
ATOM      8  C   UNL     1       7.847  -1.431  -0.784  1.00  0.00     0.054 A 
ATOM      9  C   UNL     1       6.166   0.722  -0.827  1.00  0.00     0.051 A 
ATOM     10  C   UNL     1       7.143  -1.090   0.375  1.00  0.00     0.166 A 
ATOM     11  C   UNL     1       6.296  -0.004   0.353  1.00  0.00     0.165 A 
ATOM     12  O   UNL     1       7.097  -1.633   1.641  1.00  0.00    -0.454 OA
ATOM     13  O   UNL     1       5.741   0.097   1.619  1.00  0.00    -0.454 OA
ATOM     14  C   UNL     1       6.151  -0.970   2.440  1.00  0.00     0.468 C 
ENDBRANCH   5   6
ENDBRANCH   1   5
TORSDOF 3
ENDMDL
