@<TRIPOS>MOLECULE
/home/cewinharhar/GITHUB/reincatalyze/data/processed/docking_pred/2023-May-23-1437_sub9_nm5_bs15_s42_ex16_mel10_mts10000_k50_ec02_g099_lra3e-4_lrc1e-3/1e8ffecbec14ce573bf52adb8829230239be76a8_ligand_9.pdbqt
 14 15 0 0 0
SMALL
GASTEIGER

@<TRIPOS>ATOM
      1  C          5.6910    1.3310   -0.3030 C.3     1  UNL1        0.0800
      2  C          5.0570    1.2720    1.0440 C.2     1  UNL1        0.1300
      3  C          5.3590    0.1750    2.0020 C.3     1  UNL1        0.0870
      4  O          4.2640    2.1280    1.4010 O.2     1  UNL1       -0.3000
      5  C          7.1830    1.0740   -0.2200 C.3     1  UNL1        0.0430
      6  C          7.5490   -0.2160   -0.8300 C.2     1  UNL1       -0.0440
      7  C          7.5540   -0.3960   -2.2190 C.2     1  UNL1        0.0080
      8  C          7.9000   -1.2760   -0.0260 C.2     1  UNL1        0.0540
      9  C          7.9080   -1.6290   -2.7340 C.2     1  UNL1        0.0510
     10  C          8.2580   -2.5210   -0.5520 C.2     1  UNL1        0.1660
     11  C          8.2610   -2.6990   -1.9180 C.2     1  UNL1        0.1650
     12  O          8.6390   -3.7120    0.0280 O.2     1  UNL1       -0.4540
     13  O          8.6490   -4.0090   -2.1510 O.2     1  UNL1       -0.4540
     14  C          8.9860   -4.6600   -0.9490 C.3     1  UNL1        0.4680
@<TRIPOS>BOND
     1     9     7    1
     2     9    11    2
     3     7     6    2
     4    13    11    1
     5    13    14    1
     6    11    10    1
     7    14    12    1
     8     6     5    1
     9     6     8    1
    10    10     8    2
    11    10    12    1
    12     1     5    1
    13     1     2    1
    14     2     4    2
    15     2     3    1
