MODEL 1
REMARK VINA RESULT:      -7.7      0.000      0.000
REMARK SMILES CC(=O)CCc1ccc2c(c1)OCO2
REMARK SMILES IDX 4 1 2 2 1 3 3 4 5 5 6 6 7 7 11 8 8 9 10 10 9 11 12 12 14 13
REMARK SMILES IDX 13 14
REMARK H PARENT
REMARK Flexibility Score: inf
ROOT
ATOM      1  C   UNL     1       5.533   1.913   1.271  1.00  0.00     0.080 C 
ENDROOT
BRANCH   1   2
ATOM      2  C   UNL     1       5.120   0.689   2.014  1.00  0.00     0.130 C 
ATOM      3  C   UNL     1       6.032  -0.475   2.170  1.00  0.00     0.087 C 
ATOM      4  O   UNL     1       4.011   0.607   2.518  1.00  0.00    -0.300 OA
ENDBRANCH   1   2
BRANCH   1   5
ATOM      5  C   UNL     1       5.402   1.718  -0.226  1.00  0.00     0.043 C 
BRANCH   5   6
ATOM      6  C   UNL     1       6.571   1.019  -0.791  1.00  0.00    -0.044 A 
ATOM      7  C   UNL     1       7.877   1.453  -0.538  1.00  0.00     0.008 A 
ATOM      8  C   UNL     1       6.385  -0.089  -1.585  1.00  0.00     0.054 A 
ATOM      9  C   UNL     1       8.935   0.757  -1.094  1.00  0.00     0.051 A 
ATOM     10  C   UNL     1       7.457  -0.790  -2.144  1.00  0.00     0.166 A 
ATOM     11  C   UNL     1       8.743  -0.363  -1.897  1.00  0.00     0.165 A 
ATOM     12  O   UNL     1       7.533  -1.903  -2.955  1.00  0.00    -0.454 OA
ATOM     13  O   UNL     1       9.590  -1.232  -2.567  1.00  0.00    -0.454 OA
ATOM     14  C   UNL     1       8.868  -2.276  -3.176  1.00  0.00     0.468 C 
ENDBRANCH   5   6
ENDBRANCH   1   5
TORSDOF 3
ENDMDL
MODEL 2
REMARK VINA RESULT:      -7.5      1.933      2.377
REMARK SMILES CC(=O)CCc1ccc2c(c1)OCO2
REMARK SMILES IDX 4 1 2 2 1 3 3 4 5 5 6 6 7 7 11 8 8 9 10 10 9 11 12 12 14 13
REMARK SMILES IDX 13 14
REMARK H PARENT
REMARK Flexibility Score: inf
ROOT
ATOM      1  C   UNL     1       5.745   1.339  -0.242  1.00  0.00     0.080 C 
ENDROOT
BRANCH   1   2
ATOM      2  C   UNL     1       5.107   1.248   1.101  1.00  0.00     0.130 C 
ATOM      3  C   UNL     1       5.352   0.093   2.005  1.00  0.00     0.087 C 
ATOM      4  O   UNL     1       4.359   2.125   1.500  1.00  0.00    -0.300 OA
ENDBRANCH   1   2
BRANCH   1   5
ATOM      5  C   UNL     1       7.238   1.085  -0.161  1.00  0.00     0.043 C 
BRANCH   5   6
ATOM      6  C   UNL     1       7.610  -0.194  -0.793  1.00  0.00    -0.044 A 
ATOM      7  C   UNL     1       7.676  -0.331  -2.184  1.00  0.00     0.008 A 
ATOM      8  C   UNL     1       7.903  -1.284  -0.006  1.00  0.00     0.054 A 
ATOM      9  C   UNL     1       8.032  -1.555  -2.721  1.00  0.00     0.051 A 
ATOM     10  C   UNL     1       8.262  -2.519  -0.554  1.00  0.00     0.166 A 
ATOM     11  C   UNL     1       8.327  -2.656  -1.923  1.00  0.00     0.165 A 
ATOM     12  O   UNL     1       8.594  -3.735   0.006  1.00  0.00    -0.454 OA
ATOM     13  O   UNL     1       8.702  -3.965  -2.178  1.00  0.00    -0.454 OA
ATOM     14  C   UNL     1       8.970  -4.659  -0.983  1.00  0.00     0.468 C 
ENDBRANCH   5   6
ENDBRANCH   1   5
TORSDOF 3
ENDMDL
MODEL 3
REMARK VINA RESULT:      -7.2      2.050      2.623
REMARK SMILES CC(=O)CCc1ccc2c(c1)OCO2
REMARK SMILES IDX 4 1 2 2 1 3 3 4 5 5 6 6 7 7 11 8 8 9 10 10 9 11 12 12 14 13
REMARK SMILES IDX 13 14
REMARK H PARENT
REMARK Flexibility Score: inf
ROOT
ATOM      1  C   UNL     1       5.437  -0.050   1.993  1.00  0.00     0.080 C 
ENDROOT
BRANCH   1   2
ATOM      2  C   UNL     1       4.581   1.145   1.751  1.00  0.00     0.130 C 
ATOM      3  C   UNL     1       4.887   2.117   0.667  1.00  0.00     0.087 C 
ATOM      4  O   UNL     1       3.598   1.363   2.441  1.00  0.00    -0.300 OA
ENDBRANCH   1   2
BRANCH   1   5
ATOM      5  C   UNL     1       6.868   0.201   1.562  1.00  0.00     0.043 C 
BRANCH   5   6
ATOM      6  C   UNL     1       7.290  -0.730   0.501  1.00  0.00    -0.044 A 
ATOM      7  C   UNL     1       7.157  -0.406  -0.854  1.00  0.00     0.008 A 
ATOM      8  C   UNL     1       7.833  -1.949   0.839  1.00  0.00     0.054 A 
ATOM      9  C   UNL     1       7.571  -1.320  -1.806  1.00  0.00     0.051 A 
ATOM     10  C   UNL     1       8.251  -2.869  -0.128  1.00  0.00     0.166 A 
ATOM     11  C   UNL     1       8.118  -2.552  -1.461  1.00  0.00     0.165 A 
ATOM     12  O   UNL     1       8.811  -4.126  -0.048  1.00  0.00    -0.454 OA
ATOM     13  O   UNL     1       8.606  -3.631  -2.180  1.00  0.00    -0.454 OA
ATOM     14  C   UNL     1       9.139  -4.613  -1.324  1.00  0.00     0.468 C 
ENDBRANCH   5   6
ENDBRANCH   1   5
TORSDOF 3
ENDMDL
MODEL 4
REMARK VINA RESULT:      -7.1      1.248      1.453
REMARK SMILES CC(=O)CCc1ccc2c(c1)OCO2
REMARK SMILES IDX 4 1 2 2 1 3 3 4 5 5 6 6 7 7 11 8 8 9 10 10 9 11 12 12 14 13
REMARK SMILES IDX 13 14
REMARK H PARENT
REMARK Flexibility Score: inf
ROOT
ATOM      1  C   UNL     1       6.371   1.231   0.924  1.00  0.00     0.080 C 
ENDROOT
BRANCH   1   2
ATOM      2  C   UNL     1       5.660   0.402   1.936  1.00  0.00     0.130 C 
ATOM      3  C   UNL     1       6.282  -0.813   2.527  1.00  0.00     0.087 C 
ATOM      4  O   UNL     1       4.537   0.698   2.311  1.00  0.00    -0.300 OA
ENDBRANCH   1   2
BRANCH   1   5
ATOM      5  C   UNL     1       5.865   0.946  -0.476  1.00  0.00     0.043 C 
BRANCH   5   6
ATOM      6  C   UNL     1       6.814   0.117  -1.242  1.00  0.00    -0.044 A 
ATOM      7  C   UNL     1       7.503   0.626  -2.349  1.00  0.00     0.008 A 
ATOM      8  C   UNL     1       7.037  -1.188  -0.867  1.00  0.00     0.054 A 
ATOM      9  C   UNL     1       8.382  -0.198  -3.028  1.00  0.00     0.051 A 
ATOM     10  C   UNL     1       7.927  -2.017  -1.556  1.00  0.00     0.166 A 
ATOM     11  C   UNL     1       8.604  -1.518  -2.647  1.00  0.00     0.165 A 
ATOM     12  O   UNL     1       8.315  -3.328  -1.384  1.00  0.00    -0.454 OA
ATOM     13  O   UNL     1       9.404  -2.544  -3.126  1.00  0.00    -0.454 OA
ATOM     14  C   UNL     1       9.319  -3.681  -2.300  1.00  0.00     0.468 C 
ENDBRANCH   5   6
ENDBRANCH   1   5
TORSDOF 3
ENDMDL
MODEL 5
REMARK VINA RESULT:      -6.9      1.987      2.560
REMARK SMILES CC(=O)CCc1ccc2c(c1)OCO2
REMARK SMILES IDX 4 1 2 2 1 3 3 4 5 5 6 6 7 7 11 8 8 9 10 10 9 11 12 12 14 13
REMARK SMILES IDX 13 14
REMARK H PARENT
REMARK Flexibility Score: inf
ROOT
ATOM      1  C   UNL     1       7.038   1.034   1.237  1.00  0.00     0.080 C 
ENDROOT
BRANCH   1   2
ATOM      2  C   UNL     1       5.576   1.160   1.495  1.00  0.00     0.130 C 
ATOM      3  C   UNL     1       4.737   2.148   0.767  1.00  0.00     0.087 C 
ATOM      4  O   UNL     1       5.022   0.451   2.320  1.00  0.00    -0.300 OA
ENDBRANCH   1   2
BRANCH   1   5
ATOM      5  C   UNL     1       7.344   1.122  -0.245  1.00  0.00     0.043 C 
BRANCH   5   6
ATOM      6  C   UNL     1       7.640  -0.202  -0.822  1.00  0.00    -0.044 A 
ATOM      7  C   UNL     1       7.554  -0.437  -2.199  1.00  0.00     0.008 A 
ATOM      8  C   UNL     1       8.012  -1.238   0.004  1.00  0.00     0.054 A 
ATOM      9  C   UNL     1       7.844  -1.699  -2.683  1.00  0.00     0.051 A 
ATOM     10  C   UNL     1       8.305  -2.512  -0.491  1.00  0.00     0.166 A 
ATOM     11  C   UNL     1       8.220  -2.745  -1.846  1.00  0.00     0.165 A 
ATOM     12  O   UNL     1       8.691  -3.689   0.114  1.00  0.00    -0.454 OA
ATOM     13  O   UNL     1       8.560  -4.074  -2.046  1.00  0.00    -0.454 OA
ATOM     14  C   UNL     1       8.953  -4.685  -0.841  1.00  0.00     0.468 C 
ENDBRANCH   5   6
ENDBRANCH   1   5
TORSDOF 3
ENDMDL
