@<TRIPOS>MOLECULE
/home/cewinharhar/GITHUB/reincatalyze/data/processed/docking_pred/2023-May-23-1437_sub9_nm5_bs15_s42_ex16_mel10_mts10000_k50_ec02_g099_lra3e-4_lrc1e-3/1f3204452a604bf2b5a1468570937d609aafa137_ligand_9.pdbqt
 14 15 0 0 0
SMALL
GASTEIGER

@<TRIPOS>ATOM
      1  C          5.5420    1.9080    1.2750 C.3     1  UNL1        0.0800
      2  C          5.1160    0.6850    2.0120 C.2     1  UNL1        0.1300
      3  C          6.0230   -0.4830    2.1740 C.3     1  UNL1        0.0870
      4  O          4.0030    0.6060    2.5050 O.2     1  UNL1       -0.3000
      5  C          5.4120    1.7210   -0.2230 C.3     1  UNL1        0.0430
      6  C          6.5780    1.0190   -0.7890 C.2     1  UNL1       -0.0440
      7  C          7.8860    1.4470   -0.5330 C.2     1  UNL1        0.0080
      8  C          6.3880   -0.0850   -1.5870 C.2     1  UNL1        0.0540
      9  C          8.9420    0.7480   -1.0910 C.2     1  UNL1        0.0510
     10  C          7.4580   -0.7890   -2.1480 C.2     1  UNL1        0.1660
     11  C          8.7460   -0.3680   -1.8980 C.2     1  UNL1        0.1650
     12  O          7.5300   -1.8990   -2.9630 O.2     1  UNL1       -0.4540
     13  O          9.5890   -1.2380   -2.5710 O.2     1  UNL1       -0.4540
     14  C          8.8640   -2.2770   -3.1840 C.3     1  UNL1        0.4680
@<TRIPOS>BOND
     1    14    12    1
     2    14    13    1
     3    12    10    1
     4    13    11    1
     5    10    11    2
     6    10     8    1
     7    11     9    1
     8     8     6    2
     9     9     7    2
    10     6     7    1
    11     6     5    1
    12     5     1    1
    13     1     2    1
    14     2     3    1
    15     2     4    2
