MODEL 1
REMARK VINA RESULT:      -7.6      0.000      0.000
REMARK SMILES CC(=O)CCc1ccc2c(c1)OCO2
REMARK SMILES IDX 4 1 2 2 1 3 3 4 5 5 6 6 7 7 11 8 8 9 10 10 9 11 12 12 14 13
REMARK SMILES IDX 13 14
REMARK H PARENT
REMARK Flexibility Score: inf
ROOT
ATOM      1  C   UNL     1       5.542   1.908   1.275  1.00  0.00     0.080 C 
ENDROOT
BRANCH   1   2
ATOM      2  C   UNL     1       5.116   0.685   2.012  1.00  0.00     0.130 C 
ATOM      3  C   UNL     1       6.023  -0.483   2.174  1.00  0.00     0.087 C 
ATOM      4  O   UNL     1       4.003   0.606   2.505  1.00  0.00    -0.300 OA
ENDBRANCH   1   2
BRANCH   1   5
ATOM      5  C   UNL     1       5.412   1.721  -0.223  1.00  0.00     0.043 C 
BRANCH   5   6
ATOM      6  C   UNL     1       6.578   1.019  -0.789  1.00  0.00    -0.044 A 
ATOM      7  C   UNL     1       7.886   1.447  -0.533  1.00  0.00     0.008 A 
ATOM      8  C   UNL     1       6.388  -0.085  -1.587  1.00  0.00     0.054 A 
ATOM      9  C   UNL     1       8.942   0.748  -1.091  1.00  0.00     0.051 A 
ATOM     10  C   UNL     1       7.458  -0.789  -2.148  1.00  0.00     0.166 A 
ATOM     11  C   UNL     1       8.746  -0.368  -1.898  1.00  0.00     0.165 A 
ATOM     12  O   UNL     1       7.530  -1.899  -2.963  1.00  0.00    -0.454 OA
ATOM     13  O   UNL     1       9.589  -1.238  -2.571  1.00  0.00    -0.454 OA
ATOM     14  C   UNL     1       8.864  -2.277  -3.184  1.00  0.00     0.468 C 
ENDBRANCH   5   6
ENDBRANCH   1   5
TORSDOF 3
ENDMDL
MODEL 2
REMARK VINA RESULT:      -7.4      1.953      2.439
REMARK SMILES CC(=O)CCc1ccc2c(c1)OCO2
REMARK SMILES IDX 4 1 2 2 1 3 3 4 5 5 6 6 7 7 11 8 8 9 10 10 9 11 12 12 14 13
REMARK SMILES IDX 13 14
REMARK H PARENT
REMARK Flexibility Score: inf
ROOT
ATOM      1  C   UNL     1       5.756   1.180  -0.307  1.00  0.00     0.080 C 
ENDROOT
BRANCH   1   2
ATOM      2  C   UNL     1       5.244   1.174   1.092  1.00  0.00     0.130 C 
ATOM      3  C   UNL     1       5.402  -0.011   1.976  1.00  0.00     0.087 C 
ATOM      4  O   UNL     1       4.676   2.150   1.556  1.00  0.00    -0.300 OA
ENDBRANCH   1   2
BRANCH   1   5
ATOM      5  C   UNL     1       7.263   1.017  -0.343  1.00  0.00     0.043 C 
BRANCH   5   6
ATOM      6  C   UNL     1       7.659  -0.274  -0.931  1.00  0.00    -0.044 A 
ATOM      7  C   UNL     1       7.762  -0.448  -2.316  1.00  0.00     0.008 A 
ATOM      8  C   UNL     1       7.938  -1.342  -0.108  1.00  0.00     0.054 A 
ATOM      9  C   UNL     1       8.139  -1.683  -2.811  1.00  0.00     0.051 A 
ATOM     10  C   UNL     1       8.320  -2.588  -0.614  1.00  0.00     0.166 A 
ATOM     11  C   UNL     1       8.420  -2.760  -1.977  1.00  0.00     0.165 A 
ATOM     12  O   UNL     1       8.645  -3.786  -0.014  1.00  0.00    -0.454 OA
ATOM     13  O   UNL     1       8.811  -4.074  -2.187  1.00  0.00    -0.454 OA
ATOM     14  C   UNL     1       9.052  -4.734  -0.967  1.00  0.00     0.468 C 
ENDBRANCH   5   6
ENDBRANCH   1   5
TORSDOF 3
ENDMDL
MODEL 3
REMARK VINA RESULT:      -7.2      2.078      2.636
REMARK SMILES CC(=O)CCc1ccc2c(c1)OCO2
REMARK SMILES IDX 4 1 2 2 1 3 3 4 5 5 6 6 7 7 11 8 8 9 10 10 9 11 12 12 14 13
REMARK SMILES IDX 13 14
REMARK H PARENT
REMARK Flexibility Score: inf
ROOT
ATOM      1  C   UNL     1       5.484  -0.029   1.971  1.00  0.00     0.080 C 
ENDROOT
BRANCH   1   2
ATOM      2  C   UNL     1       4.618   1.152   1.701  1.00  0.00     0.130 C 
ATOM      3  C   UNL     1       4.916   2.104   0.598  1.00  0.00     0.087 C 
ATOM      4  O   UNL     1       3.630   1.373   2.383  1.00  0.00    -0.300 OA
ENDBRANCH   1   2
BRANCH   1   5
ATOM      5  C   UNL     1       6.910   0.220   1.519  1.00  0.00     0.043 C 
BRANCH   5   6
ATOM      6  C   UNL     1       7.324  -0.730   0.471  1.00  0.00    -0.044 A 
ATOM      7  C   UNL     1       7.200  -0.422  -0.889  1.00  0.00     0.008 A 
ATOM      8  C   UNL     1       7.850  -1.951   0.827  1.00  0.00     0.054 A 
ATOM      9  C   UNL     1       7.606  -1.353  -1.828  1.00  0.00     0.051 A 
ATOM     10  C   UNL     1       8.261  -2.889  -0.126  1.00  0.00     0.166 A 
ATOM     11  C   UNL     1       8.137  -2.587  -1.464  1.00  0.00     0.165 A 
ATOM     12  O   UNL     1       8.805  -4.151  -0.029  1.00  0.00    -0.454 OA
ATOM     13  O   UNL     1       8.615  -3.682  -2.168  1.00  0.00    -0.454 OA
ATOM     14  C   UNL     1       9.132  -4.659  -1.297  1.00  0.00     0.468 C 
ENDBRANCH   5   6
ENDBRANCH   1   5
TORSDOF 3
ENDMDL
MODEL 4
REMARK VINA RESULT:      -7.1      1.266      1.473
REMARK SMILES CC(=O)CCc1ccc2c(c1)OCO2
REMARK SMILES IDX 4 1 2 2 1 3 3 4 5 5 6 6 7 7 11 8 8 9 10 10 9 11 12 12 14 13
REMARK SMILES IDX 13 14
REMARK H PARENT
REMARK Flexibility Score: inf
ROOT
ATOM      1  C   UNL     1       6.379   1.178   0.977  1.00  0.00     0.080 C 
ENDROOT
BRANCH   1   2
ATOM      2  C   UNL     1       5.675   0.327   1.978  1.00  0.00     0.130 C 
ATOM      3  C   UNL     1       6.307  -0.894   2.546  1.00  0.00     0.087 C 
ATOM      4  O   UNL     1       4.552   0.610   2.362  1.00  0.00    -0.300 OA
ENDBRANCH   1   2
BRANCH   1   5
ATOM      5  C   UNL     1       5.864   0.918  -0.425  1.00  0.00     0.043 C 
BRANCH   5   6
ATOM      6  C   UNL     1       6.802   0.093  -1.207  1.00  0.00    -0.044 A 
ATOM      7  C   UNL     1       7.462   0.599  -2.332  1.00  0.00     0.008 A 
ATOM      8  C   UNL     1       7.044  -1.209  -0.828  1.00  0.00     0.054 A 
ATOM      9  C   UNL     1       8.332  -0.222  -3.026  1.00  0.00     0.051 A 
ATOM     10  C   UNL     1       7.925  -2.034  -1.533  1.00  0.00     0.166 A 
ATOM     11  C   UNL     1       8.574  -1.537  -2.641  1.00  0.00     0.165 A 
ATOM     12  O   UNL     1       8.327  -3.342  -1.362  1.00  0.00    -0.454 OA
ATOM     13  O   UNL     1       9.371  -2.560  -3.132  1.00  0.00    -0.454 OA
ATOM     14  C   UNL     1       9.314  -3.693  -2.298  1.00  0.00     0.468 C 
ENDBRANCH   5   6
ENDBRANCH   1   5
TORSDOF 3
ENDMDL
MODEL 5
REMARK VINA RESULT:      -6.9      1.970      2.574
REMARK SMILES CC(=O)CCc1ccc2c(c1)OCO2
REMARK SMILES IDX 4 1 2 2 1 3 3 4 5 5 6 6 7 7 11 8 8 9 10 10 9 11 12 12 14 13
REMARK SMILES IDX 13 14
REMARK H PARENT
REMARK Flexibility Score: inf
ROOT
ATOM      1  C   UNL     1       6.877   0.694   1.033  1.00  0.00     0.080 C 
ENDROOT
BRANCH   1   2
ATOM      2  C   UNL     1       5.485   1.048   1.427  1.00  0.00     0.130 C 
ATOM      3  C   UNL     1       4.741   2.150   0.761  1.00  0.00     0.087 C 
ATOM      4  O   UNL     1       4.912   0.439   2.316  1.00  0.00    -0.300 OA
ENDBRANCH   1   2
BRANCH   1   5
ATOM      5  C   UNL     1       7.065   0.791  -0.468  1.00  0.00     0.043 C 
BRANCH   5   6
ATOM      6  C   UNL     1       7.593  -0.463  -1.034  1.00  0.00    -0.044 A 
ATOM      7  C   UNL     1       7.916  -0.576  -2.392  1.00  0.00     0.008 A 
ATOM      8  C   UNL     1       7.779  -1.555  -0.218  1.00  0.00     0.054 A 
ATOM      9  C   UNL     1       8.409  -1.778  -2.867  1.00  0.00     0.051 A 
ATOM     10  C   UNL     1       8.278  -2.768  -0.703  1.00  0.00     0.166 A 
ATOM     11  C   UNL     1       8.595  -2.880  -2.038  1.00  0.00     0.165 A 
ATOM     12  O   UNL     1       8.548  -3.980  -0.104  1.00  0.00    -0.454 OA
ATOM     13  O   UNL     1       9.059  -4.172  -2.233  1.00  0.00    -0.454 OA
ATOM     14  C   UNL     1       9.131  -4.875  -1.016  1.00  0.00     0.468 C 
ENDBRANCH   5   6
ENDBRANCH   1   5
TORSDOF 3
ENDMDL
