@<TRIPOS>MOLECULE
/home/cewinharhar/GITHUB/reincatalyze/data/processed/docking_pred/2023-May-23-1437_sub9_nm5_bs15_s42_ex16_mel10_mts10000_k50_ec02_g099_lra3e-4_lrc1e-3/1f3204452a604bf2b5a1468570937d609aafa137_ligand_9.pdbqt
 14 15 0 0 0
SMALL
GASTEIGER

@<TRIPOS>ATOM
      1  C          6.3790    1.1780    0.9770 C.3     1  UNL1        0.0800
      2  C          5.6750    0.3270    1.9780 C.2     1  UNL1        0.1300
      3  C          6.3070   -0.8940    2.5460 C.3     1  UNL1        0.0870
      4  O          4.5520    0.6100    2.3620 O.2     1  UNL1       -0.3000
      5  C          5.8640    0.9180   -0.4250 C.3     1  UNL1        0.0430
      6  C          6.8020    0.0930   -1.2070 C.2     1  UNL1       -0.0440
      7  C          7.4620    0.5990   -2.3320 C.2     1  UNL1        0.0080
      8  C          7.0440   -1.2090   -0.8280 C.2     1  UNL1        0.0540
      9  C          8.3320   -0.2220   -3.0260 C.2     1  UNL1        0.0510
     10  C          7.9250   -2.0340   -1.5330 C.2     1  UNL1        0.1660
     11  C          8.5740   -1.5370   -2.6410 C.2     1  UNL1        0.1650
     12  O          8.3270   -3.3420   -1.3620 O.2     1  UNL1       -0.4540
     13  O          9.3710   -2.5600   -3.1320 O.2     1  UNL1       -0.4540
     14  C          9.3140   -3.6930   -2.2980 C.3     1  UNL1        0.4680
@<TRIPOS>BOND
     1    13    11    1
     2    13    14    1
     3     9    11    2
     4     9     7    1
     5    11    10    1
     6     7     6    2
     7    14    12    1
     8    10    12    1
     9    10     8    2
    10     6     8    1
    11     6     5    1
    12     5     1    1
    13     1     2    1
    14     2     4    2
    15     2     3    1
