@<TRIPOS>MOLECULE
/home/cewinharhar/GITHUB/reincatalyze/data/processed/docking_pred/2023-May-23-1437_sub9_nm5_bs15_s42_ex16_mel10_mts10000_k50_ec02_g099_lra3e-4_lrc1e-3/1f3204452a604bf2b5a1468570937d609aafa137_ligand_9.pdbqt
 14 15 0 0 0
SMALL
GASTEIGER

@<TRIPOS>ATOM
      1  C          6.8770    0.6940    1.0330 C.3     1  UNL1        0.0800
      2  C          5.4850    1.0480    1.4270 C.2     1  UNL1        0.1300
      3  C          4.7410    2.1500    0.7610 C.3     1  UNL1        0.0870
      4  O          4.9120    0.4390    2.3160 O.2     1  UNL1       -0.3000
      5  C          7.0650    0.7910   -0.4680 C.3     1  UNL1        0.0430
      6  C          7.5930   -0.4630   -1.0340 C.2     1  UNL1       -0.0440
      7  C          7.9160   -0.5760   -2.3920 C.2     1  UNL1        0.0080
      8  C          7.7790   -1.5550   -0.2180 C.2     1  UNL1        0.0540
      9  C          8.4090   -1.7780   -2.8670 C.2     1  UNL1        0.0510
     10  C          8.2780   -2.7680   -0.7030 C.2     1  UNL1        0.1660
     11  C          8.5950   -2.8800   -2.0380 C.2     1  UNL1        0.1650
     12  O          8.5480   -3.9800   -0.1040 O.2     1  UNL1       -0.4540
     13  O          9.0590   -4.1720   -2.2330 O.2     1  UNL1       -0.4540
     14  C          9.1310   -4.8750   -1.0160 C.3     1  UNL1        0.4680
@<TRIPOS>BOND
     1     9     7    1
     2     9    11    2
     3     7     6    2
     4    13    11    1
     5    13    14    1
     6    11    10    1
     7     6     5    1
     8     6     8    1
     9    14    12    1
    10    10     8    2
    11    10    12    1
    12     5     1    1
    13     3     2    1
    14     1     2    1
    15     2     4    2
