@<TRIPOS>MOLECULE
/home/cewinharhar/GITHUB/reincatalyze/data/processed/docking_pred/2023-May-23-1437_sub9_nm5_bs15_s42_ex16_mel10_mts10000_k50_ec02_g099_lra3e-4_lrc1e-3/1f774135605f6656ff2aa9e322f53f2a679c664c_ligand_9.pdbqt
 14 15 0 0 0
SMALL
GASTEIGER

@<TRIPOS>ATOM
      1  C          5.7450    1.3390   -0.2420 C.3     1  UNL1        0.0800
      2  C          5.1070    1.2480    1.1010 C.2     1  UNL1        0.1300
      3  C          5.3520    0.0930    2.0050 C.3     1  UNL1        0.0870
      4  O          4.3590    2.1250    1.5000 O.2     1  UNL1       -0.3000
      5  C          7.2380    1.0850   -0.1610 C.3     1  UNL1        0.0430
      6  C          7.6100   -0.1940   -0.7930 C.2     1  UNL1       -0.0440
      7  C          7.6760   -0.3310   -2.1840 C.2     1  UNL1        0.0080
      8  C          7.9030   -1.2840   -0.0060 C.2     1  UNL1        0.0540
      9  C          8.0320   -1.5550   -2.7210 C.2     1  UNL1        0.0510
     10  C          8.2620   -2.5190   -0.5540 C.2     1  UNL1        0.1660
     11  C          8.3270   -2.6560   -1.9230 C.2     1  UNL1        0.1650
     12  O          8.5940   -3.7350    0.0060 O.2     1  UNL1       -0.4540
     13  O          8.7020   -3.9650   -2.1780 O.2     1  UNL1       -0.4540
     14  C          8.9700   -4.6590   -0.9830 C.3     1  UNL1        0.4680
@<TRIPOS>BOND
     1     9     7    1
     2     9    11    2
     3     7     6    2
     4    13    11    1
     5    13    14    1
     6    11    10    1
     7    14    12    1
     8     6     5    1
     9     6     8    1
    10    10     8    2
    11    10    12    1
    12     1     5    1
    13     1     2    1
    14     2     4    2
    15     2     3    1
