@<TRIPOS>MOLECULE
/home/cewinharhar/GITHUB/reincatalyze/data/processed/docking_pred/2023-May-23-1437_sub9_nm5_bs15_s42_ex16_mel10_mts10000_k50_ec02_g099_lra3e-4_lrc1e-3/1fd5ec6d4a6889d2560636754963a08404c0587d_ligand_9.pdbqt
 14 15 0 0 0
SMALL
GASTEIGER

@<TRIPOS>ATOM
      1  C          5.7270    1.3670   -0.2570 C.3     1  UNL1        0.0800
      2  C          5.0780    1.2590    1.0790 C.2     1  UNL1        0.1300
      3  C          5.3480    0.1130    1.9880 C.3     1  UNL1        0.0870
      4  O          4.3000    2.1150    1.4690 O.2     1  UNL1       -0.3000
      5  C          7.2180    1.1110   -0.1670 C.3     1  UNL1        0.0430
      6  C          7.5920   -0.1680   -0.7960 C.2     1  UNL1       -0.0440
      7  C          7.6610   -0.3090   -2.1870 C.2     1  UNL1        0.0080
      8  C          7.8860   -1.2560   -0.0060 C.2     1  UNL1        0.0540
      9  C          8.0180   -1.5340   -2.7210 C.2     1  UNL1        0.0510
     10  C          8.2480   -2.4920   -0.5510 C.2     1  UNL1        0.1660
     11  C          8.3140   -2.6320   -1.9190 C.2     1  UNL1        0.1650
     12  O          8.5800   -3.7060    0.0120 O.2     1  UNL1       -0.4540
     13  O          8.6910   -3.9420   -2.1710 O.2     1  UNL1       -0.4540
     14  C          8.9580   -4.6320   -0.9740 C.3     1  UNL1        0.4680
@<TRIPOS>BOND
     1     9     7    1
     2     9    11    2
     3     7     6    2
     4    13    11    1
     5    13    14    1
     6    11    10    1
     7    14    12    1
     8     6     5    1
     9     6     8    1
    10    10     8    2
    11    10    12    1
    12     1     5    1
    13     1     2    1
    14     2     4    2
    15     2     3    1
