@<TRIPOS>MOLECULE
/home/cewinharhar/GITHUB/reincatalyze/data/processed/docking_pred/2023-May-23-1437_sub9_nm5_bs15_s42_ex16_mel10_mts10000_k50_ec02_g099_lra3e-4_lrc1e-3/1fd5ec6d4a6889d2560636754963a08404c0587d_ligand_9.pdbqt
 14 15 0 0 0
SMALL
GASTEIGER

@<TRIPOS>ATOM
      1  C          8.3320    0.1890   -2.6710 C.3     1  UNL1        0.0800
      2  C          8.0460   -1.2700   -2.7590 C.2     1  UNL1        0.1300
      3  C          9.1250   -2.2630   -3.0120 C.3     1  UNL1        0.0870
      4  O          6.9100   -1.6960   -2.6250 O.2     1  UNL1       -0.3000
      5  C          8.8590    0.5650   -1.3000 C.3     1  UNL1        0.0430
      6  C          7.8270    0.4160   -0.2580 C.2     1  UNL1       -0.0440
      7  C          7.9350   -0.5510    0.7480 C.2     1  UNL1        0.0080
      8  C          6.7290    1.2450   -0.2630 C.2     1  UNL1        0.0540
      9  C          6.9360   -0.6430    1.7000 C.2     1  UNL1        0.0510
     10  C          5.7220    1.1490    0.7020 C.2     1  UNL1        0.1660
     11  C          5.8260    0.1960    1.6910 C.2     1  UNL1        0.1650
     12  O          4.5490    1.8440    0.9100 O.2     1  UNL1       -0.4540
     13  O          4.7040    0.3280    2.4950 O.2     1  UNL1       -0.4540
     14  C          3.9140    1.4200    2.0890 C.3     1  UNL1        0.4680
@<TRIPOS>BOND
     1     3     2    1
     2     2     1    1
     3     2     4    2
     4     1     5    1
     5     5     6    1
     6     8     6    2
     7     8    10    1
     8     6     7    1
     9    10    12    1
    10    10    11    2
    11     7     9    2
    12    12    14    1
    13    11     9    1
    14    11    13    1
    15    14    13    1
