@<TRIPOS>MOLECULE
/home/cewinharhar/GITHUB/reincatalyze/data/processed/docking_pred/2023-May-23-1437_sub9_nm5_bs15_s42_ex16_mel10_mts10000_k50_ec02_g099_lra3e-4_lrc1e-3/1fd5ec6d4a6889d2560636754963a08404c0587d_ligand_9.pdbqt
 14 15 0 0 0
SMALL
GASTEIGER

@<TRIPOS>ATOM
      1  C          5.4960    1.9340    1.2430 C.3     1  UNL1        0.0800
      2  C          5.0630    0.7220    1.9930 C.2     1  UNL1        0.1300
      3  C          5.9550   -0.4580    2.1530 C.3     1  UNL1        0.0870
      4  O          3.9550    0.6620    2.5020 O.2     1  UNL1       -0.3000
      5  C          5.3760    1.7270   -0.2540 C.3     1  UNL1        0.0430
      6  C          6.5500    1.0270   -0.8050 C.2     1  UNL1       -0.0440
      7  C          7.8540    1.4600   -0.5370 C.2     1  UNL1        0.0080
      8  C          6.3720   -0.0810   -1.6020 C.2     1  UNL1        0.0540
      9  C          8.9170    0.7630   -1.0810 C.2     1  UNL1        0.0510
     10  C          7.4500   -0.7830   -2.1490 C.2     1  UNL1        0.1660
     11  C          8.7340   -0.3570   -1.8870 C.2     1  UNL1        0.1650
     12  O          7.5340   -1.8950   -2.9590 O.2     1  UNL1       -0.4540
     13  O          9.5870   -1.2260   -2.5470 O.2     1  UNL1       -0.4540
     14  C          8.8720   -2.2690   -3.1650 C.3     1  UNL1        0.4680
@<TRIPOS>BOND
     1    14    12    1
     2    14    13    1
     3    12    10    1
     4    13    11    1
     5    10    11    2
     6    10     8    1
     7    11     9    1
     8     8     6    2
     9     9     7    2
    10     6     7    1
    11     6     5    1
    12     5     1    1
    13     1     2    1
    14     2     3    1
    15     2     4    2
