@<TRIPOS>MOLECULE
/home/cewinharhar/GITHUB/reincatalyze/data/processed/docking_pred/2023-May-23-1437_sub9_nm5_bs15_s42_ex16_mel10_mts10000_k50_ec02_g099_lra3e-4_lrc1e-3/2037f81c995398ea407fbfc0a5ecaefc5001139a_ligand_9.pdbqt
 14 15 0 0 0
SMALL
GASTEIGER

@<TRIPOS>ATOM
      1  C          6.3300    1.2590    0.9090 C.3     1  UNL1        0.0800
      2  C          5.6370    0.4200    1.9250 C.2     1  UNL1        0.1300
      3  C          6.2800   -0.7850    2.5130 C.3     1  UNL1        0.0870
      4  O          4.5120    0.7000    2.3070 O.2     1  UNL1       -0.3000
      5  C          5.8300    0.9570   -0.4900 C.3     1  UNL1        0.0430
      6  C          6.7880    0.1320   -1.2470 C.2     1  UNL1       -0.0440
      7  C          7.4960    0.6470   -2.3390 C.2     1  UNL1        0.0080
      8  C          7.0030   -1.1760   -0.8780 C.2     1  UNL1        0.0540
      9  C          8.3830   -0.1730   -3.0110 C.2     1  UNL1        0.0510
     10  C          7.9010   -2.0020   -1.5600 C.2     1  UNL1        0.1660
     11  C          8.5970   -1.4960   -2.6360 C.2     1  UNL1        0.1650
     12  O          8.2840   -3.3160   -1.3920 O.2     1  UNL1       -0.4540
     13  O          9.4010   -2.5210   -3.1100 O.2     1  UNL1       -0.4540
     14  C          9.3020   -3.6640   -2.2950 C.3     1  UNL1        0.4680
@<TRIPOS>BOND
     1    13    11    1
     2    13    14    1
     3     9    11    2
     4     9     7    1
     5    11    10    1
     6     7     6    2
     7    14    12    1
     8    10    12    1
     9    10     8    2
    10     6     8    1
    11     6     5    1
    12     5     1    1
    13     1     2    1
    14     2     4    2
    15     2     3    1
