MODEL 1
REMARK VINA RESULT:      -7.7      0.000      0.000
REMARK SMILES CC(=O)CCc1ccc2c(c1)OCO2
REMARK SMILES IDX 4 1 2 2 1 3 3 4 5 5 6 6 7 7 11 8 8 9 10 10 9 11 12 12 14 13
REMARK SMILES IDX 13 14
REMARK H PARENT
REMARK Flexibility Score: inf
ROOT
ATOM      1  C   UNL     1       5.518   1.889   1.290  1.00  0.00     0.080 C 
ENDROOT
BRANCH   1   2
ATOM      2  C   UNL     1       5.076   0.667   2.016  1.00  0.00     0.130 C 
ATOM      3  C   UNL     1       5.963  -0.519   2.161  1.00  0.00     0.087 C 
ATOM      4  O   UNL     1       3.965   0.602   2.517  1.00  0.00    -0.300 OA
ENDBRANCH   1   2
BRANCH   1   5
ATOM      5  C   UNL     1       5.390   1.715  -0.211  1.00  0.00     0.043 C 
BRANCH   5   6
ATOM      6  C   UNL     1       6.557   1.018  -0.781  1.00  0.00    -0.044 A 
ATOM      7  C   UNL     1       7.864   1.453  -0.532  1.00  0.00     0.008 A 
ATOM      8  C   UNL     1       6.369  -0.089  -1.576  1.00  0.00     0.054 A 
ATOM      9  C   UNL     1       8.921   0.759  -1.094  1.00  0.00     0.051 A 
ATOM     10  C   UNL     1       7.441  -0.788  -2.141  1.00  0.00     0.166 A 
ATOM     11  C   UNL     1       8.727  -0.360  -1.898  1.00  0.00     0.165 A 
ATOM     12  O   UNL     1       7.514  -1.899  -2.954  1.00  0.00    -0.454 OA
ATOM     13  O   UNL     1       9.572  -1.226  -2.573  1.00  0.00    -0.454 OA
ATOM     14  C   UNL     1       8.849  -2.270  -3.181  1.00  0.00     0.468 C 
ENDBRANCH   5   6
ENDBRANCH   1   5
TORSDOF 3
ENDMDL
MODEL 2
REMARK VINA RESULT:      -7.5      1.934      2.389
REMARK SMILES CC(=O)CCc1ccc2c(c1)OCO2
REMARK SMILES IDX 4 1 2 2 1 3 3 4 5 5 6 6 7 7 11 8 8 9 10 10 9 11 12 12 14 13
REMARK SMILES IDX 13 14
REMARK H PARENT
REMARK Flexibility Score: inf
ROOT
ATOM      1  C   UNL     1       5.745   1.372  -0.317  1.00  0.00     0.080 C 
ENDROOT
BRANCH   1   2
ATOM      2  C   UNL     1       5.100   1.290   1.023  1.00  0.00     0.130 C 
ATOM      3  C   UNL     1       5.381   0.167   1.958  1.00  0.00     0.087 C 
ATOM      4  O   UNL     1       4.317   2.149   1.395  1.00  0.00    -0.300 OA
ENDBRANCH   1   2
BRANCH   1   5
ATOM      5  C   UNL     1       7.237   1.119  -0.227  1.00  0.00     0.043 C 
BRANCH   5   6
ATOM      6  C   UNL     1       7.611  -0.169  -0.837  1.00  0.00    -0.044 A 
ATOM      7  C   UNL     1       7.692  -0.327  -2.225  1.00  0.00     0.008 A 
ATOM      8  C   UNL     1       7.892  -1.250  -0.032  1.00  0.00     0.054 A 
ATOM      9  C   UNL     1       8.049  -1.559  -2.741  1.00  0.00     0.051 A 
ATOM     10  C   UNL     1       8.253  -2.494  -0.558  1.00  0.00     0.166 A 
ATOM     11  C   UNL     1       8.332  -2.650  -1.924  1.00  0.00     0.165 A 
ATOM     12  O   UNL     1       8.574  -3.702   0.022  1.00  0.00    -0.454 OA
ATOM     13  O   UNL     1       8.705  -3.964  -2.157  1.00  0.00    -0.454 OA
ATOM     14  C   UNL     1       8.958  -4.642  -0.949  1.00  0.00     0.468 C 
ENDBRANCH   5   6
ENDBRANCH   1   5
TORSDOF 3
ENDMDL
MODEL 3
REMARK VINA RESULT:      -7.2      2.046      2.613
REMARK SMILES CC(=O)CCc1ccc2c(c1)OCO2
REMARK SMILES IDX 4 1 2 2 1 3 3 4 5 5 6 6 7 7 11 8 8 9 10 10 9 11 12 12 14 13
REMARK SMILES IDX 13 14
REMARK H PARENT
REMARK Flexibility Score: inf
ROOT
ATOM      1  C   UNL     1       5.409  -0.056   2.015  1.00  0.00     0.080 C 
ENDROOT
BRANCH   1   2
ATOM      2  C   UNL     1       4.564   1.146   1.769  1.00  0.00     0.130 C 
ATOM      3  C   UNL     1       4.903   2.136   0.712  1.00  0.00     0.087 C 
ATOM      4  O   UNL     1       3.562   1.354   2.434  1.00  0.00    -0.300 OA
ENDBRANCH   1   2
BRANCH   1   5
ATOM      5  C   UNL     1       6.848   0.190   1.608  1.00  0.00     0.043 C 
BRANCH   5   6
ATOM      6  C   UNL     1       7.277  -0.726   0.536  1.00  0.00    -0.044 A 
ATOM      7  C   UNL     1       7.158  -0.380  -0.815  1.00  0.00     0.008 A 
ATOM      8  C   UNL     1       7.812  -1.952   0.860  1.00  0.00     0.054 A 
ATOM      9  C   UNL     1       7.579  -1.280  -1.777  1.00  0.00     0.051 A 
ATOM     10  C   UNL     1       8.236  -2.858  -0.116  1.00  0.00     0.166 A 
ATOM     11  C   UNL     1       8.118  -2.519  -1.446  1.00  0.00     0.165 A 
ATOM     12  O   UNL     1       8.791  -4.118  -0.051  1.00  0.00    -0.454 OA
ATOM     13  O   UNL     1       8.610  -3.590  -2.177  1.00  0.00    -0.454 OA
ATOM     14  C   UNL     1       9.130  -4.587  -1.331  1.00  0.00     0.468 C 
ENDBRANCH   5   6
ENDBRANCH   1   5
TORSDOF 3
ENDMDL
MODEL 4
REMARK VINA RESULT:      -7.1      1.241      1.437
REMARK SMILES CC(=O)CCc1ccc2c(c1)OCO2
REMARK SMILES IDX 4 1 2 2 1 3 3 4 5 5 6 6 7 7 11 8 8 9 10 10 9 11 12 12 14 13
REMARK SMILES IDX 13 14
REMARK H PARENT
REMARK Flexibility Score: inf
ROOT
ATOM      1  C   UNL     1       6.330   1.259   0.909  1.00  0.00     0.080 C 
ENDROOT
BRANCH   1   2
ATOM      2  C   UNL     1       5.637   0.420   1.925  1.00  0.00     0.130 C 
ATOM      3  C   UNL     1       6.280  -0.785   2.513  1.00  0.00     0.087 C 
ATOM      4  O   UNL     1       4.512   0.700   2.307  1.00  0.00    -0.300 OA
ENDBRANCH   1   2
BRANCH   1   5
ATOM      5  C   UNL     1       5.830   0.957  -0.490  1.00  0.00     0.043 C 
BRANCH   5   6
ATOM      6  C   UNL     1       6.788   0.132  -1.247  1.00  0.00    -0.044 A 
ATOM      7  C   UNL     1       7.496   0.647  -2.339  1.00  0.00     0.008 A 
ATOM      8  C   UNL     1       7.003  -1.176  -0.878  1.00  0.00     0.054 A 
ATOM      9  C   UNL     1       8.383  -0.173  -3.011  1.00  0.00     0.051 A 
ATOM     10  C   UNL     1       7.901  -2.002  -1.560  1.00  0.00     0.166 A 
ATOM     11  C   UNL     1       8.597  -1.496  -2.636  1.00  0.00     0.165 A 
ATOM     12  O   UNL     1       8.284  -3.316  -1.392  1.00  0.00    -0.454 OA
ATOM     13  O   UNL     1       9.401  -2.521  -3.110  1.00  0.00    -0.454 OA
ATOM     14  C   UNL     1       9.302  -3.664  -2.295  1.00  0.00     0.468 C 
ENDBRANCH   5   6
ENDBRANCH   1   5
TORSDOF 3
ENDMDL
MODEL 5
REMARK VINA RESULT:      -6.8      1.197      5.178
REMARK SMILES CC(=O)CCc1ccc2c(c1)OCO2
REMARK SMILES IDX 4 1 2 2 1 3 3 4 5 5 6 6 7 7 11 8 8 9 10 10 9 11 12 12 14 13
REMARK SMILES IDX 13 14
REMARK H PARENT
REMARK Flexibility Score: inf
ROOT
ATOM      1  C   UNL     1       8.358   0.169  -2.648  1.00  0.00     0.080 C 
ENDROOT
BRANCH   1   2
ATOM      2  C   UNL     1       8.080  -1.289  -2.775  1.00  0.00     0.130 C 
ATOM      3  C   UNL     1       9.169  -2.273  -3.019  1.00  0.00     0.087 C 
ATOM      4  O   UNL     1       6.943  -1.720  -2.681  1.00  0.00    -0.300 OA
ENDBRANCH   1   2
BRANCH   1   5
ATOM      5  C   UNL     1       8.893   0.510  -1.271  1.00  0.00     0.043 C 
BRANCH   5   6
ATOM      6  C   UNL     1       7.853   0.380  -0.234  1.00  0.00    -0.044 A 
ATOM      7  C   UNL     1       7.950  -0.574   0.786  1.00  0.00     0.008 A 
ATOM      8  C   UNL     1       6.758   1.213  -0.258  1.00  0.00     0.054 A 
ATOM      9  C   UNL     1       6.945  -0.649   1.732  1.00  0.00     0.051 A 
ATOM     10  C   UNL     1       5.744   1.134   0.702  1.00  0.00     0.166 A 
ATOM     11  C   UNL     1       5.839   0.195   1.705  1.00  0.00     0.165 A 
ATOM     12  O   UNL     1       4.574   1.837   0.892  1.00  0.00    -0.454 OA
ATOM     13  O   UNL     1       4.712   0.343   2.499  1.00  0.00    -0.454 OA
ATOM     14  C   UNL     1       3.929   1.432   2.073  1.00  0.00     0.468 C 
ENDBRANCH   5   6
ENDBRANCH   1   5
TORSDOF 3
ENDMDL
