@<TRIPOS>MOLECULE
/home/cewinharhar/GITHUB/reincatalyze/data/processed/docking_pred/2023-May-23-1437_sub9_nm5_bs15_s42_ex16_mel10_mts10000_k50_ec02_g099_lra3e-4_lrc1e-3/2037f81c995398ea407fbfc0a5ecaefc5001139a_ligand_9.pdbqt
 14 15 0 0 0
SMALL
GASTEIGER

@<TRIPOS>ATOM
      1  C          5.4090   -0.0560    2.0150 C.3     1  UNL1        0.0800
      2  C          4.5640    1.1460    1.7690 C.2     1  UNL1        0.1300
      3  C          4.9030    2.1360    0.7120 C.3     1  UNL1        0.0870
      4  O          3.5620    1.3540    2.4340 O.2     1  UNL1       -0.3000
      5  C          6.8480    0.1900    1.6080 C.3     1  UNL1        0.0430
      6  C          7.2770   -0.7260    0.5360 C.2     1  UNL1       -0.0440
      7  C          7.1580   -0.3800   -0.8150 C.2     1  UNL1        0.0080
      8  C          7.8120   -1.9520    0.8600 C.2     1  UNL1        0.0540
      9  C          7.5790   -1.2800   -1.7770 C.2     1  UNL1        0.0510
     10  C          8.2360   -2.8580   -0.1160 C.2     1  UNL1        0.1660
     11  C          8.1180   -2.5190   -1.4460 C.2     1  UNL1        0.1650
     12  O          8.7910   -4.1180   -0.0510 O.2     1  UNL1       -0.4540
     13  O          8.6100   -3.5900   -2.1770 O.2     1  UNL1       -0.4540
     14  C          9.1300   -4.5870   -1.3310 C.3     1  UNL1        0.4680
@<TRIPOS>BOND
     1    13    11    1
     2    13    14    1
     3     9    11    2
     4     9     7    1
     5    11    10    1
     6    14    12    1
     7     7     6    2
     8    10    12    1
     9    10     8    2
    10     6     8    1
    11     6     5    1
    12     3     2    1
    13     5     1    1
    14     2     1    1
    15     2     4    2
