@<TRIPOS>MOLECULE
/home/cewinharhar/GITHUB/reincatalyze/data/processed/docking_pred/2023-May-23-1437_sub9_nm5_bs15_s42_ex16_mel10_mts10000_k50_ec02_g099_lra3e-4_lrc1e-3/2037f81c995398ea407fbfc0a5ecaefc5001139a_ligand_9.pdbqt
 14 15 0 0 0
SMALL
GASTEIGER

@<TRIPOS>ATOM
      1  C          8.3580    0.1690   -2.6480 C.3     1  UNL1        0.0800
      2  C          8.0800   -1.2890   -2.7750 C.2     1  UNL1        0.1300
      3  C          9.1690   -2.2730   -3.0190 C.3     1  UNL1        0.0870
      4  O          6.9430   -1.7200   -2.6810 O.2     1  UNL1       -0.3000
      5  C          8.8930    0.5100   -1.2710 C.3     1  UNL1        0.0430
      6  C          7.8530    0.3800   -0.2340 C.2     1  UNL1       -0.0440
      7  C          7.9500   -0.5740    0.7860 C.2     1  UNL1        0.0080
      8  C          6.7580    1.2130   -0.2580 C.2     1  UNL1        0.0540
      9  C          6.9450   -0.6490    1.7320 C.2     1  UNL1        0.0510
     10  C          5.7440    1.1340    0.7020 C.2     1  UNL1        0.1660
     11  C          5.8390    0.1950    1.7050 C.2     1  UNL1        0.1650
     12  O          4.5740    1.8370    0.8920 O.2     1  UNL1       -0.4540
     13  O          4.7120    0.3430    2.4990 O.2     1  UNL1       -0.4540
     14  C          3.9290    1.4320    2.0730 C.3     1  UNL1        0.4680
@<TRIPOS>BOND
     1     3     2    1
     2     2     4    2
     3     2     1    1
     4     1     5    1
     5     5     6    1
     6     8     6    2
     7     8    10    1
     8     6     7    1
     9    10    12    1
    10    10    11    2
    11     7     9    2
    12    12    14    1
    13    11     9    1
    14    11    13    1
    15    14    13    1
