@<TRIPOS>MOLECULE
/home/cewinharhar/GITHUB/reincatalyze/data/processed/docking_pred/2023-May-23-1437_sub9_nm5_bs15_s42_ex16_mel10_mts10000_k50_ec02_g099_lra3e-4_lrc1e-3/2037f81c995398ea407fbfc0a5ecaefc5001139a_ligand_9.pdbqt
 14 15 0 0 0
SMALL
GASTEIGER

@<TRIPOS>ATOM
      1  C          5.5180    1.8890    1.2900 C.3     1  UNL1        0.0800
      2  C          5.0760    0.6670    2.0160 C.2     1  UNL1        0.1300
      3  C          5.9630   -0.5190    2.1610 C.3     1  UNL1        0.0870
      4  O          3.9650    0.6020    2.5170 O.2     1  UNL1       -0.3000
      5  C          5.3900    1.7150   -0.2110 C.3     1  UNL1        0.0430
      6  C          6.5570    1.0180   -0.7810 C.2     1  UNL1       -0.0440
      7  C          7.8640    1.4530   -0.5320 C.2     1  UNL1        0.0080
      8  C          6.3690   -0.0890   -1.5760 C.2     1  UNL1        0.0540
      9  C          8.9210    0.7590   -1.0940 C.2     1  UNL1        0.0510
     10  C          7.4410   -0.7880   -2.1410 C.2     1  UNL1        0.1660
     11  C          8.7270   -0.3600   -1.8980 C.2     1  UNL1        0.1650
     12  O          7.5140   -1.8990   -2.9540 O.2     1  UNL1       -0.4540
     13  O          9.5720   -1.2260   -2.5730 O.2     1  UNL1       -0.4540
     14  C          8.8490   -2.2700   -3.1810 C.3     1  UNL1        0.4680
@<TRIPOS>BOND
     1    14    12    1
     2    14    13    1
     3    12    10    1
     4    13    11    1
     5    10    11    2
     6    10     8    1
     7    11     9    1
     8     8     6    2
     9     9     7    2
    10     6     7    1
    11     6     5    1
    12     5     1    1
    13     1     2    1
    14     2     3    1
    15     2     4    2
