MODEL 1
REMARK VINA RESULT:      -7.3      0.000      0.000
REMARK SMILES CC(=O)CCc1ccc2c(c1)OCO2
REMARK SMILES IDX 4 1 2 2 1 3 3 4 5 5 6 6 7 7 11 8 8 9 10 10 9 11 12 12 14 13
REMARK SMILES IDX 13 14
REMARK H PARENT
REMARK Flexibility Score: inf
ROOT
ATOM      1  C   UNL     1       6.560   0.649   1.484  1.00  0.00     0.080 C 
ENDROOT
BRANCH   1   2
ATOM      2  C   UNL     1       5.191   1.233   1.420  1.00  0.00     0.130 C 
ATOM      3  C   UNL     1       4.784   2.150   0.322  1.00  0.00     0.087 C 
ATOM      4  O   UNL     1       4.359   0.975   2.275  1.00  0.00    -0.300 OA
ENDBRANCH   1   2
BRANCH   1   5
ATOM      5  C   UNL     1       7.337   0.927   0.213  1.00  0.00     0.043 C 
BRANCH   5   6
ATOM      6  C   UNL     1       7.645  -0.313  -0.522  1.00  0.00    -0.044 A 
ATOM      7  C   UNL     1       7.588  -0.370  -1.920  1.00  0.00     0.008 A 
ATOM      8  C   UNL     1       8.000  -1.447   0.172  1.00  0.00     0.054 A 
ATOM      9  C   UNL     1       7.888  -1.561  -2.555  1.00  0.00     0.051 A 
ATOM     10  C   UNL     1       8.303  -2.649  -0.475  1.00  0.00     0.166 A 
ATOM     11  C   UNL     1       8.246  -2.706  -1.850  1.00  0.00     0.165 A 
ATOM     12  O   UNL     1       8.676  -3.894  -0.017  1.00  0.00    -0.454 OA
ATOM     13  O   UNL     1       8.590  -3.999  -2.212  1.00  0.00    -0.454 OA
ATOM     14  C   UNL     1       8.958  -4.761  -1.086  1.00  0.00     0.468 C 
ENDBRANCH   5   6
ENDBRANCH   1   5
TORSDOF 3
ENDMDL
MODEL 2
REMARK VINA RESULT:      -7.2      0.746      1.082
REMARK SMILES CC(=O)CCc1ccc2c(c1)OCO2
REMARK SMILES IDX 4 1 2 2 1 3 3 4 5 5 6 6 7 7 11 8 8 9 10 10 9 11 12 12 14 13
REMARK SMILES IDX 13 14
REMARK H PARENT
REMARK Flexibility Score: inf
ROOT
ATOM      1  C   UNL     1       5.749   1.290  -0.493  1.00  0.00     0.080 C 
ENDROOT
BRANCH   1   2
ATOM      2  C   UNL     1       5.315   1.411   0.927  1.00  0.00     0.130 C 
ATOM      3  C   UNL     1       5.978   0.643   2.014  1.00  0.00     0.087 C 
ATOM      4  O   UNL     1       4.395   2.150   1.240  1.00  0.00    -0.300 OA
ENDBRANCH   1   2
BRANCH   1   5
ATOM      5  C   UNL     1       7.252   1.120  -0.596  1.00  0.00     0.043 C 
BRANCH   5   6
ATOM      6  C   UNL     1       7.617  -0.204  -1.129  1.00  0.00    -0.044 A 
ATOM      7  C   UNL     1       7.658  -0.455  -2.505  1.00  0.00     0.008 A 
ATOM      8  C   UNL     1       7.930  -1.226  -0.261  1.00  0.00     0.054 A 
ATOM      9  C   UNL     1       8.008  -1.718  -2.947  1.00  0.00     0.051 A 
ATOM     10  C   UNL     1       8.284  -2.501  -0.713  1.00  0.00     0.166 A 
ATOM     11  C   UNL     1       8.323  -2.749  -2.067  1.00  0.00     0.165 A 
ATOM     12  O   UNL     1       8.632  -3.665  -0.062  1.00  0.00    -0.454 OA
ATOM     13  O   UNL     1       8.699  -4.074  -2.221  1.00  0.00    -0.454 OA
ATOM     14  C   UNL     1       8.993  -4.667  -0.979  1.00  0.00     0.468 C 
ENDBRANCH   5   6
ENDBRANCH   1   5
TORSDOF 3
ENDMDL
MODEL 3
REMARK VINA RESULT:      -6.8      1.231      1.706
REMARK SMILES CC(=O)CCc1ccc2c(c1)OCO2
REMARK SMILES IDX 4 1 2 2 1 3 3 4 5 5 6 6 7 7 11 8 8 9 10 10 9 11 12 12 14 13
REMARK SMILES IDX 13 14
REMARK H PARENT
REMARK Flexibility Score: inf
ROOT
ATOM      1  C   UNL     1       6.421   1.584   0.631  1.00  0.00     0.080 C 
ENDROOT
BRANCH   1   2
ATOM      2  C   UNL     1       5.955   0.801   1.809  1.00  0.00     0.130 C 
ATOM      3  C   UNL     1       6.832  -0.195   2.481  1.00  0.00     0.087 C 
ATOM      4  O   UNL     1       4.831   0.954   2.259  1.00  0.00    -0.300 OA
ENDBRANCH   1   2
BRANCH   1   5
ATOM      5  C   UNL     1       5.848   1.032  -0.659  1.00  0.00     0.043 C 
BRANCH   5   6
ATOM      6  C   UNL     1       6.818   0.176  -1.365  1.00  0.00    -0.044 A 
ATOM      7  C   UNL     1       7.580   0.659  -2.435  1.00  0.00     0.008 A 
ATOM      8  C   UNL     1       6.989  -1.132  -0.969  1.00  0.00     0.054 A 
ATOM      9  C   UNL     1       8.476  -0.190  -3.059  1.00  0.00     0.051 A 
ATOM     10  C   UNL     1       7.896  -1.986  -1.603  1.00  0.00     0.166 A 
ATOM     11  C   UNL     1       8.645  -1.511  -2.657  1.00  0.00     0.165 A 
ATOM     12  O   UNL     1       8.243  -3.305  -1.401  1.00  0.00    -0.454 OA
ATOM     13  O   UNL     1       9.446  -2.559  -3.083  1.00  0.00    -0.454 OA
ATOM     14  C   UNL     1       9.289  -3.688  -2.257  1.00  0.00     0.468 C 
ENDBRANCH   5   6
ENDBRANCH   1   5
TORSDOF 3
ENDMDL
MODEL 4
REMARK VINA RESULT:      -6.5      1.057      1.969
REMARK SMILES CC(=O)CCc1ccc2c(c1)OCO2
REMARK SMILES IDX 4 1 2 2 1 3 3 4 5 5 6 6 7 7 11 8 8 9 10 10 9 11 12 12 14 13
REMARK SMILES IDX 13 14
REMARK H PARENT
REMARK Flexibility Score: inf
ROOT
ATOM      1  C   UNL     1       5.835   1.033  -0.723  1.00  0.00     0.080 C 
ENDROOT
BRANCH   1   2
ATOM      2  C   UNL     1       5.449   1.789   0.501  1.00  0.00     0.130 C 
ATOM      3  C   UNL     1       6.443   2.133   1.552  1.00  0.00     0.087 C 
ATOM      4  O   UNL     1       4.296   2.150   0.678  1.00  0.00    -0.300 OA
ENDBRANCH   1   2
BRANCH   1   5
ATOM      5  C   UNL     1       7.339   0.867  -0.816  1.00  0.00     0.043 C 
BRANCH   5   6
ATOM      6  C   UNL     1       7.755  -0.515  -0.517  1.00  0.00    -0.044 A 
ATOM      7  C   UNL     1       7.946  -0.955   0.798  1.00  0.00     0.008 A 
ATOM      8  C   UNL     1       7.961  -1.404  -1.547  1.00  0.00     0.054 A 
ATOM      9  C   UNL     1       8.336  -2.263   1.018  1.00  0.00     0.051 A 
ATOM     10  C   UNL     1       8.355  -2.726  -1.320  1.00  0.00     0.166 A 
ATOM     11  C   UNL     1       8.544  -3.159  -0.026  1.00  0.00     0.165 A 
ATOM     12  O   UNL     1       8.621  -3.785  -2.161  1.00  0.00    -0.454 OA
ATOM     13  O   UNL     1       8.926  -4.489  -0.101  1.00  0.00    -0.454 OA
ATOM     14  C   UNL     1       8.899  -4.952  -1.430  1.00  0.00     0.468 C 
ENDBRANCH   5   6
ENDBRANCH   1   5
TORSDOF 3
ENDMDL
MODEL 5
REMARK VINA RESULT:      -6.4      1.053      1.952
REMARK SMILES CC(=O)CCc1ccc2c(c1)OCO2
REMARK SMILES IDX 4 1 2 2 1 3 3 4 5 5 6 6 7 7 11 8 8 9 10 10 9 11 12 12 14 13
REMARK SMILES IDX 13 14
REMARK H PARENT
REMARK Flexibility Score: inf
ROOT
ATOM      1  C   UNL     1       7.397   1.596  -0.298  1.00  0.00     0.080 C 
ENDROOT
BRANCH   1   2
ATOM      2  C   UNL     1       6.307   1.871   0.678  1.00  0.00     0.130 C 
ATOM      3  C   UNL     1       4.914   2.150   0.236  1.00  0.00     0.087 C 
ATOM      4  O   UNL     1       6.527   1.877   1.879  1.00  0.00    -0.300 OA
ENDBRANCH   1   2
BRANCH   1   5
ATOM      5  C   UNL     1       7.013   0.482  -1.252  1.00  0.00     0.043 C 
BRANCH   5   6
ATOM      6  C   UNL     1       7.559  -0.818  -0.821  1.00  0.00    -0.044 A 
ATOM      7  C   UNL     1       7.797  -1.102   0.529  1.00  0.00     0.008 A 
ATOM      8  C   UNL     1       7.842  -1.784  -1.760  1.00  0.00     0.054 A 
ATOM      9  C   UNL     1       8.309  -2.339   0.874  1.00  0.00     0.051 A 
ATOM     10  C   UNL     1       8.359  -3.033  -1.406  1.00  0.00     0.166 A 
ATOM     11  C   UNL     1       8.595  -3.313  -0.078  1.00  0.00     0.165 A 
ATOM     12  O   UNL     1       8.719  -4.144  -2.140  1.00  0.00    -0.454 OA
ATOM     13  O   UNL     1       9.099  -4.603  -0.024  1.00  0.00    -0.454 OA
ATOM     14  C   UNL     1       9.109  -5.199  -1.299  1.00  0.00     0.468 C 
ENDBRANCH   5   6
ENDBRANCH   1   5
TORSDOF 3
ENDMDL
