@<TRIPOS>MOLECULE
/home/cewinharhar/GITHUB/reincatalyze/data/processed/docking_pred/2023-May-23-1437_sub9_nm5_bs15_s42_ex16_mel10_mts10000_k50_ec02_g099_lra3e-4_lrc1e-3/21195065f8807259401ec3420f3b6dd683f2acc0_ligand_9.pdbqt
 14 15 0 0 0
SMALL
GASTEIGER

@<TRIPOS>ATOM
      1  C          5.7490    1.2900   -0.4930 C.3     1  UNL1        0.0800
      2  C          5.3150    1.4110    0.9270 C.2     1  UNL1        0.1300
      3  C          5.9780    0.6430    2.0140 C.3     1  UNL1        0.0870
      4  O          4.3950    2.1500    1.2400 O.2     1  UNL1       -0.3000
      5  C          7.2520    1.1200   -0.5960 C.3     1  UNL1        0.0430
      6  C          7.6170   -0.2040   -1.1290 C.2     1  UNL1       -0.0440
      7  C          7.6580   -0.4550   -2.5050 C.2     1  UNL1        0.0080
      8  C          7.9300   -1.2260   -0.2610 C.2     1  UNL1        0.0540
      9  C          8.0080   -1.7180   -2.9470 C.2     1  UNL1        0.0510
     10  C          8.2840   -2.5010   -0.7130 C.2     1  UNL1        0.1660
     11  C          8.3230   -2.7490   -2.0670 C.2     1  UNL1        0.1650
     12  O          8.6320   -3.6650   -0.0620 O.2     1  UNL1       -0.4540
     13  O          8.6990   -4.0740   -2.2210 O.2     1  UNL1       -0.4540
     14  C          8.9930   -4.6670   -0.9790 C.3     1  UNL1        0.4680
@<TRIPOS>BOND
     1     9     7    1
     2     9    11    2
     3     7     6    2
     4    13    11    1
     5    13    14    1
     6    11    10    1
     7     6     5    1
     8     6     8    1
     9    14    12    1
    10    10     8    2
    11    10    12    1
    12     5     1    1
    13     1     2    1
    14     2     4    2
    15     2     3    1
