@<TRIPOS>MOLECULE
/home/cewinharhar/GITHUB/reincatalyze/data/processed/docking_pred/2023-May-23-1437_sub9_nm5_bs15_s42_ex16_mel10_mts10000_k50_ec02_g099_lra3e-4_lrc1e-3/21195065f8807259401ec3420f3b6dd683f2acc0_ligand_9.pdbqt
 14 15 0 0 0
SMALL
GASTEIGER

@<TRIPOS>ATOM
      1  C          7.3970    1.5960   -0.2980 C.3     1  UNL1        0.0800
      2  C          6.3070    1.8710    0.6780 C.2     1  UNL1        0.1300
      3  C          4.9140    2.1500    0.2360 C.3     1  UNL1        0.0870
      4  O          6.5270    1.8770    1.8790 O.2     1  UNL1       -0.3000
      5  C          7.0130    0.4820   -1.2520 C.3     1  UNL1        0.0430
      6  C          7.5590   -0.8180   -0.8210 C.2     1  UNL1       -0.0440
      7  C          7.7970   -1.1020    0.5290 C.2     1  UNL1        0.0080
      8  C          7.8420   -1.7840   -1.7600 C.2     1  UNL1        0.0540
      9  C          8.3090   -2.3390    0.8740 C.2     1  UNL1        0.0510
     10  C          8.3590   -3.0330   -1.4060 C.2     1  UNL1        0.1660
     11  C          8.5950   -3.3130   -0.0780 C.2     1  UNL1        0.1650
     12  O          8.7190   -4.1440   -2.1400 O.2     1  UNL1       -0.4540
     13  O          9.0990   -4.6030   -0.0240 O.2     1  UNL1       -0.4540
     14  C          9.1090   -5.1990   -1.2990 C.3     1  UNL1        0.4680
@<TRIPOS>BOND
     1    12    10    1
     2    12    14    1
     3     8    10    1
     4     8     6    2
     5    10    11    2
     6    14    13    1
     7     5     6    1
     8     5     1    1
     9     6     7    1
    10     1     2    1
    11    11    13    1
    12    11     9    1
    13     3     2    1
    14     7     9    2
    15     2     4    2
