@<TRIPOS>MOLECULE
/home/cewinharhar/GITHUB/reincatalyze/data/processed/docking_pred/2023-May-23-1437_sub9_nm5_bs15_s42_ex16_mel10_mts10000_k50_ec02_g099_lra3e-4_lrc1e-3/21195065f8807259401ec3420f3b6dd683f2acc0_ligand_9.pdbqt
 14 15 0 0 0
SMALL
GASTEIGER

@<TRIPOS>ATOM
      1  C          5.8350    1.0330   -0.7230 C.3     1  UNL1        0.0800
      2  C          5.4490    1.7890    0.5010 C.2     1  UNL1        0.1300
      3  C          6.4430    2.1330    1.5520 C.3     1  UNL1        0.0870
      4  O          4.2960    2.1500    0.6780 O.2     1  UNL1       -0.3000
      5  C          7.3390    0.8670   -0.8160 C.3     1  UNL1        0.0430
      6  C          7.7550   -0.5150   -0.5170 C.2     1  UNL1       -0.0440
      7  C          7.9460   -0.9550    0.7980 C.2     1  UNL1        0.0080
      8  C          7.9610   -1.4040   -1.5470 C.2     1  UNL1        0.0540
      9  C          8.3360   -2.2630    1.0180 C.2     1  UNL1        0.0510
     10  C          8.3550   -2.7260   -1.3200 C.2     1  UNL1        0.1660
     11  C          8.5440   -3.1590   -0.0260 C.2     1  UNL1        0.1650
     12  O          8.6210   -3.7850   -2.1610 O.2     1  UNL1       -0.4540
     13  O          8.9260   -4.4890   -0.1010 O.2     1  UNL1       -0.4540
     14  C          8.8990   -4.9520   -1.4300 C.3     1  UNL1        0.4680
@<TRIPOS>BOND
     1    12    14    1
     2    12    10    1
     3     8    10    1
     4     8     6    2
     5    14    13    1
     6    10    11    2
     7     5     1    1
     8     5     6    1
     9     1     2    1
    10     6     7    1
    11    13    11    1
    12    11     9    1
    13     2     4    2
    14     2     3    1
    15     7     9    2
