MODEL 1
REMARK VINA RESULT:      -7.7      0.000      0.000
REMARK SMILES CC(=O)CCc1ccc2c(c1)OCO2
REMARK SMILES IDX 4 1 2 2 1 3 3 4 5 5 6 6 7 7 11 8 8 9 10 10 9 11 12 12 14 13
REMARK SMILES IDX 13 14
REMARK H PARENT
REMARK Flexibility Score: inf
ROOT
ATOM      1  C   UNL     1       5.499   1.936   1.252  1.00  0.00     0.080 C 
ENDROOT
BRANCH   1   2
ATOM      2  C   UNL     1       5.055   0.723   1.995  1.00  0.00     0.130 C 
ATOM      3  C   UNL     1       5.934  -0.468   2.142  1.00  0.00     0.087 C 
ATOM      4  O   UNL     1       3.948   0.672   2.506  1.00  0.00    -0.300 OA
ENDBRANCH   1   2
BRANCH   1   5
ATOM      5  C   UNL     1       5.380   1.738  -0.246  1.00  0.00     0.043 C 
BRANCH   5   6
ATOM      6  C   UNL     1       6.553   1.039  -0.800  1.00  0.00    -0.044 A 
ATOM      7  C   UNL     1       7.857   1.475  -0.538  1.00  0.00     0.008 A 
ATOM      8  C   UNL     1       6.374  -0.070  -1.594  1.00  0.00     0.054 A 
ATOM      9  C   UNL     1       8.920   0.779  -1.085  1.00  0.00     0.051 A 
ATOM     10  C   UNL     1       7.452  -0.771  -2.144  1.00  0.00     0.166 A 
ATOM     11  C   UNL     1       8.735  -0.342  -1.888  1.00  0.00     0.165 A 
ATOM     12  O   UNL     1       7.535  -1.885  -2.953  1.00  0.00    -0.454 OA
ATOM     13  O   UNL     1       9.588  -1.211  -2.550  1.00  0.00    -0.454 OA
ATOM     14  C   UNL     1       8.872  -2.257  -3.163  1.00  0.00     0.468 C 
ENDBRANCH   5   6
ENDBRANCH   1   5
TORSDOF 3
ENDMDL
MODEL 2
REMARK VINA RESULT:      -7.3      1.874      2.281
REMARK SMILES CC(=O)CCc1ccc2c(c1)OCO2
REMARK SMILES IDX 4 1 2 2 1 3 3 4 5 5 6 6 7 7 11 8 8 9 10 10 9 11 12 12 14 13
REMARK SMILES IDX 13 14
REMARK H PARENT
REMARK Flexibility Score: inf
ROOT
ATOM      1  C   UNL     1       5.558   1.417  -0.089  1.00  0.00     0.080 C 
ENDROOT
BRANCH   1   2
ATOM      2  C   UNL     1       5.007   1.191   1.276  1.00  0.00     0.130 C 
ATOM      3  C   UNL     1       5.463   0.060   2.126  1.00  0.00     0.087 C 
ATOM      4  O   UNL     1       4.157   1.935   1.739  1.00  0.00    -0.300 OA
ENDBRANCH   1   2
BRANCH   1   5
ATOM      5  C   UNL     1       7.062   1.225  -0.113  1.00  0.00     0.043 C 
BRANCH   5   6
ATOM      6  C   UNL     1       7.440  -0.055  -0.738  1.00  0.00    -0.044 A 
ATOM      7  C   UNL     1       7.416  -0.229  -2.126  1.00  0.00     0.008 A 
ATOM      8  C   UNL     1       7.830  -1.111   0.054  1.00  0.00     0.054 A 
ATOM      9  C   UNL     1       7.782  -1.453  -2.656  1.00  0.00     0.051 A 
ATOM     10  C   UNL     1       8.200  -2.347  -0.487  1.00  0.00     0.166 A 
ATOM     11  C   UNL     1       8.175  -2.519  -1.853  1.00  0.00     0.165 A 
ATOM     12  O   UNL     1       8.618  -3.532   0.078  1.00  0.00    -0.454 OA
ATOM     13  O   UNL     1       8.584  -3.820  -2.101  1.00  0.00    -0.454 OA
ATOM     14  C   UNL     1       8.961  -4.469  -0.910  1.00  0.00     0.468 C 
ENDBRANCH   5   6
ENDBRANCH   1   5
TORSDOF 3
ENDMDL
MODEL 3
REMARK VINA RESULT:      -7.2      2.064      2.638
REMARK SMILES CC(=O)CCc1ccc2c(c1)OCO2
REMARK SMILES IDX 4 1 2 2 1 3 3 4 5 5 6 6 7 7 11 8 8 9 10 10 9 11 12 12 14 13
REMARK SMILES IDX 13 14
REMARK H PARENT
REMARK Flexibility Score: inf
ROOT
ATOM      1  C   UNL     1       5.435  -0.056   2.016  1.00  0.00     0.080 C 
ENDROOT
BRANCH   1   2
ATOM      2  C   UNL     1       4.586   1.143   1.771  1.00  0.00     0.130 C 
ATOM      3  C   UNL     1       4.918   2.131   0.710  1.00  0.00     0.087 C 
ATOM      4  O   UNL     1       3.588   1.351   2.441  1.00  0.00    -0.300 OA
ENDBRANCH   1   2
BRANCH   1   5
ATOM      5  C   UNL     1       6.871   0.190   1.597  1.00  0.00     0.043 C 
BRANCH   5   6
ATOM      6  C   UNL     1       7.297  -0.737   0.533  1.00  0.00    -0.044 A 
ATOM      7  C   UNL     1       7.174  -0.405  -0.821  1.00  0.00     0.008 A 
ATOM      8  C   UNL     1       7.831  -1.960   0.869  1.00  0.00     0.054 A 
ATOM      9  C   UNL     1       7.591  -1.315  -1.775  1.00  0.00     0.051 A 
ATOM     10  C   UNL     1       8.253  -2.876  -0.100  1.00  0.00     0.166 A 
ATOM     11  C   UNL     1       8.131  -2.551  -1.432  1.00  0.00     0.165 A 
ATOM     12  O   UNL     1       8.807  -4.136  -0.023  1.00  0.00    -0.454 OA
ATOM     13  O   UNL     1       8.620  -3.629  -2.154  1.00  0.00    -0.454 OA
ATOM     14  C   UNL     1       9.142  -4.618  -1.299  1.00  0.00     0.468 C 
ENDBRANCH   5   6
ENDBRANCH   1   5
TORSDOF 3
ENDMDL
MODEL 4
REMARK VINA RESULT:      -7.0      1.239      1.420
REMARK SMILES CC(=O)CCc1ccc2c(c1)OCO2
REMARK SMILES IDX 4 1 2 2 1 3 3 4 5 5 6 6 7 7 11 8 8 9 10 10 9 11 12 12 14 13
REMARK SMILES IDX 13 14
REMARK H PARENT
REMARK Flexibility Score: inf
ROOT
ATOM      1  C   UNL     1       6.323   1.322   0.820  1.00  0.00     0.080 C 
ENDROOT
BRANCH   1   2
ATOM      2  C   UNL     1       5.658   0.527   1.889  1.00  0.00     0.130 C 
ATOM      3  C   UNL     1       6.307  -0.669   2.491  1.00  0.00     0.087 C 
ATOM      4  O   UNL     1       4.553   0.836   2.305  1.00  0.00    -0.300 OA
ENDBRANCH   1   2
BRANCH   1   5
ATOM      5  C   UNL     1       5.802   0.942  -0.552  1.00  0.00     0.043 C 
BRANCH   5   6
ATOM      6  C   UNL     1       6.784   0.143  -1.307  1.00  0.00    -0.044 A 
ATOM      7  C   UNL     1       7.521   0.693  -2.362  1.00  0.00     0.008 A 
ATOM      8  C   UNL     1       6.991  -1.176  -0.974  1.00  0.00     0.054 A 
ATOM      9  C   UNL     1       8.429  -0.105  -3.034  1.00  0.00     0.051 A 
ATOM     10  C   UNL     1       7.910  -1.978  -1.656  1.00  0.00     0.166 A 
ATOM     11  C   UNL     1       8.635  -1.438  -2.695  1.00  0.00     0.165 A 
ATOM     12  O   UNL     1       8.291  -3.296  -1.518  1.00  0.00    -0.454 OA
ATOM     13  O   UNL     1       9.455  -2.446  -3.178  1.00  0.00    -0.454 OA
ATOM     14  C   UNL     1       9.335  -3.615  -2.402  1.00  0.00     0.468 C 
ENDBRANCH   5   6
ENDBRANCH   1   5
TORSDOF 3
ENDMDL
MODEL 5
REMARK VINA RESULT:      -6.8      1.262      1.753
REMARK SMILES CC(=O)CCc1ccc2c(c1)OCO2
REMARK SMILES IDX 4 1 2 2 1 3 3 4 5 5 6 6 7 7 11 8 8 9 10 10 9 11 12 12 14 13
REMARK SMILES IDX 13 14
REMARK H PARENT
REMARK Flexibility Score: inf
ROOT
ATOM      1  C   UNL     1       5.330  -0.061   1.971  1.00  0.00     0.080 C 
ENDROOT
BRANCH   1   2
ATOM      2  C   UNL     1       4.441   1.120   1.788  1.00  0.00     0.130 C 
ATOM      3  C   UNL     1       4.714   2.150   0.750  1.00  0.00     0.087 C 
ATOM      4  O   UNL     1       3.454   1.276   2.490  1.00  0.00    -0.300 OA
ENDBRANCH   1   2
BRANCH   1   5
ATOM      5  C   UNL     1       6.792   0.335   1.901  1.00  0.00     0.043 C 
BRANCH   5   6
ATOM      6  C   UNL     1       7.395  -0.028   0.606  1.00  0.00    -0.044 A 
ATOM      7  C   UNL     1       7.893   0.944  -0.269  1.00  0.00     0.008 A 
ATOM      8  C   UNL     1       7.477  -1.352   0.240  1.00  0.00     0.054 A 
ATOM      9  C   UNL     1       8.449   0.544  -1.470  1.00  0.00     0.051 A 
ATOM     10  C   UNL     1       8.041  -1.751  -0.976  1.00  0.00     0.166 A 
ATOM     11  C   UNL     1       8.530  -0.796  -1.838  1.00  0.00     0.165 A 
ATOM     12  O   UNL     1       8.235  -2.985  -1.561  1.00  0.00    -0.454 OA
ATOM     13  O   UNL     1       9.021  -1.469  -2.946  1.00  0.00    -0.454 OA
ATOM     14  C   UNL     1       8.937  -2.863  -2.772  1.00  0.00     0.468 C 
ENDBRANCH   5   6
ENDBRANCH   1   5
TORSDOF 3
ENDMDL
