@<TRIPOS>MOLECULE
/home/cewinharhar/GITHUB/reincatalyze/data/processed/docking_pred/2023-May-23-1437_sub9_nm5_bs15_s42_ex16_mel10_mts10000_k50_ec02_g099_lra3e-4_lrc1e-3/22478e644e92021fed45641255b53d2cc77f0790_ligand_9.pdbqt
 14 15 0 0 0
SMALL
GASTEIGER

@<TRIPOS>ATOM
      1  C          6.3230    1.3220    0.8200 C.3     1  UNL1        0.0800
      2  C          5.6580    0.5270    1.8890 C.2     1  UNL1        0.1300
      3  C          6.3070   -0.6690    2.4910 C.3     1  UNL1        0.0870
      4  O          4.5530    0.8360    2.3050 O.2     1  UNL1       -0.3000
      5  C          5.8020    0.9420   -0.5520 C.3     1  UNL1        0.0430
      6  C          6.7840    0.1430   -1.3070 C.2     1  UNL1       -0.0440
      7  C          7.5210    0.6930   -2.3620 C.2     1  UNL1        0.0080
      8  C          6.9910   -1.1760   -0.9740 C.2     1  UNL1        0.0540
      9  C          8.4290   -0.1050   -3.0340 C.2     1  UNL1        0.0510
     10  C          7.9100   -1.9780   -1.6560 C.2     1  UNL1        0.1660
     11  C          8.6350   -1.4380   -2.6950 C.2     1  UNL1        0.1650
     12  O          8.2910   -3.2960   -1.5180 O.2     1  UNL1       -0.4540
     13  O          9.4550   -2.4460   -3.1780 O.2     1  UNL1       -0.4540
     14  C          9.3350   -3.6150   -2.4020 C.3     1  UNL1        0.4680
@<TRIPOS>BOND
     1    13    11    1
     2    13    14    1
     3     9    11    2
     4     9     7    1
     5    11    10    1
     6    14    12    1
     7     7     6    2
     8    10    12    1
     9    10     8    2
    10     6     8    1
    11     6     5    1
    12     5     1    1
    13     1     2    1
    14     2     4    2
    15     2     3    1
