@<TRIPOS>MOLECULE
/home/cewinharhar/GITHUB/reincatalyze/data/processed/docking_pred/2023-May-23-1437_sub9_nm5_bs15_s42_ex16_mel10_mts10000_k50_ec02_g099_lra3e-4_lrc1e-3/225d7738cc918e3754e3779366d54ccb252183f1_ligand_9.pdbqt
 14 15 0 0 0
SMALL
GASTEIGER

@<TRIPOS>ATOM
      1  C          6.3600    1.2510    0.8660 C.3     1  UNL1        0.0800
      2  C          5.6800    0.4210    1.8990 C.2     1  UNL1        0.1300
      3  C          6.3350   -0.7740    2.4950 C.3     1  UNL1        0.0870
      4  O          4.5580    0.7010    2.2890 O.2     1  UNL1       -0.3000
      5  C          5.8540    0.9240   -0.5250 C.3     1  UNL1        0.0430
      6  C          6.8190    0.1050   -1.2790 C.2     1  UNL1       -0.0440
      7  C          7.5460    0.6330   -2.3530 C.2     1  UNL1        0.0080
      8  C          7.0210   -1.2100   -0.9280 C.2     1  UNL1        0.0540
      9  C          8.4390   -0.1820   -3.0240 C.2     1  UNL1        0.0510
     10  C          7.9250   -2.0300   -1.6090 C.2     1  UNL1        0.1660
     11  C          8.6400   -1.5120   -2.6660 C.2     1  UNL1        0.1650
     12  O          8.2980   -3.3490   -1.4550 O.2     1  UNL1       -0.4540
     13  O          9.4460   -2.5330   -3.1430 O.2     1  UNL1       -0.4540
     14  C          9.3280   -3.6890   -2.3480 C.3     1  UNL1        0.4680
@<TRIPOS>BOND
     1    13    11    1
     2    13    14    1
     3     9    11    2
     4     9     7    1
     5    11    10    1
     6     7     6    2
     7    14    12    1
     8    10    12    1
     9    10     8    2
    10     6     8    1
    11     6     5    1
    12     5     1    1
    13     1     2    1
    14     2     4    2
    15     2     3    1
