@<TRIPOS>MOLECULE
/home/cewinharhar/GITHUB/reincatalyze/data/processed/docking_pred/2023-May-23-1437_sub9_nm5_bs15_s42_ex16_mel10_mts10000_k50_ec02_g099_lra3e-4_lrc1e-3/225d7738cc918e3754e3779366d54ccb252183f1_ligand_9.pdbqt
 14 15 0 0 0
SMALL
GASTEIGER

@<TRIPOS>ATOM
      1  C          6.9600    0.7400    1.0560 C.3     1  UNL1        0.0800
      2  C          5.5690    1.1880    1.3460 C.2     1  UNL1        0.1300
      3  C          4.8580    2.1500    0.4620 C.3     1  UNL1        0.0870
      4  O          4.9700    0.7760    2.3260 O.2     1  UNL1       -0.3000
      5  C          7.2820    0.8660   -0.4200 C.3     1  UNL1        0.0430
      6  C          7.7330   -0.4150   -0.9930 C.2     1  UNL1       -0.0440
      7  C          8.0100   -0.5500   -2.3580 C.2     1  UNL1        0.0080
      8  C          7.8920   -1.5100   -0.1740 C.2     1  UNL1        0.0540
      9  C          8.4300   -1.7770   -2.8390 C.2     1  UNL1        0.0510
     10  C          8.3180   -2.7470   -0.6650 C.2     1  UNL1        0.1660
     11  C          8.5890   -2.8820   -2.0090 C.2     1  UNL1        0.1650
     12  O          8.5480   -3.9670   -0.0660 O.2     1  UNL1       -0.4540
     13  O          8.9860   -4.1950   -2.2080 O.2     1  UNL1       -0.4540
     14  C          9.0610   -4.8940   -0.9880 C.3     1  UNL1        0.4680
@<TRIPOS>BOND
     1     9     7    1
     2     9    11    2
     3     7     6    2
     4    13    11    1
     5    13    14    1
     6    11    10    1
     7     6     5    1
     8     6     8    1
     9    14    12    1
    10    10     8    2
    11    10    12    1
    12     5     1    1
    13     3     2    1
    14     1     2    1
    15     2     4    2
