@<TRIPOS>MOLECULE
/home/cewinharhar/GITHUB/reincatalyze/data/processed/docking_pred/2023-May-23-1437_sub9_nm5_bs15_s42_ex16_mel10_mts10000_k50_ec02_g099_lra3e-4_lrc1e-3/225d7738cc918e3754e3779366d54ccb252183f1_ligand_9.pdbqt
 14 15 0 0 0
SMALL
GASTEIGER

@<TRIPOS>ATOM
      1  C          5.7490    1.2400   -0.3060 C.3     1  UNL1        0.0800
      2  C          5.2010    1.2060    1.0780 C.2     1  UNL1        0.1300
      3  C          5.3980    0.0310    1.9680 C.3     1  UNL1        0.0870
      4  O          4.5680    2.1500    1.5250 O.2     1  UNL1       -0.3000
      5  C          7.2550    1.0640   -0.3060 C.3     1  UNL1        0.0430
      6  C          7.6540   -0.2240   -0.9010 C.2     1  UNL1       -0.0440
      7  C          7.7950   -0.3810   -2.2850 C.2     1  UNL1        0.0080
      8  C          7.9000   -1.3050   -0.0850 C.2     1  UNL1        0.0540
      9  C          8.1730   -1.6130   -2.7850 C.2     1  UNL1        0.0510
     10  C          8.2830   -2.5490   -0.5960 C.2     1  UNL1        0.1660
     11  C          8.4200   -2.7040   -1.9580 C.2     1  UNL1        0.1650
     12  O          8.5790   -3.7580   -0.0030 O.2     1  UNL1       -0.4540
     13  O          8.8030   -4.0190   -2.1740 O.2     1  UNL1       -0.4540
     14  C          9.0030   -4.6970   -0.9570 C.3     1  UNL1        0.4680
@<TRIPOS>BOND
     1     9     7    1
     2     9    11    2
     3     7     6    2
     4    13    11    1
     5    13    14    1
     6    11    10    1
     7    14    12    1
     8     6     5    1
     9     6     8    1
    10    10     8    2
    11    10    12    1
    12     1     5    1
    13     1     2    1
    14     2     4    2
    15     2     3    1
