MODEL 1
REMARK VINA RESULT:      -7.6      0.000      0.000
REMARK SMILES CC(=O)CCc1ccc2c(c1)OCO2
REMARK SMILES IDX 4 1 2 2 1 3 3 4 5 5 6 6 7 7 11 8 8 9 10 10 9 11 12 12 14 13
REMARK SMILES IDX 13 14
REMARK H PARENT
REMARK Flexibility Score: inf
ROOT
ATOM      1  C   UNL     1       5.507   1.921   1.247  1.00  0.00     0.080 C 
ENDROOT
BRANCH   1   2
ATOM      2  C   UNL     1       5.060   0.712   1.993  1.00  0.00     0.130 C 
ATOM      3  C   UNL     1       5.937  -0.480   2.147  1.00  0.00     0.087 C 
ATOM      4  O   UNL     1       3.953   0.664   2.504  1.00  0.00    -0.300 OA
ENDBRANCH   1   2
BRANCH   1   5
ATOM      5  C   UNL     1       5.384   1.719  -0.251  1.00  0.00     0.043 C 
BRANCH   5   6
ATOM      6  C   UNL     1       6.557   1.021  -0.806  1.00  0.00    -0.044 A 
ATOM      7  C   UNL     1       7.861   1.458  -0.546  1.00  0.00     0.008 A 
ATOM      8  C   UNL     1       6.378  -0.089  -1.599  1.00  0.00     0.054 A 
ATOM      9  C   UNL     1       8.924   0.762  -1.094  1.00  0.00     0.051 A 
ATOM     10  C   UNL     1       7.455  -0.789  -2.151  1.00  0.00     0.166 A 
ATOM     11  C   UNL     1       8.739  -0.360  -1.896  1.00  0.00     0.165 A 
ATOM     12  O   UNL     1       7.537  -1.903  -2.959  1.00  0.00    -0.454 OA
ATOM     13  O   UNL     1       9.591  -1.229  -2.559  1.00  0.00    -0.454 OA
ATOM     14  C   UNL     1       8.875  -2.275  -3.170  1.00  0.00     0.468 C 
ENDBRANCH   5   6
ENDBRANCH   1   5
TORSDOF 3
ENDMDL
MODEL 2
REMARK VINA RESULT:      -7.5      1.937      2.403
REMARK SMILES CC(=O)CCc1ccc2c(c1)OCO2
REMARK SMILES IDX 4 1 2 2 1 3 3 4 5 5 6 6 7 7 11 8 8 9 10 10 9 11 12 12 14 13
REMARK SMILES IDX 13 14
REMARK H PARENT
REMARK Flexibility Score: inf
ROOT
ATOM      1  C   UNL     1       5.749   1.240  -0.306  1.00  0.00     0.080 C 
ENDROOT
BRANCH   1   2
ATOM      2  C   UNL     1       5.201   1.206   1.078  1.00  0.00     0.130 C 
ATOM      3  C   UNL     1       5.398   0.031   1.968  1.00  0.00     0.087 C 
ATOM      4  O   UNL     1       4.568   2.150   1.525  1.00  0.00    -0.300 OA
ENDBRANCH   1   2
BRANCH   1   5
ATOM      5  C   UNL     1       7.255   1.064  -0.306  1.00  0.00     0.043 C 
BRANCH   5   6
ATOM      6  C   UNL     1       7.654  -0.224  -0.901  1.00  0.00    -0.044 A 
ATOM      7  C   UNL     1       7.795  -0.381  -2.285  1.00  0.00     0.008 A 
ATOM      8  C   UNL     1       7.900  -1.305  -0.085  1.00  0.00     0.054 A 
ATOM      9  C   UNL     1       8.173  -1.613  -2.785  1.00  0.00     0.051 A 
ATOM     10  C   UNL     1       8.283  -2.549  -0.596  1.00  0.00     0.166 A 
ATOM     11  C   UNL     1       8.420  -2.704  -1.958  1.00  0.00     0.165 A 
ATOM     12  O   UNL     1       8.579  -3.758  -0.003  1.00  0.00    -0.454 OA
ATOM     13  O   UNL     1       8.803  -4.019  -2.174  1.00  0.00    -0.454 OA
ATOM     14  C   UNL     1       9.003  -4.697  -0.957  1.00  0.00     0.468 C 
ENDBRANCH   5   6
ENDBRANCH   1   5
TORSDOF 3
ENDMDL
MODEL 3
REMARK VINA RESULT:      -7.2      2.093      2.628
REMARK SMILES CC(=O)CCc1ccc2c(c1)OCO2
REMARK SMILES IDX 4 1 2 2 1 3 3 4 5 5 6 6 7 7 11 8 8 9 10 10 9 11 12 12 14 13
REMARK SMILES IDX 13 14
REMARK H PARENT
REMARK Flexibility Score: inf
ROOT
ATOM      1  C   UNL     1       5.561   0.014   1.966  1.00  0.00     0.080 C 
ENDROOT
BRANCH   1   2
ATOM      2  C   UNL     1       4.669   1.163   1.644  1.00  0.00     0.130 C 
ATOM      3  C   UNL     1       4.966   2.091   0.520  1.00  0.00     0.087 C 
ATOM      4  O   UNL     1       3.662   1.377   2.299  1.00  0.00    -0.300 OA
ENDBRANCH   1   2
BRANCH   1   5
ATOM      5  C   UNL     1       6.977   0.266   1.488  1.00  0.00     0.043 C 
BRANCH   5   6
ATOM      6  C   UNL     1       7.383  -0.698   0.450  1.00  0.00    -0.044 A 
ATOM      7  C   UNL     1       7.282  -0.394  -0.913  1.00  0.00     0.008 A 
ATOM      8  C   UNL     1       7.876  -1.929   0.818  1.00  0.00     0.054 A 
ATOM      9  C   UNL     1       7.678  -1.339  -1.842  1.00  0.00     0.051 A 
ATOM     10  C   UNL     1       8.277  -2.880  -0.126  1.00  0.00     0.166 A 
ATOM     11  C   UNL     1       8.176  -2.583  -1.466  1.00  0.00     0.165 A 
ATOM     12  O   UNL     1       8.791  -4.155  -0.015  1.00  0.00    -0.454 OA
ATOM     13  O   UNL     1       8.637  -3.692  -2.159  1.00  0.00    -0.454 OA
ATOM     14  C   UNL     1       9.122  -4.676  -1.277  1.00  0.00     0.468 C 
ENDBRANCH   5   6
ENDBRANCH   1   5
TORSDOF 3
ENDMDL
MODEL 4
REMARK VINA RESULT:      -7.1      1.244      1.452
REMARK SMILES CC(=O)CCc1ccc2c(c1)OCO2
REMARK SMILES IDX 4 1 2 2 1 3 3 4 5 5 6 6 7 7 11 8 8 9 10 10 9 11 12 12 14 13
REMARK SMILES IDX 13 14
REMARK H PARENT
REMARK Flexibility Score: inf
ROOT
ATOM      1  C   UNL     1       6.360   1.251   0.866  1.00  0.00     0.080 C 
ENDROOT
BRANCH   1   2
ATOM      2  C   UNL     1       5.680   0.421   1.899  1.00  0.00     0.130 C 
ATOM      3  C   UNL     1       6.335  -0.774   2.495  1.00  0.00     0.087 C 
ATOM      4  O   UNL     1       4.558   0.701   2.289  1.00  0.00    -0.300 OA
ENDBRANCH   1   2
BRANCH   1   5
ATOM      5  C   UNL     1       5.854   0.924  -0.525  1.00  0.00     0.043 C 
BRANCH   5   6
ATOM      6  C   UNL     1       6.819   0.105  -1.279  1.00  0.00    -0.044 A 
ATOM      7  C   UNL     1       7.546   0.633  -2.353  1.00  0.00     0.008 A 
ATOM      8  C   UNL     1       7.021  -1.210  -0.928  1.00  0.00     0.054 A 
ATOM      9  C   UNL     1       8.439  -0.182  -3.024  1.00  0.00     0.051 A 
ATOM     10  C   UNL     1       7.925  -2.030  -1.609  1.00  0.00     0.166 A 
ATOM     11  C   UNL     1       8.640  -1.512  -2.666  1.00  0.00     0.165 A 
ATOM     12  O   UNL     1       8.298  -3.349  -1.455  1.00  0.00    -0.454 OA
ATOM     13  O   UNL     1       9.446  -2.533  -3.143  1.00  0.00    -0.454 OA
ATOM     14  C   UNL     1       9.328  -3.689  -2.348  1.00  0.00     0.468 C 
ENDBRANCH   5   6
ENDBRANCH   1   5
TORSDOF 3
ENDMDL
MODEL 5
REMARK VINA RESULT:      -6.9      1.996      2.611
REMARK SMILES CC(=O)CCc1ccc2c(c1)OCO2
REMARK SMILES IDX 4 1 2 2 1 3 3 4 5 5 6 6 7 7 11 8 8 9 10 10 9 11 12 12 14 13
REMARK SMILES IDX 13 14
REMARK H PARENT
REMARK Flexibility Score: inf
ROOT
ATOM      1  C   UNL     1       6.960   0.740   1.056  1.00  0.00     0.080 C 
ENDROOT
BRANCH   1   2
ATOM      2  C   UNL     1       5.569   1.188   1.346  1.00  0.00     0.130 C 
ATOM      3  C   UNL     1       4.858   2.150   0.462  1.00  0.00     0.087 C 
ATOM      4  O   UNL     1       4.970   0.776   2.326  1.00  0.00    -0.300 OA
ENDBRANCH   1   2
BRANCH   1   5
ATOM      5  C   UNL     1       7.282   0.866  -0.420  1.00  0.00     0.043 C 
BRANCH   5   6
ATOM      6  C   UNL     1       7.733  -0.415  -0.993  1.00  0.00    -0.044 A 
ATOM      7  C   UNL     1       8.010  -0.550  -2.358  1.00  0.00     0.008 A 
ATOM      8  C   UNL     1       7.892  -1.510  -0.174  1.00  0.00     0.054 A 
ATOM      9  C   UNL     1       8.430  -1.777  -2.839  1.00  0.00     0.051 A 
ATOM     10  C   UNL     1       8.318  -2.747  -0.665  1.00  0.00     0.166 A 
ATOM     11  C   UNL     1       8.589  -2.882  -2.009  1.00  0.00     0.165 A 
ATOM     12  O   UNL     1       8.548  -3.967  -0.066  1.00  0.00    -0.454 OA
ATOM     13  O   UNL     1       8.986  -4.195  -2.208  1.00  0.00    -0.454 OA
ATOM     14  C   UNL     1       9.061  -4.894  -0.988  1.00  0.00     0.468 C 
ENDBRANCH   5   6
ENDBRANCH   1   5
TORSDOF 3
ENDMDL
