@<TRIPOS>MOLECULE
/home/cewinharhar/GITHUB/reincatalyze/data/processed/docking_pred/2023-May-23-1437_sub9_nm5_bs15_s42_ex16_mel10_mts10000_k50_ec02_g099_lra3e-4_lrc1e-3/225d7738cc918e3754e3779366d54ccb252183f1_ligand_9.pdbqt
 14 15 0 0 0
SMALL
GASTEIGER

@<TRIPOS>ATOM
      1  C          5.5610    0.0140    1.9660 C.3     1  UNL1        0.0800
      2  C          4.6690    1.1630    1.6440 C.2     1  UNL1        0.1300
      3  C          4.9660    2.0910    0.5200 C.3     1  UNL1        0.0870
      4  O          3.6620    1.3770    2.2990 O.2     1  UNL1       -0.3000
      5  C          6.9770    0.2660    1.4880 C.3     1  UNL1        0.0430
      6  C          7.3830   -0.6980    0.4500 C.2     1  UNL1       -0.0440
      7  C          7.2820   -0.3940   -0.9130 C.2     1  UNL1        0.0080
      8  C          7.8760   -1.9290    0.8180 C.2     1  UNL1        0.0540
      9  C          7.6780   -1.3390   -1.8420 C.2     1  UNL1        0.0510
     10  C          8.2770   -2.8800   -0.1260 C.2     1  UNL1        0.1660
     11  C          8.1760   -2.5830   -1.4660 C.2     1  UNL1        0.1650
     12  O          8.7910   -4.1550   -0.0150 O.2     1  UNL1       -0.4540
     13  O          8.6370   -3.6920   -2.1590 O.2     1  UNL1       -0.4540
     14  C          9.1220   -4.6760   -1.2770 C.3     1  UNL1        0.4680
@<TRIPOS>BOND
     1    13    11    1
     2    13    14    1
     3     9    11    2
     4     9     7    1
     5    11    10    1
     6    14    12    1
     7     7     6    2
     8    10    12    1
     9    10     8    2
    10     6     8    1
    11     6     5    1
    12     3     2    1
    13     5     1    1
    14     2     1    1
    15     2     4    2
