@<TRIPOS>MOLECULE
/home/cewinharhar/GITHUB/reincatalyze/data/processed/docking_pred/2023-May-23-1437_sub9_nm5_bs15_s42_ex16_mel10_mts10000_k50_ec02_g099_lra3e-4_lrc1e-3/2368d29bb7bbfa5e31d33bb3936e2ea89938fe66_ligand_9.pdbqt
 14 15 0 0 0
SMALL
GASTEIGER

@<TRIPOS>ATOM
      1  C          5.4640   -0.0160    2.0640 C.3     1  UNL1        0.0800
      2  C          4.5670    1.1380    1.7770 C.2     1  UNL1        0.1300
      3  C          4.8750    2.1180    0.7010 C.3     1  UNL1        0.0870
      4  O          3.5470    1.3150    2.4230 O.2     1  UNL1       -0.3000
      5  C          6.8790    0.2570    1.5950 C.3     1  UNL1        0.0430
      6  C          7.2930   -0.6790    0.5330 C.2     1  UNL1       -0.0440
      7  C          7.1630   -0.3540   -0.8220 C.2     1  UNL1        0.0080
      8  C          7.8220   -1.9030    0.8720 C.2     1  UNL1        0.0540
      9  C          7.5690   -1.2710   -1.7740 C.2     1  UNL1        0.0510
     10  C          8.2310   -2.8270   -0.0950 C.2     1  UNL1        0.1660
     11  C          8.1030   -2.5090   -1.4280 C.2     1  UNL1        0.1650
     12  O          8.7780   -4.0900   -0.0150 O.2     1  UNL1       -0.4540
     13  O          8.5800   -3.5930   -2.1470 O.2     1  UNL1       -0.4540
     14  C          9.1020   -4.5810   -1.2900 C.3     1  UNL1        0.4680
@<TRIPOS>BOND
     1    13    11    1
     2    13    14    1
     3     9    11    2
     4     9     7    1
     5    11    10    1
     6    14    12    1
     7     7     6    2
     8    10    12    1
     9    10     8    2
    10     6     8    1
    11     6     5    1
    12     3     2    1
    13     5     1    1
    14     2     1    1
    15     2     4    2
