@<TRIPOS>MOLECULE
/home/cewinharhar/GITHUB/reincatalyze/data/processed/docking_pred/2023-May-23-1437_sub9_nm5_bs15_s42_ex16_mel10_mts10000_k50_ec02_g099_lra3e-4_lrc1e-3/24731d809f1a519c36ca3c9a2574e1987901b3bd_ligand_9.pdbqt
 14 15 0 0 0
SMALL
GASTEIGER

@<TRIPOS>ATOM
      1  C          5.7320    1.3560   -0.2890 C.3     1  UNL1        0.0800
      2  C          5.1200    1.2750    1.0670 C.2     1  UNL1        0.1300
      3  C          5.3940    0.1320    1.9800 C.3     1  UNL1        0.0870
      4  O          4.3720    2.1500    1.4700 O.2     1  UNL1       -0.3000
      5  C          7.2280    1.1190   -0.2330 C.3     1  UNL1        0.0430
      6  C          7.6010   -0.1690   -0.8430 C.2     1  UNL1       -0.0440
      7  C          7.6740   -0.3300   -2.2310 C.2     1  UNL1        0.0080
      8  C          7.8890   -1.2470   -0.0370 C.2     1  UNL1        0.0540
      9  C          8.0300   -1.5620   -2.7470 C.2     1  UNL1        0.0510
     10  C          8.2500   -2.4920   -0.5630 C.2     1  UNL1        0.1660
     11  C          8.3200   -2.6500   -1.9290 C.2     1  UNL1        0.1650
     12  O          8.5780   -3.6980    0.0180 O.2     1  UNL1       -0.4540
     13  O          8.6950   -3.9650   -2.1610 O.2     1  UNL1       -0.4540
     14  C          8.9570   -4.6390   -0.9530 C.3     1  UNL1        0.4680
@<TRIPOS>BOND
     1     9     7    1
     2     9    11    2
     3     7     6    2
     4    13    11    1
     5    13    14    1
     6    11    10    1
     7    14    12    1
     8     6     5    1
     9     6     8    1
    10    10     8    2
    11    10    12    1
    12     1     5    1
    13     1     2    1
    14     2     4    2
    15     2     3    1
