@<TRIPOS>MOLECULE
/home/cewinharhar/GITHUB/reincatalyze/data/processed/docking_pred/2023-May-23-1437_sub9_nm5_bs15_s42_ex16_mel10_mts10000_k50_ec02_g099_lra3e-4_lrc1e-3/2481e5cfc04dcfc4c7035fb6b8b96c3a7d203934_ligand_9.pdbqt
 14 15 0 0 0
SMALL
GASTEIGER

@<TRIPOS>ATOM
      1  C          5.3410   -0.0660    1.9780 C.3     1  UNL1        0.0800
      2  C          4.4540    1.1170    1.7960 C.2     1  UNL1        0.1300
      3  C          4.7320    2.1490    0.7610 C.3     1  UNL1        0.0870
      4  O          3.4670    1.2740    2.4960 O.2     1  UNL1       -0.3000
      5  C          6.8040    0.3260    1.9040 C.3     1  UNL1        0.0430
      6  C          7.4020   -0.0370    0.6070 C.2     1  UNL1       -0.0440
      7  C          7.8960    0.9340   -0.2700 C.2     1  UNL1        0.0080
      8  C          7.4840   -1.3620    0.2410 C.2     1  UNL1        0.0540
      9  C          8.4470    0.5340   -1.4740 C.2     1  UNL1        0.0510
     10  C          8.0430   -1.7620   -0.9760 C.2     1  UNL1        0.1660
     11  C          8.5280   -0.8060   -1.8410 C.2     1  UNL1        0.1650
     12  O          8.2360   -2.9950   -1.5620 O.2     1  UNL1       -0.4540
     13  O          9.0150   -1.4790   -2.9500 O.2     1  UNL1       -0.4540
     14  C          8.9330   -2.8740   -2.7750 C.3     1  UNL1        0.4680
@<TRIPOS>BOND
     1    13    14    1
     2    13    11    1
     3    14    12    1
     4    11     9    2
     5    11    10    1
     6    12    10    1
     7     9     7    1
     8    10     8    2
     9     7     6    2
    10     8     6    1
    11     6     5    1
    12     3     2    1
    13     2     1    1
    14     2     4    2
    15     5     1    1
