MODEL 1
REMARK VINA RESULT:      -7.6      0.000      0.000
REMARK SMILES CC(=O)CCc1ccc2c(c1)OCO2
REMARK SMILES IDX 4 1 2 2 1 3 3 4 5 5 6 6 7 7 11 8 8 9 10 10 9 11 12 12 14 13
REMARK SMILES IDX 13 14
REMARK H PARENT
REMARK Flexibility Score: inf
ROOT
ATOM      1  C   UNL     1       5.542   1.908   1.275  1.00  0.00     0.080 C 
ENDROOT
BRANCH   1   2
ATOM      2  C   UNL     1       5.116   0.685   2.012  1.00  0.00     0.130 C 
ATOM      3  C   UNL     1       6.023  -0.483   2.174  1.00  0.00     0.087 C 
ATOM      4  O   UNL     1       4.003   0.606   2.505  1.00  0.00    -0.300 OA
ENDBRANCH   1   2
BRANCH   1   5
ATOM      5  C   UNL     1       5.412   1.721  -0.223  1.00  0.00     0.043 C 
BRANCH   5   6
ATOM      6  C   UNL     1       6.578   1.019  -0.789  1.00  0.00    -0.044 A 
ATOM      7  C   UNL     1       7.886   1.447  -0.533  1.00  0.00     0.008 A 
ATOM      8  C   UNL     1       6.388  -0.085  -1.587  1.00  0.00     0.054 A 
ATOM      9  C   UNL     1       8.942   0.748  -1.091  1.00  0.00     0.051 A 
ATOM     10  C   UNL     1       7.458  -0.789  -2.148  1.00  0.00     0.166 A 
ATOM     11  C   UNL     1       8.746  -0.368  -1.898  1.00  0.00     0.165 A 
ATOM     12  O   UNL     1       7.530  -1.899  -2.963  1.00  0.00    -0.454 OA
ATOM     13  O   UNL     1       9.589  -1.238  -2.571  1.00  0.00    -0.454 OA
ATOM     14  C   UNL     1       8.864  -2.277  -3.184  1.00  0.00     0.468 C 
ENDBRANCH   5   6
ENDBRANCH   1   5
TORSDOF 3
ENDMDL
MODEL 2
REMARK VINA RESULT:      -7.4      1.953      2.439
REMARK SMILES CC(=O)CCc1ccc2c(c1)OCO2
REMARK SMILES IDX 4 1 2 2 1 3 3 4 5 5 6 6 7 7 11 8 8 9 10 10 9 11 12 12 14 13
REMARK SMILES IDX 13 14
REMARK H PARENT
REMARK Flexibility Score: inf
ROOT
ATOM      1  C   UNL     1       5.756   1.180  -0.307  1.00  0.00     0.080 C 
ENDROOT
BRANCH   1   2
ATOM      2  C   UNL     1       5.244   1.174   1.092  1.00  0.00     0.130 C 
ATOM      3  C   UNL     1       5.402  -0.011   1.976  1.00  0.00     0.087 C 
ATOM      4  O   UNL     1       4.676   2.150   1.556  1.00  0.00    -0.300 OA
ENDBRANCH   1   2
BRANCH   1   5
ATOM      5  C   UNL     1       7.263   1.017  -0.343  1.00  0.00     0.043 C 
BRANCH   5   6
ATOM      6  C   UNL     1       7.659  -0.274  -0.931  1.00  0.00    -0.044 A 
ATOM      7  C   UNL     1       7.762  -0.448  -2.316  1.00  0.00     0.008 A 
ATOM      8  C   UNL     1       7.938  -1.342  -0.108  1.00  0.00     0.054 A 
ATOM      9  C   UNL     1       8.139  -1.683  -2.811  1.00  0.00     0.051 A 
ATOM     10  C   UNL     1       8.320  -2.588  -0.614  1.00  0.00     0.166 A 
ATOM     11  C   UNL     1       8.420  -2.760  -1.977  1.00  0.00     0.165 A 
ATOM     12  O   UNL     1       8.645  -3.786  -0.014  1.00  0.00    -0.454 OA
ATOM     13  O   UNL     1       8.811  -4.074  -2.187  1.00  0.00    -0.454 OA
ATOM     14  C   UNL     1       9.052  -4.734  -0.967  1.00  0.00     0.468 C 
ENDBRANCH   5   6
ENDBRANCH   1   5
TORSDOF 3
ENDMDL
MODEL 3
REMARK VINA RESULT:      -7.2      2.078      2.636
REMARK SMILES CC(=O)CCc1ccc2c(c1)OCO2
REMARK SMILES IDX 4 1 2 2 1 3 3 4 5 5 6 6 7 7 11 8 8 9 10 10 9 11 12 12 14 13
REMARK SMILES IDX 13 14
REMARK H PARENT
REMARK Flexibility Score: inf
ROOT
ATOM      1  C   UNL     1       5.484  -0.029   1.971  1.00  0.00     0.080 C 
ENDROOT
BRANCH   1   2
ATOM      2  C   UNL     1       4.618   1.152   1.701  1.00  0.00     0.130 C 
ATOM      3  C   UNL     1       4.916   2.104   0.598  1.00  0.00     0.087 C 
ATOM      4  O   UNL     1       3.630   1.373   2.383  1.00  0.00    -0.300 OA
ENDBRANCH   1   2
BRANCH   1   5
ATOM      5  C   UNL     1       6.910   0.220   1.519  1.00  0.00     0.043 C 
BRANCH   5   6
ATOM      6  C   UNL     1       7.324  -0.730   0.471  1.00  0.00    -0.044 A 
ATOM      7  C   UNL     1       7.200  -0.422  -0.889  1.00  0.00     0.008 A 
ATOM      8  C   UNL     1       7.850  -1.951   0.827  1.00  0.00     0.054 A 
ATOM      9  C   UNL     1       7.606  -1.353  -1.828  1.00  0.00     0.051 A 
ATOM     10  C   UNL     1       8.261  -2.889  -0.126  1.00  0.00     0.166 A 
ATOM     11  C   UNL     1       8.137  -2.587  -1.464  1.00  0.00     0.165 A 
ATOM     12  O   UNL     1       8.805  -4.151  -0.029  1.00  0.00    -0.454 OA
ATOM     13  O   UNL     1       8.615  -3.682  -2.168  1.00  0.00    -0.454 OA
ATOM     14  C   UNL     1       9.132  -4.659  -1.297  1.00  0.00     0.468 C 
ENDBRANCH   5   6
ENDBRANCH   1   5
TORSDOF 3
ENDMDL
MODEL 4
REMARK VINA RESULT:      -7.1      1.265      1.475
REMARK SMILES CC(=O)CCc1ccc2c(c1)OCO2
REMARK SMILES IDX 4 1 2 2 1 3 3 4 5 5 6 6 7 7 11 8 8 9 10 10 9 11 12 12 14 13
REMARK SMILES IDX 13 14
REMARK H PARENT
REMARK Flexibility Score: inf
ROOT
ATOM      1  C   UNL     1       6.383   1.178   0.970  1.00  0.00     0.080 C 
ENDROOT
BRANCH   1   2
ATOM      2  C   UNL     1       5.682   0.329   1.974  1.00  0.00     0.130 C 
ATOM      3  C   UNL     1       6.316  -0.888   2.546  1.00  0.00     0.087 C 
ATOM      4  O   UNL     1       4.558   0.612   2.358  1.00  0.00    -0.300 OA
ENDBRANCH   1   2
BRANCH   1   5
ATOM      5  C   UNL     1       5.865   0.914  -0.430  1.00  0.00     0.043 C 
BRANCH   5   6
ATOM      6  C   UNL     1       6.804   0.090  -1.213  1.00  0.00    -0.044 A 
ATOM      7  C   UNL     1       7.462   0.598  -2.339  1.00  0.00     0.008 A 
ATOM      8  C   UNL     1       7.047  -1.211  -0.836  1.00  0.00     0.054 A 
ATOM      9  C   UNL     1       8.333  -0.221  -3.034  1.00  0.00     0.051 A 
ATOM     10  C   UNL     1       7.929  -2.035  -1.542  1.00  0.00     0.166 A 
ATOM     11  C   UNL     1       8.576  -1.537  -2.650  1.00  0.00     0.165 A 
ATOM     12  O   UNL     1       8.333  -3.342  -1.372  1.00  0.00    -0.454 OA
ATOM     13  O   UNL     1       9.374  -2.558  -3.142  1.00  0.00    -0.454 OA
ATOM     14  C   UNL     1       9.319  -3.691  -2.309  1.00  0.00     0.468 C 
ENDBRANCH   5   6
ENDBRANCH   1   5
TORSDOF 3
ENDMDL
MODEL 5
REMARK VINA RESULT:      -6.7      1.268      1.756
REMARK SMILES CC(=O)CCc1ccc2c(c1)OCO2
REMARK SMILES IDX 4 1 2 2 1 3 3 4 5 5 6 6 7 7 11 8 8 9 10 10 9 11 12 12 14 13
REMARK SMILES IDX 13 14
REMARK H PARENT
REMARK Flexibility Score: inf
ROOT
ATOM      1  C   UNL     1       5.341  -0.066   1.978  1.00  0.00     0.080 C 
ENDROOT
BRANCH   1   2
ATOM      2  C   UNL     1       4.454   1.117   1.796  1.00  0.00     0.130 C 
ATOM      3  C   UNL     1       4.732   2.149   0.761  1.00  0.00     0.087 C 
ATOM      4  O   UNL     1       3.467   1.274   2.496  1.00  0.00    -0.300 OA
ENDBRANCH   1   2
BRANCH   1   5
ATOM      5  C   UNL     1       6.804   0.326   1.904  1.00  0.00     0.043 C 
BRANCH   5   6
ATOM      6  C   UNL     1       7.402  -0.037   0.607  1.00  0.00    -0.044 A 
ATOM      7  C   UNL     1       7.896   0.934  -0.270  1.00  0.00     0.008 A 
ATOM      8  C   UNL     1       7.484  -1.362   0.241  1.00  0.00     0.054 A 
ATOM      9  C   UNL     1       8.447   0.534  -1.474  1.00  0.00     0.051 A 
ATOM     10  C   UNL     1       8.043  -1.762  -0.976  1.00  0.00     0.166 A 
ATOM     11  C   UNL     1       8.528  -0.806  -1.841  1.00  0.00     0.165 A 
ATOM     12  O   UNL     1       8.236  -2.995  -1.562  1.00  0.00    -0.454 OA
ATOM     13  O   UNL     1       9.015  -1.479  -2.950  1.00  0.00    -0.454 OA
ATOM     14  C   UNL     1       8.933  -2.874  -2.775  1.00  0.00     0.468 C 
ENDBRANCH   5   6
ENDBRANCH   1   5
TORSDOF 3
ENDMDL
