@<TRIPOS>MOLECULE
/home/cewinharhar/GITHUB/reincatalyze/data/processed/docking_pred/2023-May-23-1437_sub9_nm5_bs15_s42_ex16_mel10_mts10000_k50_ec02_g099_lra3e-4_lrc1e-3/25f547df8c587039729a955c6f4cb3c83005f49c_ligand_9.pdbqt
 14 15 0 0 0
SMALL
GASTEIGER

@<TRIPOS>ATOM
      1  C          5.3160   -0.0790    1.9750 C.3     1  UNL1        0.0800
      2  C          4.4410    1.1100    1.7790 C.2     1  UNL1        0.1300
      3  C          4.7320    2.1300    0.7360 C.3     1  UNL1        0.0870
      4  O          3.4530    1.2830    2.4740 O.2     1  UNL1       -0.3000
      5  C          6.7830    0.3010    1.9200 C.3     1  UNL1        0.0430
      6  C          7.3890   -0.0460    0.6220 C.2     1  UNL1       -0.0440
      7  C          7.8860    0.9370   -0.2410 C.2     1  UNL1        0.0080
      8  C          7.4750   -1.3660    0.2410 C.2     1  UNL1        0.0540
      9  C          8.4450    0.5510   -1.4460 C.2     1  UNL1        0.0510
     10  C          8.0410   -1.7510   -0.9780 C.2     1  UNL1        0.1660
     11  C          8.5300   -0.7840   -1.8290 C.2     1  UNL1        0.1650
     12  O          8.2400   -2.9770   -1.5770 O.2     1  UNL1       -0.4540
     13  O          9.0240   -1.4440   -2.9430 O.2     1  UNL1       -0.4540
     14  C          8.9430   -2.8400   -2.7850 C.3     1  UNL1        0.4680
@<TRIPOS>BOND
     1    13    14    1
     2    13    11    1
     3    14    12    1
     4    11     9    2
     5    11    10    1
     6    12    10    1
     7     9     7    1
     8    10     8    2
     9     7     6    2
    10     8     6    1
    11     6     5    1
    12     3     2    1
    13     2     1    1
    14     2     4    2
    15     5     1    1
