MODEL 1
REMARK VINA RESULT:      -7.6      0.000      0.000
REMARK SMILES CC(=O)CCc1ccc2c(c1)OCO2
REMARK SMILES IDX 4 1 2 2 1 3 3 4 5 5 6 6 7 7 11 8 8 9 10 10 9 11 12 12 14 13
REMARK SMILES IDX 13 14
REMARK H PARENT
REMARK Flexibility Score: inf
ROOT
ATOM      1  C   UNL     1       5.585   1.880   1.310  1.00  0.00     0.080 C 
ENDROOT
BRANCH   1   2
ATOM      2  C   UNL     1       5.130   0.658   2.030  1.00  0.00     0.130 C 
ATOM      3  C   UNL     1       6.016  -0.525   2.196  1.00  0.00     0.087 C 
ATOM      4  O   UNL     1       4.008   0.592   2.506  1.00  0.00    -0.300 OA
ENDBRANCH   1   2
BRANCH   1   5
ATOM      5  C   UNL     1       5.447   1.718  -0.191  1.00  0.00     0.043 C 
BRANCH   5   6
ATOM      6  C   UNL     1       6.604   1.016  -0.774  1.00  0.00    -0.044 A 
ATOM      7  C   UNL     1       7.916   1.447  -0.543  1.00  0.00     0.008 A 
ATOM      8  C   UNL     1       6.402  -0.094  -1.562  1.00  0.00     0.054 A 
ATOM      9  C   UNL     1       8.962   0.748  -1.115  1.00  0.00     0.051 A 
ATOM     10  C   UNL     1       7.464  -0.798  -2.138  1.00  0.00     0.166 A 
ATOM     11  C   UNL     1       8.755  -0.373  -1.913  1.00  0.00     0.165 A 
ATOM     12  O   UNL     1       7.524  -1.912  -2.948  1.00  0.00    -0.454 OA
ATOM     13  O   UNL     1       9.588  -1.245  -2.596  1.00  0.00    -0.454 OA
ATOM     14  C   UNL     1       8.855  -2.289  -3.191  1.00  0.00     0.468 C 
ENDBRANCH   5   6
ENDBRANCH   1   5
TORSDOF 3
ENDMDL
MODEL 2
REMARK VINA RESULT:      -7.4      1.923      2.378
REMARK SMILES CC(=O)CCc1ccc2c(c1)OCO2
REMARK SMILES IDX 4 1 2 2 1 3 3 4 5 5 6 6 7 7 11 8 8 9 10 10 9 11 12 12 14 13
REMARK SMILES IDX 13 14
REMARK H PARENT
REMARK Flexibility Score: inf
ROOT
ATOM      1  C   UNL     1       5.724   1.292  -0.370  1.00  0.00     0.080 C 
ENDROOT
BRANCH   1   2
ATOM      2  C   UNL     1       5.145   1.255   1.002  1.00  0.00     0.130 C 
ATOM      3  C   UNL     1       5.428   0.136   1.939  1.00  0.00     0.087 C 
ATOM      4  O   UNL     1       4.416   2.150   1.398  1.00  0.00    -0.300 OA
ENDBRANCH   1   2
BRANCH   1   5
ATOM      5  C   UNL     1       7.229   1.118  -0.337  1.00  0.00     0.043 C 
BRANCH   5   6
ATOM      6  C   UNL     1       7.643  -0.173  -0.917  1.00  0.00    -0.044 A 
ATOM      7  C   UNL     1       7.822  -0.333  -2.296  1.00  0.00     0.008 A 
ATOM      8  C   UNL     1       7.864  -1.252  -0.091  1.00  0.00     0.054 A 
ATOM      9  C   UNL     1       8.212  -1.567  -2.782  1.00  0.00     0.051 A 
ATOM     10  C   UNL     1       8.259  -2.497  -0.588  1.00  0.00     0.166 A 
ATOM     11  C   UNL     1       8.434  -2.657  -1.945  1.00  0.00     0.165 A 
ATOM     12  O   UNL     1       8.537  -3.705   0.016  1.00  0.00    -0.454 OA
ATOM     13  O   UNL     1       8.821  -3.972  -2.148  1.00  0.00    -0.454 OA
ATOM     14  C   UNL     1       8.986  -4.648  -0.924  1.00  0.00     0.468 C 
ENDBRANCH   5   6
ENDBRANCH   1   5
TORSDOF 3
ENDMDL
MODEL 3
REMARK VINA RESULT:      -7.1      2.084      2.607
REMARK SMILES CC(=O)CCc1ccc2c(c1)OCO2
REMARK SMILES IDX 4 1 2 2 1 3 3 4 5 5 6 6 7 7 11 8 8 9 10 10 9 11 12 12 14 13
REMARK SMILES IDX 13 14
REMARK H PARENT
REMARK Flexibility Score: inf
ROOT
ATOM      1  C   UNL     1       5.630   0.062   1.940  1.00  0.00     0.080 C 
ENDROOT
BRANCH   1   2
ATOM      2  C   UNL     1       4.704   1.183   1.618  1.00  0.00     0.130 C 
ATOM      3  C   UNL     1       4.990   2.141   0.517  1.00  0.00     0.087 C 
ATOM      4  O   UNL     1       3.675   1.349   2.254  1.00  0.00    -0.300 OA
ENDBRANCH   1   2
BRANCH   1   5
ATOM      5  C   UNL     1       7.023   0.328   1.405  1.00  0.00     0.043 C 
BRANCH   5   6
ATOM      6  C   UNL     1       7.413  -0.659   0.382  1.00  0.00    -0.044 A 
ATOM      7  C   UNL     1       7.304  -0.380  -0.985  1.00  0.00     0.008 A 
ATOM      8  C   UNL     1       7.899  -1.887   0.769  1.00  0.00     0.054 A 
ATOM      9  C   UNL     1       7.685  -1.345  -1.900  1.00  0.00     0.051 A 
ATOM     10  C   UNL     1       8.284  -2.859  -0.159  1.00  0.00     0.166 A 
ATOM     11  C   UNL     1       8.176  -2.585  -1.505  1.00  0.00     0.165 A 
ATOM     12  O   UNL     1       8.789  -4.135  -0.029  1.00  0.00    -0.454 OA
ATOM     13  O   UNL     1       8.622  -3.711  -2.179  1.00  0.00    -0.454 OA
ATOM     14  C   UNL     1       9.105  -4.683  -1.283  1.00  0.00     0.468 C 
ENDBRANCH   5   6
ENDBRANCH   1   5
TORSDOF 3
ENDMDL
MODEL 4
REMARK VINA RESULT:      -7.0      1.226      1.408
REMARK SMILES CC(=O)CCc1ccc2c(c1)OCO2
REMARK SMILES IDX 4 1 2 2 1 3 3 4 5 5 6 6 7 7 11 8 8 9 10 10 9 11 12 12 14 13
REMARK SMILES IDX 13 14
REMARK H PARENT
REMARK Flexibility Score: inf
ROOT
ATOM      1  C   UNL     1       6.348   1.280   0.917  1.00  0.00     0.080 C 
ENDROOT
BRANCH   1   2
ATOM      2  C   UNL     1       5.677   0.412   1.924  1.00  0.00     0.130 C 
ATOM      3  C   UNL     1       6.355  -0.780   2.502  1.00  0.00     0.087 C 
ATOM      4  O   UNL     1       4.544   0.655   2.307  1.00  0.00    -0.300 OA
ENDBRANCH   1   2
BRANCH   1   5
ATOM      5  C   UNL     1       5.839   0.994  -0.482  1.00  0.00     0.043 C 
BRANCH   5   6
ATOM      6  C   UNL     1       6.786   0.166  -1.250  1.00  0.00    -0.044 A 
ATOM      7  C   UNL     1       7.483   0.678  -2.350  1.00  0.00     0.008 A 
ATOM      8  C   UNL     1       7.001  -1.143  -0.882  1.00  0.00     0.054 A 
ATOM      9  C   UNL     1       8.360  -0.146  -3.032  1.00  0.00     0.051 A 
ATOM     10  C   UNL     1       7.889  -1.972  -1.574  1.00  0.00     0.166 A 
ATOM     11  C   UNL     1       8.574  -1.469  -2.658  1.00  0.00     0.165 A 
ATOM     12  O   UNL     1       8.269  -3.287  -1.409  1.00  0.00    -0.454 OA
ATOM     13  O   UNL     1       9.370  -2.496  -3.140  1.00  0.00    -0.454 OA
ATOM     14  C   UNL     1       9.276  -3.639  -2.323  1.00  0.00     0.468 C 
ENDBRANCH   5   6
ENDBRANCH   1   5
TORSDOF 3
ENDMDL
MODEL 5
REMARK VINA RESULT:      -6.9      1.902      2.446
REMARK SMILES CC(=O)CCc1ccc2c(c1)OCO2
REMARK SMILES IDX 4 1 2 2 1 3 3 4 5 5 6 6 7 7 11 8 8 9 10 10 9 11 12 12 14 13
REMARK SMILES IDX 13 14
REMARK H PARENT
REMARK Flexibility Score: inf
ROOT
ATOM      1  C   UNL     1       6.948   1.023   1.249  1.00  0.00     0.080 C 
ENDROOT
BRANCH   1   2
ATOM      2  C   UNL     1       5.477   1.189   1.414  1.00  0.00     0.130 C 
ATOM      3  C   UNL     1       4.702   2.150   0.584  1.00  0.00     0.087 C 
ATOM      4  O   UNL     1       4.862   0.537   2.242  1.00  0.00    -0.300 OA
ENDBRANCH   1   2
BRANCH   1   5
ATOM      5  C   UNL     1       7.362   1.194  -0.200  1.00  0.00     0.043 C 
BRANCH   5   6
ATOM      6  C   UNL     1       7.694  -0.096  -0.829  1.00  0.00    -0.044 A 
ATOM      7  C   UNL     1       7.761  -0.238  -2.220  1.00  0.00     0.008 A 
ATOM      8  C   UNL     1       7.948  -1.195  -0.040  1.00  0.00     0.054 A 
ATOM      9  C   UNL     1       8.078  -1.473  -2.755  1.00  0.00     0.051 A 
ATOM     10  C   UNL     1       8.268  -2.442  -0.586  1.00  0.00     0.166 A 
ATOM     11  C   UNL     1       8.333  -2.582  -1.954  1.00  0.00     0.165 A 
ATOM     12  O   UNL     1       8.558  -3.667  -0.023  1.00  0.00    -0.454 OA
ATOM     13  O   UNL     1       8.666  -3.904  -2.206  1.00  0.00    -0.454 OA
ATOM     14  C   UNL     1       8.907  -4.605  -1.010  1.00  0.00     0.468 C 
ENDBRANCH   5   6
ENDBRANCH   1   5
TORSDOF 3
ENDMDL
