@<TRIPOS>MOLECULE
/home/cewinharhar/GITHUB/reincatalyze/data/processed/docking_pred/2023-May-23-1437_sub9_nm5_bs15_s42_ex16_mel10_mts10000_k50_ec02_g099_lra3e-4_lrc1e-3/25fd2f55844bdf9fb92a90adf0bdb598f7a2ad59_ligand_9.pdbqt
 14 15 0 0 0
SMALL
GASTEIGER

@<TRIPOS>ATOM
      1  C          6.3480    1.2800    0.9170 C.3     1  UNL1        0.0800
      2  C          5.6770    0.4120    1.9240 C.2     1  UNL1        0.1300
      3  C          6.3550   -0.7800    2.5020 C.3     1  UNL1        0.0870
      4  O          4.5440    0.6550    2.3070 O.2     1  UNL1       -0.3000
      5  C          5.8390    0.9940   -0.4820 C.3     1  UNL1        0.0430
      6  C          6.7860    0.1660   -1.2500 C.2     1  UNL1       -0.0440
      7  C          7.4830    0.6780   -2.3500 C.2     1  UNL1        0.0080
      8  C          7.0010   -1.1430   -0.8820 C.2     1  UNL1        0.0540
      9  C          8.3600   -0.1460   -3.0320 C.2     1  UNL1        0.0510
     10  C          7.8890   -1.9720   -1.5740 C.2     1  UNL1        0.1660
     11  C          8.5740   -1.4690   -2.6580 C.2     1  UNL1        0.1650
     12  O          8.2690   -3.2870   -1.4090 O.2     1  UNL1       -0.4540
     13  O          9.3700   -2.4960   -3.1400 O.2     1  UNL1       -0.4540
     14  C          9.2760   -3.6390   -2.3230 C.3     1  UNL1        0.4680
@<TRIPOS>BOND
     1    13    11    1
     2    13    14    1
     3     9    11    2
     4     9     7    1
     5    11    10    1
     6     7     6    2
     7    14    12    1
     8    10    12    1
     9    10     8    2
    10     6     8    1
    11     6     5    1
    12     5     1    1
    13     1     2    1
    14     2     4    2
    15     2     3    1
