@<TRIPOS>MOLECULE
/home/cewinharhar/GITHUB/reincatalyze/data/processed/docking_pred/2023-May-23-1437_sub9_nm5_bs15_s42_ex16_mel10_mts10000_k50_ec02_g099_lra3e-4_lrc1e-3/25fd2f55844bdf9fb92a90adf0bdb598f7a2ad59_ligand_9.pdbqt
 14 15 0 0 0
SMALL
GASTEIGER

@<TRIPOS>ATOM
      1  C          5.6300    0.0620    1.9400 C.3     1  UNL1        0.0800
      2  C          4.7040    1.1830    1.6180 C.2     1  UNL1        0.1300
      3  C          4.9900    2.1410    0.5170 C.3     1  UNL1        0.0870
      4  O          3.6750    1.3490    2.2540 O.2     1  UNL1       -0.3000
      5  C          7.0230    0.3280    1.4050 C.3     1  UNL1        0.0430
      6  C          7.4130   -0.6590    0.3820 C.2     1  UNL1       -0.0440
      7  C          7.3040   -0.3800   -0.9850 C.2     1  UNL1        0.0080
      8  C          7.8990   -1.8870    0.7690 C.2     1  UNL1        0.0540
      9  C          7.6850   -1.3450   -1.9000 C.2     1  UNL1        0.0510
     10  C          8.2840   -2.8590   -0.1590 C.2     1  UNL1        0.1660
     11  C          8.1760   -2.5850   -1.5050 C.2     1  UNL1        0.1650
     12  O          8.7890   -4.1350   -0.0290 O.2     1  UNL1       -0.4540
     13  O          8.6220   -3.7110   -2.1790 O.2     1  UNL1       -0.4540
     14  C          9.1050   -4.6830   -1.2830 C.3     1  UNL1        0.4680
@<TRIPOS>BOND
     1    13    11    1
     2    13    14    1
     3     9    11    2
     4     9     7    1
     5    11    10    1
     6    14    12    1
     7     7     6    2
     8    10    12    1
     9    10     8    2
    10     6     8    1
    11     6     5    1
    12     3     2    1
    13     5     1    1
    14     2     1    1
    15     2     4    2
