@<TRIPOS>MOLECULE
/home/cewinharhar/GITHUB/reincatalyze/data/processed/docking_pred/2023-May-23-1437_sub9_nm5_bs15_s42_ex16_mel10_mts10000_k50_ec02_g099_lra3e-4_lrc1e-3/2734134eb9e7fe1a9a1e6734a306fe03ba38cdbb_ligand_9.pdbqt
 14 15 0 0 0
SMALL
GASTEIGER

@<TRIPOS>ATOM
      1  C          6.2900   -0.1200    0.6510 C.3     1  UNL1        0.0800
      2  C          5.3460    0.8880    1.2110 C.2     1  UNL1        0.1300
      3  C          5.0320    2.1490    0.4890 C.3     1  UNL1        0.0870
      4  O          4.8000    0.7050    2.2870 O.2     1  UNL1       -0.3000
      5  C          6.2420   -1.4150    1.4370 C.3     1  UNL1        0.0430
      6  C          7.5040   -1.6650    2.1550 C.2     1  UNL1       -0.0440
      7  C          8.5580   -2.3700    1.5620 C.2     1  UNL1        0.0080
      8  C          7.6630   -1.1970    3.4390 C.2     1  UNL1        0.0540
      9  C          9.7200   -2.5730    2.2840 C.2     1  UNL1        0.0510
     10  C          8.8390   -1.4040    4.1650 C.2     1  UNL1        0.1660
     11  C          9.8760   -2.0990    3.5830 C.2     1  UNL1        0.1650
     12  O          9.2350   -1.0460    5.4360 O.2     1  UNL1       -0.4540
     13  O         10.8980   -2.1510    4.5180 O.2     1  UNL1       -0.4540
     14  C         10.5680   -1.4180    5.6740 C.3     1  UNL1        0.4680
@<TRIPOS>BOND
     1     3     2    1
     2     1     2    1
     3     1     5    1
     4     2     4    2
     5     5     6    1
     6     7     6    2
     7     7     9    1
     8     6     8    1
     9     9    11    2
    10     8    10    2
    11    11    10    1
    12    11    13    1
    13    10    12    1
    14    13    14    1
    15    12    14    1
