@<TRIPOS>MOLECULE
/home/cewinharhar/GITHUB/reincatalyze/data/processed/docking_pred/2023-May-23-1437_sub9_nm5_bs15_s42_ex16_mel10_mts10000_k50_ec02_g099_lra3e-4_lrc1e-3/287d700aa29cdd08db1558ad291e1b5912b75232_ligand_9.pdbqt
 14 15 0 0 0
SMALL
GASTEIGER

@<TRIPOS>ATOM
      1  C          6.4010    1.2040    0.9450 C.3     1  UNL1        0.0800
      2  C          5.6760    0.3640    1.9390 C.2     1  UNL1        0.1300
      3  C          6.2940   -0.8520    2.5320 C.3     1  UNL1        0.0870
      4  O          4.5460    0.6520    2.2970 O.2     1  UNL1       -0.3000
      5  C          5.9010    0.9470   -0.4630 C.3     1  UNL1        0.0430
      6  C          6.8380    0.1100   -1.2310 C.2     1  UNL1       -0.0440
      7  C          7.5270    0.6100   -2.3420 C.2     1  UNL1        0.0080
      8  C          7.0510   -1.1970   -0.8550 C.2     1  UNL1        0.0540
      9  C          8.3950   -0.2230   -3.0250 C.2     1  UNL1        0.0510
     10  C          7.9300   -2.0350   -1.5480 C.2     1  UNL1        0.1660
     11  C          8.6070   -1.5440   -2.6420 C.2     1  UNL1        0.1650
     12  O          8.3080   -3.3500   -1.3760 O.2     1  UNL1       -0.4540
     13  O          9.3950   -2.5780   -3.1230 O.2     1  UNL1       -0.4540
     14  C          9.3050   -3.7130   -2.2960 C.3     1  UNL1        0.4680
@<TRIPOS>BOND
     1    13    11    1
     2    13    14    1
     3     9    11    2
     4     9     7    1
     5    11    10    1
     6     7     6    2
     7    14    12    1
     8    10    12    1
     9    10     8    2
    10     6     8    1
    11     6     5    1
    12     5     1    1
    13     1     2    1
    14     2     4    2
    15     2     3    1
