@<TRIPOS>MOLECULE
/home/cewinharhar/GITHUB/reincatalyze/data/processed/docking_pred/2023-May-23-1437_sub9_nm5_bs15_s42_ex16_mel10_mts10000_k50_ec02_g099_lra3e-4_lrc1e-3/2b606219d5526e18d91eeb9dfd7a568ae4147191_ligand_9.pdbqt
 14 15 0 0 0
SMALL
GASTEIGER

@<TRIPOS>ATOM
      1  C          5.5440    1.9000    1.2810 C.3     1  UNL1        0.0800
      2  C          5.1070    0.6780    2.0140 C.2     1  UNL1        0.1300
      3  C          6.0050   -0.4960    2.1790 C.3     1  UNL1        0.0870
      4  O          3.9910    0.6060    2.5020 O.2     1  UNL1       -0.3000
      5  C          5.4140    1.7180   -0.2180 C.3     1  UNL1        0.0430
      6  C          6.5780    1.0140   -0.7860 C.2     1  UNL1       -0.0440
      7  C          7.8870    1.4420   -0.5360 C.2     1  UNL1        0.0080
      8  C          6.3840   -0.0920   -1.5810 C.2     1  UNL1        0.0540
      9  C          8.9400    0.7410   -1.0960 C.2     1  UNL1        0.0510
     10  C          7.4520   -0.7980   -2.1440 C.2     1  UNL1        0.1660
     11  C          8.7410   -0.3770   -1.8990 C.2     1  UNL1        0.1650
     12  O          7.5200   -1.9100   -2.9560 O.2     1  UNL1       -0.4540
     13  O          9.5810   -1.2500   -2.5720 O.2     1  UNL1       -0.4540
     14  C          8.8530   -2.2900   -3.1810 C.3     1  UNL1        0.4680
@<TRIPOS>BOND
     1    14    12    1
     2    14    13    1
     3    12    10    1
     4    13    11    1
     5    10    11    2
     6    10     8    1
     7    11     9    1
     8     8     6    2
     9     9     7    2
    10     6     7    1
    11     6     5    1
    12     5     1    1
    13     1     2    1
    14     2     3    1
    15     2     4    2
