@<TRIPOS>MOLECULE
/home/cewinharhar/GITHUB/reincatalyze/data/processed/docking_pred/2023-May-23-1437_sub9_nm5_bs15_s42_ex16_mel10_mts10000_k50_ec02_g099_lra3e-4_lrc1e-3/2b606219d5526e18d91eeb9dfd7a568ae4147191_ligand_9.pdbqt
 14 15 0 0 0
SMALL
GASTEIGER

@<TRIPOS>ATOM
      1  C          5.4060   -0.0600    2.0180 C.3     1  UNL1        0.0800
      2  C          4.5660    1.1450    1.7720 C.2     1  UNL1        0.1300
      3  C          4.9080    2.1330    0.7130 C.3     1  UNL1        0.0870
      4  O          3.5660    1.3580    2.4370 O.2     1  UNL1       -0.3000
      5  C          6.8470    0.1820    1.6130 C.3     1  UNL1        0.0430
      6  C          7.2760   -0.7380    0.5440 C.2     1  UNL1       -0.0440
      7  C          7.1520   -0.4000   -0.8080 C.2     1  UNL1        0.0080
      8  C          7.8160   -1.9610    0.8730 C.2     1  UNL1        0.0540
      9  C          7.5720   -1.3030   -1.7670 C.2     1  UNL1        0.0510
     10  C          8.2400   -2.8700   -0.1010 C.2     1  UNL1        0.1660
     11  C          8.1170   -2.5390   -1.4320 C.2     1  UNL1        0.1650
     12  O          8.8000   -4.1280   -0.0310 O.2     1  UNL1       -0.4540
     13  O          8.6090   -3.6110   -2.1590 O.2     1  UNL1       -0.4540
     14  C          9.1360   -4.6020   -1.3100 C.3     1  UNL1        0.4680
@<TRIPOS>BOND
     1    13    11    1
     2    13    14    1
     3     9    11    2
     4     9     7    1
     5    11    10    1
     6    14    12    1
     7     7     6    2
     8    10    12    1
     9    10     8    2
    10     6     8    1
    11     6     5    1
    12     3     2    1
    13     5     1    1
    14     2     1    1
    15     2     4    2
