@<TRIPOS>MOLECULE
/home/cewinharhar/GITHUB/reincatalyze/data/processed/docking_pred/2023-May-23-1437_sub9_nm5_bs15_s42_ex16_mel10_mts10000_k50_ec02_g099_lra3e-4_lrc1e-3/2b611616233e02901686b2fc0a6dd8ec9c570ff2_ligand_9.pdbqt
 14 15 0 0 0
SMALL
GASTEIGER

@<TRIPOS>ATOM
      1  C          6.3790    1.1810    0.9190 C.3     1  UNL1        0.0800
      2  C          5.6610    0.3740    1.9450 C.2     1  UNL1        0.1300
      3  C          6.2500   -0.8680    2.5140 C.3     1  UNL1        0.0870
      4  O          4.5600    0.7120    2.3500 O.2     1  UNL1       -0.3000
      5  C          5.8630    0.8830   -0.4750 C.3     1  UNL1        0.0430
      6  C          6.8170    0.0690   -1.2490 C.2     1  UNL1       -0.0440
      7  C          7.5060    0.5940   -2.3480 C.2     1  UNL1        0.0080
      8  C          7.0450   -1.2400   -0.8890 C.2     1  UNL1        0.0540
      9  C          8.3900   -0.2180   -3.0360 C.2     1  UNL1        0.0510
     10  C          7.9410   -2.0560   -1.5870 C.2     1  UNL1        0.1660
     11  C          8.6180   -1.5410   -2.6690 C.2     1  UNL1        0.1650
     12  O          8.3350   -3.3680   -1.4300 O.2     1  UNL1       -0.4540
     13  O          9.4230   -2.5570   -3.1590 O.2     1  UNL1       -0.4540
     14  C          9.3430   -3.7050   -2.3480 C.3     1  UNL1        0.4680
@<TRIPOS>BOND
     1    13    11    1
     2    13    14    1
     3     9    11    2
     4     9     7    1
     5    11    10    1
     6     7     6    2
     7    14    12    1
     8    10    12    1
     9    10     8    2
    10     6     8    1
    11     6     5    1
    12     5     1    1
    13     1     2    1
    14     2     4    2
    15     2     3    1
