@<TRIPOS>MOLECULE
/home/cewinharhar/GITHUB/reincatalyze/data/processed/docking_pred/2023-May-23-1437_sub9_nm5_bs15_s42_ex16_mel10_mts10000_k50_ec02_g099_lra3e-4_lrc1e-3/2bd7ebd6000506c3611824cd415c5dddcf27ad2f_ligand_9.pdbqt
 14 15 0 0 0
SMALL
GASTEIGER

@<TRIPOS>ATOM
      1  C          5.5040   -0.2640    1.9320 C.3     1  UNL1        0.0800
      2  C          5.2770    1.0050    1.1850 C.2     1  UNL1        0.1300
      3  C          5.8130    1.2100   -0.1870 C.3     1  UNL1        0.0870
      4  O          4.6400    1.9200    1.6820 O.2     1  UNL1       -0.3000
      5  C          6.5320   -1.1350    1.2380 C.3     1  UNL1        0.0430
      6  C          7.6350   -1.5050    2.1430 C.2     1  UNL1       -0.0440
      7  C          7.6110   -1.1710    3.5020 C.2     1  UNL1        0.0080
      8  C          8.7180   -2.1970    1.6520 C.2     1  UNL1        0.0540
      9  C          8.6740   -1.5460    4.3040 C.2     1  UNL1        0.0510
     10  C          9.7900   -2.5740    2.4660 C.2     1  UNL1        0.1660
     11  C          9.7680   -2.2450    3.8040 C.2     1  UNL1        0.1650
     12  O         10.9630   -3.2540    2.2200 O.2     1  UNL1       -0.4540
     13  O         10.9390   -2.7370    4.3570 O.2     1  UNL1       -0.4540
     14  C         11.6840   -3.4630    3.4080 C.3     1  UNL1        0.4680
@<TRIPOS>BOND
     1     3     2    1
     2     2     4    2
     3     2     1    1
     4     5     1    1
     5     5     6    1
     6     8     6    2
     7     8    10    1
     8     6     7    1
     9    12    10    1
    10    12    14    1
    11    10    11    2
    12    14    13    1
    13     7     9    2
    14    11     9    1
    15    11    13    1
