@<TRIPOS>MOLECULE
/home/cewinharhar/GITHUB/reincatalyze/data/processed/docking_pred/2023-May-23-1437_sub9_nm5_bs15_s42_ex16_mel10_mts10000_k50_ec02_g099_lra3e-4_lrc1e-3/2cf69de7cf34ef354308742c6722c88054a527ce_ligand_9.pdbqt
 14 15 0 0 0
SMALL
GASTEIGER

@<TRIPOS>ATOM
      1  C          5.4090   -0.0470    2.0410 C.3     1  UNL1        0.0800
      2  C          4.5550    1.1440    1.7730 C.2     1  UNL1        0.1300
      3  C          4.8960    2.1240    0.7070 C.3     1  UNL1        0.0870
      4  O          3.5450    1.3510    2.4260 O.2     1  UNL1       -0.3000
      5  C          6.8450    0.2000    1.6250 C.3     1  UNL1        0.0430
      6  C          7.2720   -0.7240    0.5590 C.2     1  UNL1       -0.0440
      7  C          7.1330   -0.3950   -0.7940 C.2     1  UNL1        0.0080
      8  C          7.8240   -1.9400    0.8910 C.2     1  UNL1        0.0540
      9  C          7.5520   -1.3010   -1.7510 C.2     1  UNL1        0.0510
     10  C          8.2470   -2.8530   -0.0810 C.2     1  UNL1        0.1660
     11  C          8.1090   -2.5310   -1.4120 C.2     1  UNL1        0.1650
     12  O          8.8170   -4.1060   -0.0080 O.2     1  UNL1       -0.4540
     13  O          8.6040   -3.6040   -2.1370 O.2     1  UNL1       -0.4540
     14  C          9.1450   -4.5860   -1.2860 C.3     1  UNL1        0.4680
@<TRIPOS>BOND
     1    13    11    1
     2    13    14    1
     3     9    11    2
     4     9     7    1
     5    11    10    1
     6    14    12    1
     7     7     6    2
     8    10    12    1
     9    10     8    2
    10     6     8    1
    11     6     5    1
    12     3     2    1
    13     5     1    1
    14     2     1    1
    15     2     4    2
