@<TRIPOS>MOLECULE
/home/cewinharhar/GITHUB/reincatalyze/data/processed/docking_pred/2023-May-23-1437_sub9_nm5_bs15_s42_ex16_mel10_mts10000_k50_ec02_g099_lra3e-4_lrc1e-3/2f41e52dfc6618f39d2325611a45b0a1c53476a0_ligand_9.pdbqt
 14 15 0 0 0
SMALL
GASTEIGER

@<TRIPOS>ATOM
      1  C          6.7860    0.6320    1.1790 C.3     1  UNL1        0.0800
      2  C          5.4140    1.1810    1.3610 C.2     1  UNL1        0.1300
      3  C          4.8260    2.1500    0.3980 C.3     1  UNL1        0.0870
      4  O          4.7280    0.8490    2.3140 O.2     1  UNL1       -0.3000
      5  C          7.2810    0.8450   -0.2380 C.3     1  UNL1        0.0430
      6  C          7.7170   -0.4170   -0.8610 C.2     1  UNL1       -0.0440
      7  C          7.9440   -0.5150   -2.2380 C.2     1  UNL1        0.0080
      8  C          7.9100   -1.5330   -0.0780 C.2     1  UNL1        0.0540
      9  C          8.3540   -1.7260   -2.7660 C.2     1  UNL1        0.0510
     10  C          8.3250   -2.7540   -0.6160 C.2     1  UNL1        0.1660
     11  C          8.5480   -2.8520   -1.9720 C.2     1  UNL1        0.1650
     12  O          8.5830   -3.9880   -0.0580 O.2     1  UNL1       -0.4540
     13  O          8.9430   -4.1570   -2.2200 O.2     1  UNL1       -0.4540
     14  C          9.0660   -4.8870   -1.0230 C.3     1  UNL1        0.4680
@<TRIPOS>BOND
     1     9     7    1
     2     9    11    2
     3     7     6    2
     4    13    11    1
     5    13    14    1
     6    11    10    1
     7    14    12    1
     8     6     5    1
     9     6     8    1
    10    10     8    2
    11    10    12    1
    12     5     1    1
    13     3     2    1
    14     1     2    1
    15     2     4    2
