@<TRIPOS>MOLECULE
/home/cewinharhar/GITHUB/reincatalyze/data/processed/docking_pred/2023-May-23-1437_sub9_nm5_bs15_s42_ex16_mel10_mts10000_k50_ec02_g099_lra3e-4_lrc1e-3/2f41e52dfc6618f39d2325611a45b0a1c53476a0_ligand_9.pdbqt
 14 15 0 0 0
SMALL
GASTEIGER

@<TRIPOS>ATOM
      1  C          5.8730    1.4510   -0.3000 C.3     1  UNL1        0.0800
      2  C          5.1810    1.2880    1.0090 C.2     1  UNL1        0.1300
      3  C          5.3790    0.0790    1.8520 C.3     1  UNL1        0.0870
      4  O          4.4250    2.1500    1.4300 O.2     1  UNL1       -0.3000
      5  C          7.3470    1.1140   -0.1890 C.3     1  UNL1        0.0430
      6  C          7.6600   -0.1830   -0.8130 C.2     1  UNL1       -0.0440
      7  C          7.6460   -0.3500   -2.2030 C.2     1  UNL1        0.0080
      8  C          7.9760   -1.2630   -0.0210 C.2     1  UNL1        0.0540
      9  C          7.9490   -1.5920   -2.7320 C.2     1  UNL1        0.0510
     10  C          8.2820   -2.5160   -0.5610 C.2     1  UNL1        0.1660
     11  C          8.2680   -2.6810   -1.9280 C.2     1  UNL1        0.1650
     12  O          8.6220   -3.7260    0.0060 O.2     1  UNL1       -0.4540
     13  O          8.6040   -4.0030   -2.1750 O.2     1  UNL1       -0.4540
     14  C          8.9250   -4.6780   -0.9820 C.3     1  UNL1        0.4680
@<TRIPOS>BOND
     1     9     7    1
     2     9    11    2
     3     7     6    2
     4    13    11    1
     5    13    14    1
     6    11    10    1
     7    14    12    1
     8     6     5    1
     9     6     8    1
    10    10     8    2
    11    10    12    1
    12     1     5    1
    13     1     2    1
    14     2     4    2
    15     2     3    1
