@<TRIPOS>MOLECULE
/home/cewinharhar/GITHUB/reincatalyze/data/processed/docking_pred/2023-May-23-1437_sub9_nm5_bs15_s42_ex16_mel10_mts10000_k50_ec02_g099_lra3e-4_lrc1e-3/2f41e52dfc6618f39d2325611a45b0a1c53476a0_ligand_9.pdbqt
 14 15 0 0 0
SMALL
GASTEIGER

@<TRIPOS>ATOM
      1  C          5.5080    1.9240    1.2550 C.3     1  UNL1        0.0800
      2  C          5.0730    0.7080    1.9970 C.2     1  UNL1        0.1300
      3  C          5.9680   -0.4690    2.1600 C.3     1  UNL1        0.0870
      4  O          3.9610    0.6420    2.4960 O.2     1  UNL1       -0.3000
      5  C          5.3860    1.7280   -0.2430 C.3     1  UNL1        0.0430
      6  C          6.5550    1.0240   -0.8000 C.2     1  UNL1       -0.0440
      7  C          7.8610    1.4530   -0.5370 C.2     1  UNL1        0.0080
      8  C          6.3700   -0.0830   -1.5950 C.2     1  UNL1        0.0540
      9  C          8.9200    0.7530   -1.0860 C.2     1  UNL1        0.0510
     10  C          7.4440   -0.7880   -2.1470 C.2     1  UNL1        0.1660
     11  C          8.7290   -0.3660   -1.8910 C.2     1  UNL1        0.1650
     12  O          7.5200   -1.9010   -2.9580 O.2     1  UNL1       -0.4540
     13  O          9.5770   -1.2390   -2.5550 O.2     1  UNL1       -0.4540
     14  C          8.8560   -2.2800   -3.1700 C.3     1  UNL1        0.4680
@<TRIPOS>BOND
     1    14    12    1
     2    14    13    1
     3    12    10    1
     4    13    11    1
     5    10    11    2
     6    10     8    1
     7    11     9    1
     8     8     6    2
     9     9     7    2
    10     6     7    1
    11     6     5    1
    12     5     1    1
    13     1     2    1
    14     2     3    1
    15     2     4    2
