MODEL 1
REMARK VINA RESULT:      -7.7      0.000      0.000
REMARK SMILES CC(=O)CCc1ccc2c(c1)OCO2
REMARK SMILES IDX 4 1 2 2 1 3 3 4 5 5 6 6 7 7 11 8 8 9 10 10 9 11 12 12 14 13
REMARK SMILES IDX 13 14
REMARK H PARENT
REMARK Flexibility Score: inf
ROOT
ATOM      1  C   UNL     1       5.508   1.924   1.255  1.00  0.00     0.080 C 
ENDROOT
BRANCH   1   2
ATOM      2  C   UNL     1       5.073   0.708   1.997  1.00  0.00     0.130 C 
ATOM      3  C   UNL     1       5.968  -0.469   2.160  1.00  0.00     0.087 C 
ATOM      4  O   UNL     1       3.961   0.642   2.496  1.00  0.00    -0.300 OA
ENDBRANCH   1   2
BRANCH   1   5
ATOM      5  C   UNL     1       5.386   1.728  -0.243  1.00  0.00     0.043 C 
BRANCH   5   6
ATOM      6  C   UNL     1       6.555   1.024  -0.800  1.00  0.00    -0.044 A 
ATOM      7  C   UNL     1       7.861   1.453  -0.537  1.00  0.00     0.008 A 
ATOM      8  C   UNL     1       6.370  -0.083  -1.595  1.00  0.00     0.054 A 
ATOM      9  C   UNL     1       8.920   0.753  -1.086  1.00  0.00     0.051 A 
ATOM     10  C   UNL     1       7.444  -0.788  -2.147  1.00  0.00     0.166 A 
ATOM     11  C   UNL     1       8.729  -0.366  -1.891  1.00  0.00     0.165 A 
ATOM     12  O   UNL     1       7.520  -1.901  -2.958  1.00  0.00    -0.454 OA
ATOM     13  O   UNL     1       9.577  -1.239  -2.555  1.00  0.00    -0.454 OA
ATOM     14  C   UNL     1       8.856  -2.280  -3.170  1.00  0.00     0.468 C 
ENDBRANCH   5   6
ENDBRANCH   1   5
TORSDOF 3
ENDMDL
MODEL 2
REMARK VINA RESULT:      -7.4      1.934      2.412
REMARK SMILES CC(=O)CCc1ccc2c(c1)OCO2
REMARK SMILES IDX 4 1 2 2 1 3 3 4 5 5 6 6 7 7 11 8 8 9 10 10 9 11 12 12 14 13
REMARK SMILES IDX 13 14
REMARK H PARENT
REMARK Flexibility Score: inf
ROOT
ATOM      1  C   UNL     1       5.873   1.451  -0.300  1.00  0.00     0.080 C 
ENDROOT
BRANCH   1   2
ATOM      2  C   UNL     1       5.181   1.288   1.009  1.00  0.00     0.130 C 
ATOM      3  C   UNL     1       5.379   0.079   1.852  1.00  0.00     0.087 C 
ATOM      4  O   UNL     1       4.425   2.150   1.430  1.00  0.00    -0.300 OA
ENDBRANCH   1   2
BRANCH   1   5
ATOM      5  C   UNL     1       7.347   1.114  -0.189  1.00  0.00     0.043 C 
BRANCH   5   6
ATOM      6  C   UNL     1       7.660  -0.183  -0.813  1.00  0.00    -0.044 A 
ATOM      7  C   UNL     1       7.646  -0.350  -2.203  1.00  0.00     0.008 A 
ATOM      8  C   UNL     1       7.976  -1.263  -0.021  1.00  0.00     0.054 A 
ATOM      9  C   UNL     1       7.949  -1.592  -2.732  1.00  0.00     0.051 A 
ATOM     10  C   UNL     1       8.282  -2.516  -0.561  1.00  0.00     0.166 A 
ATOM     11  C   UNL     1       8.268  -2.681  -1.928  1.00  0.00     0.165 A 
ATOM     12  O   UNL     1       8.622  -3.726   0.006  1.00  0.00    -0.454 OA
ATOM     13  O   UNL     1       8.604  -4.003  -2.175  1.00  0.00    -0.454 OA
ATOM     14  C   UNL     1       8.925  -4.678  -0.982  1.00  0.00     0.468 C 
ENDBRANCH   5   6
ENDBRANCH   1   5
TORSDOF 3
ENDMDL
MODEL 3
REMARK VINA RESULT:      -7.2      2.042      2.627
REMARK SMILES CC(=O)CCc1ccc2c(c1)OCO2
REMARK SMILES IDX 4 1 2 2 1 3 3 4 5 5 6 6 7 7 11 8 8 9 10 10 9 11 12 12 14 13
REMARK SMILES IDX 13 14
REMARK H PARENT
REMARK Flexibility Score: inf
ROOT
ATOM      1  C   UNL     1       5.374  -0.064   2.069  1.00  0.00     0.080 C 
ENDROOT
BRANCH   1   2
ATOM      2  C   UNL     1       4.535   1.136   1.790  1.00  0.00     0.130 C 
ATOM      3  C   UNL     1       4.899   2.113   0.730  1.00  0.00     0.087 C 
ATOM      4  O   UNL     1       3.519   1.352   2.430  1.00  0.00    -0.300 OA
ENDBRANCH   1   2
BRANCH   1   5
ATOM      5  C   UNL     1       6.820   0.173   1.679  1.00  0.00     0.043 C 
BRANCH   5   6
ATOM      6  C   UNL     1       7.250  -0.733   0.600  1.00  0.00    -0.044 A 
ATOM      7  C   UNL     1       7.118  -0.382  -0.749  1.00  0.00     0.008 A 
ATOM      8  C   UNL     1       7.799  -1.956   0.914  1.00  0.00     0.054 A 
ATOM      9  C   UNL     1       7.540  -1.273  -1.718  1.00  0.00     0.051 A 
ATOM     10  C   UNL     1       8.225  -2.853  -0.070  1.00  0.00     0.166 A 
ATOM     11  C   UNL     1       8.094  -2.509  -1.397  1.00  0.00     0.165 A 
ATOM     12  O   UNL     1       8.792  -4.108  -0.015  1.00  0.00    -0.454 OA
ATOM     13  O   UNL     1       8.590  -3.571  -2.137  1.00  0.00    -0.454 OA
ATOM     14  C   UNL     1       9.126  -4.567  -1.300  1.00  0.00     0.468 C 
ENDBRANCH   5   6
ENDBRANCH   1   5
TORSDOF 3
ENDMDL
MODEL 4
REMARK VINA RESULT:      -7.1      1.263      1.480
REMARK SMILES CC(=O)CCc1ccc2c(c1)OCO2
REMARK SMILES IDX 4 1 2 2 1 3 3 4 5 5 6 6 7 7 11 8 8 9 10 10 9 11 12 12 14 13
REMARK SMILES IDX 13 14
REMARK H PARENT
REMARK Flexibility Score: inf
ROOT
ATOM      1  C   UNL     1       6.412   1.194   0.938  1.00  0.00     0.080 C 
ENDROOT
BRANCH   1   2
ATOM      2  C   UNL     1       5.678   0.357   1.928  1.00  0.00     0.130 C 
ATOM      3  C   UNL     1       6.272  -0.883   2.495  1.00  0.00     0.087 C 
ATOM      4  O   UNL     1       4.559   0.668   2.304  1.00  0.00    -0.300 OA
ENDBRANCH   1   2
BRANCH   1   5
ATOM      5  C   UNL     1       5.907   0.951  -0.470  1.00  0.00     0.043 C 
BRANCH   5   6
ATOM      6  C   UNL     1       6.837   0.113  -1.247  1.00  0.00    -0.044 A 
ATOM      7  C   UNL     1       7.514   0.612  -2.366  1.00  0.00     0.008 A 
ATOM      8  C   UNL     1       7.055  -1.193  -0.871  1.00  0.00     0.054 A 
ATOM      9  C   UNL     1       8.376  -0.221  -3.056  1.00  0.00     0.051 A 
ATOM     10  C   UNL     1       7.928  -2.031  -1.572  1.00  0.00     0.166 A 
ATOM     11  C   UNL     1       8.593  -1.541  -2.673  1.00  0.00     0.165 A 
ATOM     12  O   UNL     1       8.308  -3.345  -1.402  1.00  0.00    -0.454 OA
ATOM     13  O   UNL     1       9.377  -2.575  -3.161  1.00  0.00    -0.454 OA
ATOM     14  C   UNL     1       9.296  -3.709  -2.331  1.00  0.00     0.468 C 
ENDBRANCH   5   6
ENDBRANCH   1   5
TORSDOF 3
ENDMDL
MODEL 5
REMARK VINA RESULT:      -7.0      1.993      2.594
REMARK SMILES CC(=O)CCc1ccc2c(c1)OCO2
REMARK SMILES IDX 4 1 2 2 1 3 3 4 5 5 6 6 7 7 11 8 8 9 10 10 9 11 12 12 14 13
REMARK SMILES IDX 13 14
REMARK H PARENT
REMARK Flexibility Score: inf
ROOT
ATOM      1  C   UNL     1       6.786   0.632   1.179  1.00  0.00     0.080 C 
ENDROOT
BRANCH   1   2
ATOM      2  C   UNL     1       5.414   1.181   1.361  1.00  0.00     0.130 C 
ATOM      3  C   UNL     1       4.826   2.150   0.398  1.00  0.00     0.087 C 
ATOM      4  O   UNL     1       4.728   0.849   2.314  1.00  0.00    -0.300 OA
ENDBRANCH   1   2
BRANCH   1   5
ATOM      5  C   UNL     1       7.281   0.845  -0.238  1.00  0.00     0.043 C 
BRANCH   5   6
ATOM      6  C   UNL     1       7.717  -0.417  -0.861  1.00  0.00    -0.044 A 
ATOM      7  C   UNL     1       7.944  -0.515  -2.238  1.00  0.00     0.008 A 
ATOM      8  C   UNL     1       7.910  -1.533  -0.078  1.00  0.00     0.054 A 
ATOM      9  C   UNL     1       8.354  -1.726  -2.766  1.00  0.00     0.051 A 
ATOM     10  C   UNL     1       8.325  -2.754  -0.616  1.00  0.00     0.166 A 
ATOM     11  C   UNL     1       8.548  -2.852  -1.972  1.00  0.00     0.165 A 
ATOM     12  O   UNL     1       8.583  -3.988  -0.058  1.00  0.00    -0.454 OA
ATOM     13  O   UNL     1       8.943  -4.157  -2.220  1.00  0.00    -0.454 OA
ATOM     14  C   UNL     1       9.066  -4.887  -1.023  1.00  0.00     0.468 C 
ENDBRANCH   5   6
ENDBRANCH   1   5
TORSDOF 3
ENDMDL
