@<TRIPOS>MOLECULE
/home/cewinharhar/GITHUB/reincatalyze/data/processed/docking_pred/2023-May-23-1437_sub9_nm5_bs15_s42_ex16_mel10_mts10000_k50_ec02_g099_lra3e-4_lrc1e-3/30246d56752cb6be0208f58fab85103c625ac011_ligand_9.pdbqt
 14 15 0 0 0
SMALL
GASTEIGER

@<TRIPOS>ATOM
      1  C          5.5430    1.9120    1.2530 C.3     1  UNL1        0.0800
      2  C          5.0990    0.7050    2.0050 C.2     1  UNL1        0.1300
      3  C          5.9940   -0.4670    2.1980 C.3     1  UNL1        0.0870
      4  O          3.9800    0.6440    2.4870 O.2     1  UNL1       -0.3000
      5  C          5.4080    1.7090   -0.2430 C.3     1  UNL1        0.0430
      6  C          6.5760    1.0110   -0.8080 C.2     1  UNL1       -0.0440
      7  C          7.8820    1.4530   -0.5660 C.2     1  UNL1        0.0080
      8  C          6.3900   -0.1050   -1.5920 C.2     1  UNL1        0.0540
      9  C          8.9400    0.7570   -1.1220 C.2     1  UNL1        0.0510
     10  C          7.4630   -0.8050   -2.1510 C.2     1  UNL1        0.1660
     11  C          8.7480   -0.3710   -1.9140 C.2     1  UNL1        0.1650
     12  O          7.5390   -1.9240   -2.9530 O.2     1  UNL1       -0.4540
     13  O          9.5950   -1.2410   -2.5820 O.2     1  UNL1       -0.4540
     14  C          8.8750   -2.2940   -3.1790 C.3     1  UNL1        0.4680
@<TRIPOS>BOND
     1    14    12    1
     2    14    13    1
     3    12    10    1
     4    13    11    1
     5    10    11    2
     6    10     8    1
     7    11     9    1
     8     8     6    2
     9     9     7    2
    10     6     7    1
    11     6     5    1
    12     5     1    1
    13     1     2    1
    14     2     3    1
    15     2     4    2
