@<TRIPOS>MOLECULE
/home/cewinharhar/GITHUB/reincatalyze/data/processed/docking_pred/2023-May-23-1437_sub9_nm5_bs15_s42_ex16_mel10_mts10000_k50_ec02_g099_lra3e-4_lrc1e-3/30246d56752cb6be0208f58fab85103c625ac011_ligand_9.pdbqt
 14 15 0 0 0
SMALL
GASTEIGER

@<TRIPOS>ATOM
      1  C          5.5190   -0.0280    1.9410 C.3     1  UNL1        0.0800
      2  C          4.6580    1.1490    1.6360 C.2     1  UNL1        0.1300
      3  C          4.9750    2.0770    0.5180 C.3     1  UNL1        0.0870
      4  O          3.6620    1.3860    2.3000 O.2     1  UNL1       -0.3000
      5  C          6.9500    0.2060    1.4990 C.3     1  UNL1        0.0430
      6  C          7.3620   -0.7470    0.4540 C.2     1  UNL1       -0.0440
      7  C          7.2490   -0.4370   -0.9070 C.2     1  UNL1        0.0080
      8  C          7.8730   -1.9740    0.8120 C.2     1  UNL1        0.0540
      9  C          7.6520   -1.3710   -1.8440 C.2     1  UNL1        0.0510
     10  C          8.2800   -2.9140   -0.1400 C.2     1  UNL1        0.1660
     11  C          8.1680   -2.6100   -1.4780 C.2     1  UNL1        0.1650
     12  O          8.8110   -4.1830   -0.0400 O.2     1  UNL1       -0.4540
     13  O          8.6390   -3.7090   -2.1790 O.2     1  UNL1       -0.4540
     14  C          9.1410   -4.6930   -1.3060 C.3     1  UNL1        0.4680
@<TRIPOS>BOND
     1    13    11    1
     2    13    14    1
     3     9    11    2
     4     9     7    1
     5    11    10    1
     6    14    12    1
     7     7     6    2
     8    10    12    1
     9    10     8    2
    10     6     8    1
    11     6     5    1
    12     3     2    1
    13     5     1    1
    14     2     1    1
    15     2     4    2
