@<TRIPOS>MOLECULE
/home/cewinharhar/GITHUB/reincatalyze/data/processed/docking_pred/2023-May-23-1437_sub9_nm5_bs15_s42_ex16_mel10_mts10000_k50_ec02_g099_lra3e-4_lrc1e-3/30246d56752cb6be0208f58fab85103c625ac011_ligand_9.pdbqt
 14 15 0 0 0
SMALL
GASTEIGER

@<TRIPOS>ATOM
      1  C          6.3830    1.1770    0.9720 C.3     1  UNL1        0.0800
      2  C          5.6780    0.3190    1.9650 C.2     1  UNL1        0.1300
      3  C          6.3080   -0.9060    2.5260 C.3     1  UNL1        0.0870
      4  O          4.5540    0.6000    2.3490 O.2     1  UNL1       -0.3000
      5  C          5.8670    0.9310   -0.4320 C.3     1  UNL1        0.0430
      6  C          6.8040    0.1140   -1.2230 C.2     1  UNL1       -0.0440
      7  C          7.4660    0.6340   -2.3420 C.2     1  UNL1        0.0080
      8  C          7.0430   -1.1930   -0.8620 C.2     1  UNL1        0.0540
      9  C          8.3350   -0.1800   -3.0450 C.2     1  UNL1        0.0510
     10  C          7.9240   -2.0110   -1.5760 C.2     1  UNL1        0.1660
     11  C          8.5740   -1.5010   -2.6770 C.2     1  UNL1        0.1650
     12  O          8.3240   -3.3210   -1.4210 O.2     1  UNL1       -0.4540
     13  O          9.3700   -2.5180   -3.1800 O.2     1  UNL1       -0.4540
     14  C          9.3110   -3.6610   -2.3610 C.3     1  UNL1        0.4680
@<TRIPOS>BOND
     1    13    11    1
     2    13    14    1
     3     9    11    2
     4     9     7    1
     5    11    10    1
     6    14    12    1
     7     7     6    2
     8    10    12    1
     9    10     8    2
    10     6     8    1
    11     6     5    1
    12     5     1    1
    13     1     2    1
    14     2     4    2
    15     2     3    1
