@<TRIPOS>MOLECULE
/home/cewinharhar/GITHUB/reincatalyze/data/processed/docking_pred/2023-May-23-1437_sub9_nm5_bs15_s42_ex16_mel10_mts10000_k50_ec02_g099_lra3e-4_lrc1e-3/30246d56752cb6be0208f58fab85103c625ac011_ligand_9.pdbqt
 14 15 0 0 0
SMALL
GASTEIGER

@<TRIPOS>ATOM
      1  C          8.3240    0.2500   -2.5270 C.3     1  UNL1        0.0800
      2  C          8.0040   -1.1940   -2.7000 C.2     1  UNL1        0.1300
      3  C          9.0620   -2.1980   -2.9940 C.3     1  UNL1        0.0870
      4  O          6.8560   -1.5980   -2.6050 O.2     1  UNL1       -0.3000
      5  C          8.8170    0.5400   -1.1230 C.3     1  UNL1        0.0430
      6  C          7.7440    0.3890   -0.1240 C.2     1  UNL1       -0.0440
      7  C          7.7650   -0.6400    0.8250 C.2     1  UNL1        0.0080
      8  C          6.6910    1.2760   -0.1140 C.2     1  UNL1        0.0540
      9  C          6.7300   -0.7320    1.7380 C.2     1  UNL1        0.0510
     10  C          5.6480    1.1790    0.8120 C.2     1  UNL1        0.1660
     11  C          5.6680    0.1670    1.7450 C.2     1  UNL1        0.1650
     12  O          4.5080    1.9250    1.0240 O.2     1  UNL1       -0.4540
     13  O          4.5280    0.3140    2.5190 O.2     1  UNL1       -0.4540
     14  C          3.8110    1.4690    2.1550 C.3     1  UNL1        0.4680
@<TRIPOS>BOND
     1     3     2    1
     2     2     4    2
     3     2     1    1
     4     1     5    1
     5     5     6    1
     6     6     8    2
     7     6     7    1
     8     8    10    1
     9    10    12    1
    10    10    11    2
    11     7     9    2
    12    12    14    1
    13     9    11    1
    14    11    13    1
    15    14    13    1
