@<TRIPOS>MOLECULE
/home/cewinharhar/GITHUB/reincatalyze/data/processed/docking_pred/2023-May-23-1437_sub9_nm5_bs15_s42_ex16_mel10_mts10000_k50_ec02_g099_lra3e-4_lrc1e-3/30246d56752cb6be0208f58fab85103c625ac011_ligand_9.pdbqt
 14 15 0 0 0
SMALL
GASTEIGER

@<TRIPOS>ATOM
      1  C          5.7440    1.4040   -0.2580 C.3     1  UNL1        0.0800
      2  C          5.1010    1.2680    1.0790 C.2     1  UNL1        0.1300
      3  C          5.3770    0.1040    1.9630 C.3     1  UNL1        0.0870
      4  O          4.3240    2.1150    1.4890 O.2     1  UNL1       -0.3000
      5  C          7.2350    1.1420   -0.1820 C.3     1  UNL1        0.0430
      6  C          7.5960   -0.1480   -0.7960 C.2     1  UNL1       -0.0440
      7  C          7.6380   -0.3120   -2.1850 C.2     1  UNL1        0.0080
      8  C          7.9030   -1.2230    0.0060 C.2     1  UNL1        0.0540
      9  C          7.9850   -1.5460   -2.7050 C.2     1  UNL1        0.0510
     10  C          8.2530   -2.4680   -0.5240 C.2     1  UNL1        0.1660
     11  C          8.2940   -2.6310   -1.8910 C.2     1  UNL1        0.1650
     12  O          8.5950   -3.6730    0.0530 O.2     1  UNL1       -0.4540
     13  O          8.6650   -3.9450   -2.1280 O.2     1  UNL1       -0.4540
     14  C          8.9540   -4.6160   -0.9240 C.3     1  UNL1        0.4680
@<TRIPOS>BOND
     1     9     7    1
     2     9    11    2
     3     7     6    2
     4    13    11    1
     5    13    14    1
     6    11    10    1
     7    14    12    1
     8     6     5    1
     9     6     8    1
    10    10     8    2
    11    10    12    1
    12     1     5    1
    13     1     2    1
    14     2     4    2
    15     2     3    1
