@<TRIPOS>MOLECULE
/home/cewinharhar/GITHUB/reincatalyze/data/processed/docking_pred/2023-May-23-1437_sub9_nm5_bs15_s42_ex16_mel10_mts10000_k50_ec02_g099_lra3e-4_lrc1e-3/306d1dfeb5e1085b4f3e24b09348dc81ae645662_ligand_9.pdbqt
 14 15 0 0 0
SMALL
GASTEIGER

@<TRIPOS>ATOM
      1  C          5.3090   -0.0870    1.9710 C.3     1  UNL1        0.0800
      2  C          4.4360    1.1070    1.7930 C.2     1  UNL1        0.1300
      3  C          4.7250    2.1380    0.7600 C.3     1  UNL1        0.0870
      4  O          3.4520    1.2740    2.4950 O.2     1  UNL1       -0.3000
      5  C          6.7760    0.2900    1.9170 C.3     1  UNL1        0.0430
      6  C          7.3820   -0.0580    0.6190 C.2     1  UNL1       -0.0440
      7  C          7.8710    0.9250   -0.2490 C.2     1  UNL1        0.0080
      8  C          7.4760   -1.3790    0.2430 C.2     1  UNL1        0.0540
      9  C          8.4300    0.5380   -1.4530 C.2     1  UNL1        0.0510
     10  C          8.0430   -1.7650   -0.9750 C.2     1  UNL1        0.1660
     11  C          8.5240   -0.7980   -1.8310 C.2     1  UNL1        0.1650
     12  O          8.2490   -2.9920   -1.5690 O.2     1  UNL1       -0.4540
     13  O          9.0210   -1.4590   -2.9430 O.2     1  UNL1       -0.4540
     14  C          8.9490   -2.8550   -2.7790 C.3     1  UNL1        0.4680
@<TRIPOS>BOND
     1    13    14    1
     2    13    11    1
     3    14    12    1
     4    11     9    2
     5    11    10    1
     6    12    10    1
     7     9     7    1
     8    10     8    2
     9     7     6    2
    10     8     6    1
    11     6     5    1
    12     3     2    1
    13     2     1    1
    14     2     4    2
    15     5     1    1
