@<TRIPOS>MOLECULE
/home/cewinharhar/GITHUB/reincatalyze/data/processed/docking_pred/2023-May-23-1437_sub9_nm5_bs15_s42_ex16_mel10_mts10000_k50_ec02_g099_lra3e-4_lrc1e-3/306d1dfeb5e1085b4f3e24b09348dc81ae645662_ligand_9.pdbqt
 14 15 0 0 0
SMALL
GASTEIGER

@<TRIPOS>ATOM
      1  C          5.5220   -0.0340    1.9520 C.3     1  UNL1        0.0800
      2  C          4.6600    1.1440    1.6560 C.2     1  UNL1        0.1300
      3  C          4.9920    2.1020    0.5680 C.3     1  UNL1        0.0870
      4  O          3.6480    1.3590    2.3050 O.2     1  UNL1       -0.3000
      5  C          6.9490    0.2010    1.4990 C.3     1  UNL1        0.0430
      6  C          7.3550   -0.7560    0.4540 C.2     1  UNL1       -0.0440
      7  C          7.2160   -0.4580   -0.9060 C.2     1  UNL1        0.0080
      8  C          7.8870   -1.9730    0.8130 C.2     1  UNL1        0.0540
      9  C          7.6150   -1.3950   -1.8430 C.2     1  UNL1        0.0510
     10  C          8.2890   -2.9170   -0.1370 C.2     1  UNL1        0.1660
     11  C          8.1520   -2.6250   -1.4760 C.2     1  UNL1        0.1650
     12  O          8.8370   -4.1780   -0.0360 O.2     1  UNL1       -0.4540
     13  O          8.6240   -3.7240   -2.1760 O.2     1  UNL1       -0.4540
     14  C          9.1520   -4.6940   -1.3030 C.3     1  UNL1        0.4680
@<TRIPOS>BOND
     1    13    11    1
     2    13    14    1
     3     9    11    2
     4     9     7    1
     5    11    10    1
     6    14    12    1
     7     7     6    2
     8    10    12    1
     9    10     8    2
    10     6     8    1
    11     6     5    1
    12     3     2    1
    13     5     1    1
    14     2     1    1
    15     2     4    2
