@<TRIPOS>MOLECULE
/home/cewinharhar/GITHUB/reincatalyze/data/processed/docking_pred/2023-May-23-1437_sub9_nm5_bs15_s42_ex16_mel10_mts10000_k50_ec02_g099_lra3e-4_lrc1e-3/31018d4d3337f577513d0037205f1d699057d88b_ligand_9.pdbqt
 14 15 0 0 0
SMALL
GASTEIGER

@<TRIPOS>ATOM
      1  C          5.5470    0.0120    1.9420 C.3     1  UNL1        0.0800
      2  C          4.6590    1.1690    1.6390 C.2     1  UNL1        0.1300
      3  C          4.9580    2.1140    0.5300 C.3     1  UNL1        0.0870
      4  O          3.6530    1.3760    2.2980 O.2     1  UNL1       -0.3000
      5  C          6.9630    0.2650    1.4640 C.3     1  UNL1        0.0430
      6  C          7.3700   -0.7000    0.4270 C.2     1  UNL1       -0.0440
      7  C          7.2660   -0.3990   -0.9360 C.2     1  UNL1        0.0080
      8  C          7.8700   -1.9280    0.7970 C.2     1  UNL1        0.0540
      9  C          7.6650   -1.3440   -1.8630 C.2     1  UNL1        0.0510
     10  C          8.2730   -2.8790   -0.1450 C.2     1  UNL1        0.1660
     11  C          8.1690   -2.5850   -1.4860 C.2     1  UNL1        0.1650
     12  O          8.7920   -4.1510   -0.0330 O.2     1  UNL1       -0.4540
     13  O          8.6330   -3.6930   -2.1770 O.2     1  UNL1       -0.4540
     14  C          9.1230   -4.6740   -1.2940 C.3     1  UNL1        0.4680
@<TRIPOS>BOND
     1    13    11    1
     2    13    14    1
     3     9    11    2
     4     9     7    1
     5    11    10    1
     6    14    12    1
     7     7     6    2
     8    10    12    1
     9    10     8    2
    10     6     8    1
    11     6     5    1
    12     3     2    1
    13     5     1    1
    14     2     1    1
    15     2     4    2
