MODEL 1
REMARK VINA RESULT:      -7.6      0.000      0.000
REMARK SMILES CC(=O)CCc1ccc2c(c1)OCO2
REMARK SMILES IDX 4 1 2 2 1 3 3 4 5 5 6 6 7 7 11 8 8 9 10 10 9 11 12 12 14 13
REMARK SMILES IDX 13 14
REMARK H PARENT
REMARK Flexibility Score: inf
ROOT
ATOM      1  C   UNL     1       5.578   1.893   1.306  1.00  0.00     0.080 C 
ENDROOT
BRANCH   1   2
ATOM      2  C   UNL     1       5.124   0.673   2.030  1.00  0.00     0.130 C 
ATOM      3  C   UNL     1       6.010  -0.511   2.197  1.00  0.00     0.087 C 
ATOM      4  O   UNL     1       4.004   0.609   2.510  1.00  0.00    -0.300 OA
ENDBRANCH   1   2
BRANCH   1   5
ATOM      5  C   UNL     1       5.440   1.726  -0.194  1.00  0.00     0.043 C 
BRANCH   5   6
ATOM      6  C   UNL     1       6.598   1.023  -0.775  1.00  0.00    -0.044 A 
ATOM      7  C   UNL     1       7.909   1.457  -0.547  1.00  0.00     0.008 A 
ATOM      8  C   UNL     1       6.398  -0.090  -1.559  1.00  0.00     0.054 A 
ATOM      9  C   UNL     1       8.956   0.757  -1.117  1.00  0.00     0.051 A 
ATOM     10  C   UNL     1       7.460  -0.794  -2.133  1.00  0.00     0.166 A 
ATOM     11  C   UNL     1       8.750  -0.367  -1.910  1.00  0.00     0.165 A 
ATOM     12  O   UNL     1       7.521  -1.912  -2.939  1.00  0.00    -0.454 OA
ATOM     13  O   UNL     1       9.585  -1.240  -2.590  1.00  0.00    -0.454 OA
ATOM     14  C   UNL     1       8.852  -2.287  -3.181  1.00  0.00     0.468 C 
ENDBRANCH   5   6
ENDBRANCH   1   5
TORSDOF 3
ENDMDL
MODEL 2
REMARK VINA RESULT:      -7.3      1.949      2.456
REMARK SMILES CC(=O)CCc1ccc2c(c1)OCO2
REMARK SMILES IDX 4 1 2 2 1 3 3 4 5 5 6 6 7 7 11 8 8 9 10 10 9 11 12 12 14 13
REMARK SMILES IDX 13 14
REMARK H PARENT
REMARK Flexibility Score: inf
ROOT
ATOM      1  C   UNL     1       5.838   1.298  -0.320  1.00  0.00     0.080 C 
ENDROOT
BRANCH   1   2
ATOM      2  C   UNL     1       5.284   1.189   1.058  1.00  0.00     0.130 C 
ATOM      3  C   UNL     1       5.341  -0.084   1.825  1.00  0.00     0.087 C 
ATOM      4  O   UNL     1       4.762   2.149   1.601  1.00  0.00    -0.300 OA
ENDBRANCH   1   2
BRANCH   1   5
ATOM      5  C   UNL     1       7.333   1.049  -0.334  1.00  0.00     0.043 C 
BRANCH   5   6
ATOM      6  C   UNL     1       7.664  -0.261  -0.921  1.00  0.00    -0.044 A 
ATOM      7  C   UNL     1       7.676  -0.462  -2.306  1.00  0.00     0.008 A 
ATOM      8  C   UNL     1       7.973  -1.320  -0.097  1.00  0.00     0.054 A 
ATOM      9  C   UNL     1       7.995  -1.713  -2.800  1.00  0.00     0.051 A 
ATOM     10  C   UNL     1       8.295  -2.583  -0.602  1.00  0.00     0.166 A 
ATOM     11  C   UNL     1       8.306  -2.781  -1.964  1.00  0.00     0.165 A 
ATOM     12  O   UNL     1       8.632  -3.777  -0.000  1.00  0.00    -0.454 OA
ATOM     13  O   UNL     1       8.655  -4.107  -2.174  1.00  0.00    -0.454 OA
ATOM     14  C   UNL     1       8.959  -4.750  -0.959  1.00  0.00     0.468 C 
ENDBRANCH   5   6
ENDBRANCH   1   5
TORSDOF 3
ENDMDL
MODEL 3
REMARK VINA RESULT:      -7.2      2.044      2.574
REMARK SMILES CC(=O)CCc1ccc2c(c1)OCO2
REMARK SMILES IDX 4 1 2 2 1 3 3 4 5 5 6 6 7 7 11 8 8 9 10 10 9 11 12 12 14 13
REMARK SMILES IDX 13 14
REMARK H PARENT
REMARK Flexibility Score: inf
ROOT
ATOM      1  C   UNL     1       5.519   0.087   2.028  1.00  0.00     0.080 C 
ENDROOT
BRANCH   1   2
ATOM      2  C   UNL     1       4.580   1.203   1.728  1.00  0.00     0.130 C 
ATOM      3  C   UNL     1       4.821   2.144   0.602  1.00  0.00     0.087 C 
ATOM      4  O   UNL     1       3.579   1.379   2.403  1.00  0.00    -0.300 OA
ENDBRANCH   1   2
BRANCH   1   5
ATOM      5  C   UNL     1       6.908   0.378   1.496  1.00  0.00     0.043 C 
BRANCH   5   6
ATOM      6  C   UNL     1       7.311  -0.591   0.461  1.00  0.00    -0.044 A 
ATOM      7  C   UNL     1       7.175  -0.306  -0.902  1.00  0.00     0.008 A 
ATOM      8  C   UNL     1       7.838  -1.807   0.833  1.00  0.00     0.054 A 
ATOM      9  C   UNL     1       7.571  -1.254  -1.829  1.00  0.00     0.051 A 
ATOM     10  C   UNL     1       8.237  -2.761  -0.107  1.00  0.00     0.166 A 
ATOM     11  C   UNL     1       8.102  -2.483  -1.449  1.00  0.00     0.165 A 
ATOM     12  O   UNL     1       8.780  -4.024   0.007  1.00  0.00    -0.454 OA
ATOM     13  O   UNL     1       8.571  -3.590  -2.138  1.00  0.00    -0.454 OA
ATOM     14  C   UNL     1       9.094  -4.554  -1.255  1.00  0.00     0.468 C 
ENDBRANCH   5   6
ENDBRANCH   1   5
TORSDOF 3
ENDMDL
MODEL 4
REMARK VINA RESULT:      -7.1      1.250      1.463
REMARK SMILES CC(=O)CCc1ccc2c(c1)OCO2
REMARK SMILES IDX 4 1 2 2 1 3 3 4 5 5 6 6 7 7 11 8 8 9 10 10 9 11 12 12 14 13
REMARK SMILES IDX 13 14
REMARK H PARENT
REMARK Flexibility Score: inf
ROOT
ATOM      1  C   UNL     1       6.389   1.190   0.949  1.00  0.00     0.080 C 
ENDROOT
BRANCH   1   2
ATOM      2  C   UNL     1       5.648   0.374   1.952  1.00  0.00     0.130 C 
ATOM      3  C   UNL     1       6.238  -0.855   2.548  1.00  0.00     0.087 C 
ATOM      4  O   UNL     1       4.528   0.694   2.315  1.00  0.00    -0.300 OA
ENDBRANCH   1   2
BRANCH   1   5
ATOM      5  C   UNL     1       5.880   0.931  -0.455  1.00  0.00     0.043 C 
BRANCH   5   6
ATOM      6  C   UNL     1       6.817   0.101  -1.232  1.00  0.00    -0.044 A 
ATOM      7  C   UNL     1       7.479   0.602  -2.359  1.00  0.00     0.008 A 
ATOM      8  C   UNL     1       7.057  -1.199  -0.848  1.00  0.00     0.054 A 
ATOM      9  C   UNL     1       8.348  -0.224  -3.049  1.00  0.00     0.051 A 
ATOM     10  C   UNL     1       7.937  -2.029  -1.548  1.00  0.00     0.166 A 
ATOM     11  C   UNL     1       8.588  -1.537  -2.658  1.00  0.00     0.165 A 
ATOM     12  O   UNL     1       8.338  -3.336  -1.371  1.00  0.00    -0.454 OA
ATOM     13  O   UNL     1       9.383  -2.563  -3.143  1.00  0.00    -0.454 OA
ATOM     14  C   UNL     1       9.325  -3.692  -2.305  1.00  0.00     0.468 C 
ENDBRANCH   5   6
ENDBRANCH   1   5
TORSDOF 3
ENDMDL
MODEL 5
REMARK VINA RESULT:      -6.7      1.261      5.270
REMARK SMILES CC(=O)CCc1ccc2c(c1)OCO2
REMARK SMILES IDX 4 1 2 2 1 3 3 4 5 5 6 6 7 7 11 8 8 9 10 10 9 11 12 12 14 13
REMARK SMILES IDX 13 14
REMARK H PARENT
REMARK Flexibility Score: inf
ROOT
ATOM      1  C   UNL     1       8.572   0.245  -2.599  1.00  0.00     0.080 C 
ENDROOT
BRANCH   1   2
ATOM      2  C   UNL     1       8.497  -1.234  -2.759  1.00  0.00     0.130 C 
ATOM      3  C   UNL     1       7.194  -1.945  -2.844  1.00  0.00     0.087 C 
ATOM      4  O   UNL     1       9.512  -1.909  -2.825  1.00  0.00    -0.300 OA
ENDBRANCH   1   2
BRANCH   1   5
ATOM      5  C   UNL     1       9.030   0.625  -1.204  1.00  0.00     0.043 C 
BRANCH   5   6
ATOM      6  C   UNL     1       7.956   0.451  -0.210  1.00  0.00    -0.044 A 
ATOM      7  C   UNL     1       8.007  -0.562   0.754  1.00  0.00     0.008 A 
ATOM      8  C   UNL     1       6.874   1.301  -0.220  1.00  0.00     0.054 A 
ATOM      9  C   UNL     1       6.971  -0.677   1.662  1.00  0.00     0.051 A 
ATOM     10  C   UNL     1       5.828   1.181   0.701  1.00  0.00     0.166 A 
ATOM     11  C   UNL     1       5.877   0.183   1.650  1.00  0.00     0.165 A 
ATOM     12  O   UNL     1       4.661   1.889   0.895  1.00  0.00    -0.454 OA
ATOM     13  O   UNL     1       4.728   0.302   2.415  1.00  0.00    -0.454 OA
ATOM     14  C   UNL     1       3.973   1.426   2.029  1.00  0.00     0.468 C 
ENDBRANCH   5   6
ENDBRANCH   1   5
TORSDOF 3
ENDMDL
