MODEL 1
REMARK VINA RESULT:      -7.6      0.000      0.000
REMARK SMILES CC(=O)CCc1ccc2c(c1)OCO2
REMARK SMILES IDX 4 1 2 2 1 3 3 4 5 5 6 6 7 7 11 8 8 9 10 10 9 11 12 12 14 13
REMARK SMILES IDX 13 14
REMARK H PARENT
REMARK Flexibility Score: inf
ROOT
ATOM      1  C   UNL     1       5.550   1.910   1.281  1.00  0.00     0.080 C 
ENDROOT
BRANCH   1   2
ATOM      2  C   UNL     1       5.106   0.693   2.016  1.00  0.00     0.130 C 
ATOM      3  C   UNL     1       6.000  -0.483   2.192  1.00  0.00     0.087 C 
ATOM      4  O   UNL     1       3.986   0.625   2.497  1.00  0.00    -0.300 OA
ENDBRANCH   1   2
BRANCH   1   5
ATOM      5  C   UNL     1       5.417   1.727  -0.218  1.00  0.00     0.043 C 
BRANCH   5   6
ATOM      6  C   UNL     1       6.581   1.026  -0.789  1.00  0.00    -0.044 A 
ATOM      7  C   UNL     1       7.889   1.461  -0.546  1.00  0.00     0.008 A 
ATOM      8  C   UNL     1       6.389  -0.084  -1.579  1.00  0.00     0.054 A 
ATOM      9  C   UNL     1       8.943   0.763  -1.108  1.00  0.00     0.051 A 
ATOM     10  C   UNL     1       7.458  -0.787  -2.144  1.00  0.00     0.166 A 
ATOM     11  C   UNL     1       8.745  -0.359  -1.907  1.00  0.00     0.165 A 
ATOM     12  O   UNL     1       7.527  -1.901  -2.952  1.00  0.00    -0.454 OA
ATOM     13  O   UNL     1       9.587  -1.230  -2.580  1.00  0.00    -0.454 OA
ATOM     14  C   UNL     1       8.862  -2.276  -3.181  1.00  0.00     0.468 C 
ENDBRANCH   5   6
ENDBRANCH   1   5
TORSDOF 3
ENDMDL
MODEL 2
REMARK VINA RESULT:      -7.4      1.940      2.394
REMARK SMILES CC(=O)CCc1ccc2c(c1)OCO2
REMARK SMILES IDX 4 1 2 2 1 3 3 4 5 5 6 6 7 7 11 8 8 9 10 10 9 11 12 12 14 13
REMARK SMILES IDX 13 14
REMARK H PARENT
REMARK Flexibility Score: inf
ROOT
ATOM      1  C   UNL     1       5.726   1.295  -0.273  1.00  0.00     0.080 C 
ENDROOT
BRANCH   1   2
ATOM      2  C   UNL     1       5.120   1.239   1.086  1.00  0.00     0.130 C 
ATOM      3  C   UNL     1       5.340   0.079   1.992  1.00  0.00     0.087 C 
ATOM      4  O   UNL     1       4.420   2.149   1.499  1.00  0.00    -0.300 OA
ENDBRANCH   1   2
BRANCH   1   5
ATOM      5  C   UNL     1       7.224   1.069  -0.218  1.00  0.00     0.043 C 
BRANCH   5   6
ATOM      6  C   UNL     1       7.606  -0.214  -0.835  1.00  0.00    -0.044 A 
ATOM      7  C   UNL     1       7.682  -0.366  -2.224  1.00  0.00     0.008 A 
ATOM      8  C   UNL     1       7.898  -1.296  -0.035  1.00  0.00     0.054 A 
ATOM      9  C   UNL     1       8.047  -1.593  -2.746  1.00  0.00     0.051 A 
ATOM     10  C   UNL     1       8.267  -2.534  -0.568  1.00  0.00     0.166 A 
ATOM     11  C   UNL     1       8.342  -2.685  -1.935  1.00  0.00     0.165 A 
ATOM     12  O   UNL     1       8.601  -3.743   0.007  1.00  0.00    -0.454 OA
ATOM     13  O   UNL     1       8.725  -3.995  -2.174  1.00  0.00    -0.454 OA
ATOM     14  C   UNL     1       8.987  -4.675  -0.970  1.00  0.00     0.468 C 
ENDBRANCH   5   6
ENDBRANCH   1   5
TORSDOF 3
ENDMDL
MODEL 3
REMARK VINA RESULT:      -7.2      2.057      2.584
REMARK SMILES CC(=O)CCc1ccc2c(c1)OCO2
REMARK SMILES IDX 4 1 2 2 1 3 3 4 5 5 6 6 7 7 11 8 8 9 10 10 9 11 12 12 14 13
REMARK SMILES IDX 13 14
REMARK H PARENT
REMARK Flexibility Score: inf
ROOT
ATOM      1  C   UNL     1       5.593   0.080   2.035  1.00  0.00     0.080 C 
ENDROOT
BRANCH   1   2
ATOM      2  C   UNL     1       4.613   1.160   1.731  1.00  0.00     0.130 C 
ATOM      3  C   UNL     1       4.852   2.148   0.645  1.00  0.00     0.087 C 
ATOM      4  O   UNL     1       3.578   1.266   2.370  1.00  0.00    -0.300 OA
ENDBRANCH   1   2
BRANCH   1   5
ATOM      5  C   UNL     1       6.955   0.392   1.449  1.00  0.00     0.043 C 
BRANCH   5   6
ATOM      6  C   UNL     1       7.348  -0.592   0.425  1.00  0.00    -0.044 A 
ATOM      7  C   UNL     1       7.222  -0.318  -0.941  1.00  0.00     0.008 A 
ATOM      8  C   UNL     1       7.854  -1.813   0.811  1.00  0.00     0.054 A 
ATOM      9  C   UNL     1       7.608  -1.280  -1.857  1.00  0.00     0.051 A 
ATOM     10  C   UNL     1       8.243  -2.782  -0.119  1.00  0.00     0.166 A 
ATOM     11  C   UNL     1       8.119  -2.514  -1.464  1.00  0.00     0.165 A 
ATOM     12  O   UNL     1       8.766  -4.051   0.010  1.00  0.00    -0.454 OA
ATOM     13  O   UNL     1       8.573  -3.635  -2.140  1.00  0.00    -0.454 OA
ATOM     14  C   UNL     1       9.077  -4.598  -1.246  1.00  0.00     0.468 C 
ENDBRANCH   5   6
ENDBRANCH   1   5
TORSDOF 3
ENDMDL
MODEL 4
REMARK VINA RESULT:      -7.0      1.248      1.457
REMARK SMILES CC(=O)CCc1ccc2c(c1)OCO2
REMARK SMILES IDX 4 1 2 2 1 3 3 4 5 5 6 6 7 7 11 8 8 9 10 10 9 11 12 12 14 13
REMARK SMILES IDX 13 14
REMARK H PARENT
REMARK Flexibility Score: inf
ROOT
ATOM      1  C   UNL     1       6.370   1.205   0.919  1.00  0.00     0.080 C 
ENDROOT
BRANCH   1   2
ATOM      2  C   UNL     1       5.668   0.379   1.941  1.00  0.00     0.130 C 
ATOM      3  C   UNL     1       6.292  -0.837   2.525  1.00  0.00     0.087 C 
ATOM      4  O   UNL     1       4.551   0.680   2.330  1.00  0.00    -0.300 OA
ENDBRANCH   1   2
BRANCH   1   5
ATOM      5  C   UNL     1       5.854   0.911  -0.476  1.00  0.00     0.043 C 
BRANCH   5   6
ATOM      6  C   UNL     1       6.807   0.095  -1.250  1.00  0.00    -0.044 A 
ATOM      7  C   UNL     1       7.494   0.618  -2.351  1.00  0.00     0.008 A 
ATOM      8  C   UNL     1       7.037  -1.213  -0.888  1.00  0.00     0.054 A 
ATOM      9  C   UNL     1       8.377  -0.195  -3.039  1.00  0.00     0.051 A 
ATOM     10  C   UNL     1       7.931  -2.030  -1.586  1.00  0.00     0.166 A 
ATOM     11  C   UNL     1       8.606  -1.517  -2.671  1.00  0.00     0.165 A 
ATOM     12  O   UNL     1       8.325  -3.342  -1.427  1.00  0.00    -0.454 OA
ATOM     13  O   UNL     1       9.410  -2.534  -3.160  1.00  0.00    -0.454 OA
ATOM     14  C   UNL     1       9.332  -3.680  -2.346  1.00  0.00     0.468 C 
ENDBRANCH   5   6
ENDBRANCH   1   5
TORSDOF 3
ENDMDL
MODEL 5
REMARK VINA RESULT:      -6.7      1.181      5.176
REMARK SMILES CC(=O)CCc1ccc2c(c1)OCO2
REMARK SMILES IDX 4 1 2 2 1 3 3 4 5 5 6 6 7 7 11 8 8 9 10 10 9 11 12 12 14 13
REMARK SMILES IDX 13 14
REMARK H PARENT
REMARK Flexibility Score: inf
ROOT
ATOM      1  C   UNL     1       8.363   0.212  -2.605  1.00  0.00     0.080 C 
ENDROOT
BRANCH   1   2
ATOM      2  C   UNL     1       8.057  -1.241  -2.719  1.00  0.00     0.130 C 
ATOM      3  C   UNL     1       9.116  -2.241  -3.021  1.00  0.00     0.087 C 
ATOM      4  O   UNL     1       6.919  -1.656  -2.568  1.00  0.00    -0.300 OA
ENDBRANCH   1   2
BRANCH   1   5
ATOM      5  C   UNL     1       8.875   0.559  -1.221  1.00  0.00     0.043 C 
BRANCH   5   6
ATOM      6  C   UNL     1       7.825   0.413  -0.197  1.00  0.00    -0.044 A 
ATOM      7  C   UNL     1       7.909  -0.559   0.805  1.00  0.00     0.008 A 
ATOM      8  C   UNL     1       6.732   1.250  -0.217  1.00  0.00     0.054 A 
ATOM      9  C   UNL     1       6.893  -0.649   1.740  1.00  0.00     0.051 A 
ATOM     10  C   UNL     1       5.708   1.155   0.731  1.00  0.00     0.166 A 
ATOM     11  C   UNL     1       5.790   0.198   1.717  1.00  0.00     0.165 A 
ATOM     12  O   UNL     1       4.537   1.857   0.922  1.00  0.00    -0.454 OA
ATOM     13  O   UNL     1       4.656   0.334   2.502  1.00  0.00    -0.454 OA
ATOM     14  C   UNL     1       3.879   1.433   2.088  1.00  0.00     0.468 C 
ENDBRANCH   5   6
ENDBRANCH   1   5
TORSDOF 3
ENDMDL
