@<TRIPOS>MOLECULE
/home/cewinharhar/GITHUB/reincatalyze/data/processed/docking_pred/2023-May-23-1437_sub9_nm5_bs15_s42_ex16_mel10_mts10000_k50_ec02_g099_lra3e-4_lrc1e-3/31de0aabf4a391366091aaa04775d5537fef7eaf_ligand_9.pdbqt
 14 15 0 0 0
SMALL
GASTEIGER

@<TRIPOS>ATOM
      1  C          8.3630    0.2120   -2.6050 C.3     1  UNL1        0.0800
      2  C          8.0570   -1.2410   -2.7190 C.2     1  UNL1        0.1300
      3  C          9.1160   -2.2410   -3.0210 C.3     1  UNL1        0.0870
      4  O          6.9190   -1.6560   -2.5680 O.2     1  UNL1       -0.3000
      5  C          8.8750    0.5590   -1.2210 C.3     1  UNL1        0.0430
      6  C          7.8250    0.4130   -0.1970 C.2     1  UNL1       -0.0440
      7  C          7.9090   -0.5590    0.8050 C.2     1  UNL1        0.0080
      8  C          6.7320    1.2500   -0.2170 C.2     1  UNL1        0.0540
      9  C          6.8930   -0.6490    1.7400 C.2     1  UNL1        0.0510
     10  C          5.7080    1.1550    0.7310 C.2     1  UNL1        0.1660
     11  C          5.7900    0.1980    1.7170 C.2     1  UNL1        0.1650
     12  O          4.5370    1.8570    0.9220 O.2     1  UNL1       -0.4540
     13  O          4.6560    0.3340    2.5020 O.2     1  UNL1       -0.4540
     14  C          3.8790    1.4330    2.0880 C.3     1  UNL1        0.4680
@<TRIPOS>BOND
     1     3     2    1
     2     2     1    1
     3     2     4    2
     4     1     5    1
     5     5     6    1
     6     8     6    2
     7     8    10    1
     8     6     7    1
     9    10    12    1
    10    10    11    2
    11     7     9    2
    12    12    14    1
    13    11     9    1
    14    11    13    1
    15    14    13    1
