@<TRIPOS>MOLECULE
/home/cewinharhar/GITHUB/reincatalyze/data/processed/docking_pred/2023-May-23-1437_sub9_nm5_bs15_s42_ex16_mel10_mts10000_k50_ec02_g099_lra3e-4_lrc1e-3/32925d028e6f827171d23f19599134de0355568e_ligand_9.pdbqt
 14 15 0 0 0
SMALL
GASTEIGER

@<TRIPOS>ATOM
      1  C          6.8020    0.6590    1.2050 C.3     1  UNL1        0.0800
      2  C          5.3850    1.0720    1.4090 C.2     1  UNL1        0.1300
      3  C          4.7610    2.1500    0.5960 C.3     1  UNL1        0.0870
      4  O          4.6920    0.5320    2.2560 O.2     1  UNL1       -0.3000
      5  C          7.2360    0.8710   -0.2320 C.3     1  UNL1        0.0430
      6  C          7.6760   -0.3880   -0.8610 C.2     1  UNL1       -0.0440
      7  C          7.8910   -0.4820   -2.2400 C.2     1  UNL1        0.0080
      8  C          7.8860   -1.5030   -0.0810 C.2     1  UNL1        0.0540
      9  C          8.3050   -1.6890   -2.7740 C.2     1  UNL1        0.0510
     10  C          8.3040   -2.7200   -0.6260 C.2     1  UNL1        0.1660
     11  C          8.5150   -2.8140   -1.9840 C.2     1  UNL1        0.1650
     12  O          8.5770   -3.9530   -0.0720 O.2     1  UNL1       -0.4540
     13  O          8.9190   -4.1160   -2.2380 O.2     1  UNL1       -0.4540
     14  C          9.0590   -4.8470   -1.0430 C.3     1  UNL1        0.4680
@<TRIPOS>BOND
     1     9     7    1
     2     9    11    2
     3     7     6    2
     4    13    11    1
     5    13    14    1
     6    11    10    1
     7    14    12    1
     8     6     5    1
     9     6     8    1
    10    10     8    2
    11    10    12    1
    12     5     1    1
    13     3     2    1
    14     1     2    1
    15     2     4    2
