@<TRIPOS>MOLECULE
/home/cewinharhar/GITHUB/reincatalyze/data/processed/docking_pred/2023-May-23-1437_sub9_nm5_bs15_s42_ex16_mel10_mts10000_k50_ec02_g099_lra3e-4_lrc1e-3/32925d028e6f827171d23f19599134de0355568e_ligand_9.pdbqt
 14 15 0 0 0
SMALL
GASTEIGER

@<TRIPOS>ATOM
      1  C          5.6010    1.3600   -0.2210 C.3     1  UNL1        0.0800
      2  C          5.0060    1.2680    1.1410 C.2     1  UNL1        0.1300
      3  C          5.4430    0.2330    2.1160 C.3     1  UNL1        0.0870
      4  O          4.1350    2.0440    1.4980 O.2     1  UNL1       -0.3000
      5  C          7.0970    1.1150   -0.1860 C.3     1  UNL1        0.0430
      6  C          7.4590   -0.1540   -0.8420 C.2     1  UNL1       -0.0440
      7  C          7.4230   -0.2950   -2.2340 C.2     1  UNL1        0.0080
      8  C          7.8440   -1.2310   -0.0780 C.2     1  UNL1        0.0540
      9  C          7.7750   -1.5100   -2.7940 C.2     1  UNL1        0.0510
     10  C          8.1990   -2.4570   -0.6490 C.2     1  UNL1        0.1660
     11  C          8.1630   -2.5970   -2.0180 C.2     1  UNL1        0.1650
     12  O          8.6100   -3.6590   -0.1130 O.2     1  UNL1       -0.4540
     13  O          8.5580   -3.8960   -2.2980 O.2     1  UNL1       -0.4540
     14  C          8.9380   -4.5760   -1.1260 C.3     1  UNL1        0.4680
@<TRIPOS>BOND
     1     9     7    1
     2     9    11    2
     3    13    11    1
     4    13    14    1
     5     7     6    2
     6    11    10    1
     7    14    12    1
     8     6     5    1
     9     6     8    1
    10    10    12    1
    11    10     8    2
    12     1     5    1
    13     1     2    1
    14     2     4    2
    15     2     3    1
