@<TRIPOS>MOLECULE
/home/cewinharhar/GITHUB/reincatalyze/data/processed/docking_pred/2023-May-23-1437_sub9_nm5_bs15_s42_ex16_mel10_mts10000_k50_ec02_g099_lra3e-4_lrc1e-3/354626f0a3e222b5e9865005b72eb67019ec4e19_ligand_9.pdbqt
 14 15 0 0 0
SMALL
GASTEIGER

@<TRIPOS>ATOM
      1  C          8.8160   -3.9020   -0.3800 C.3     1  UNL1        0.0800
      2  C          9.3200   -4.8110   -1.4470 C.2     1  UNL1        0.1300
      3  C          8.8970   -6.2350   -1.5230 C.3     1  UNL1        0.0870
      4  O         10.1010   -4.4100   -2.2940 O.2     1  UNL1       -0.3000
      5  C          8.3050   -2.6000   -0.9630 C.3     1  UNL1        0.0430
      6  C          7.4730   -1.8590    0.0020 C.2     1  UNL1       -0.0440
      7  C          7.3990   -2.2360    1.3480 C.2     1  UNL1        0.0080
      8  C          6.7490   -0.7670   -0.4190 C.2     1  UNL1        0.0540
      9  C          6.6020   -1.5020    2.2080 C.2     1  UNL1        0.0510
     10  C          5.9450   -0.0280    0.4550 C.2     1  UNL1        0.1660
     11  C          5.8710   -0.3990    1.7790 C.2     1  UNL1        0.1650
     12  O          5.1410    1.0790    0.2830 O.2     1  UNL1       -0.4540
     13  O          5.0150    0.4980    2.3990 O.2     1  UNL1       -0.4540
     14  C          4.6010    1.5050    1.5070 C.3     1  UNL1        0.4680
@<TRIPOS>BOND
     1     4     2    2
     2     3     2    1
     3     2     1    1
     4     5     1    1
     5     5     6    1
     6     8     6    2
     7     8    10    1
     8     6     7    1
     9    12    10    1
    10    12    14    1
    11    10    11    2
    12     7     9    2
    13    14    13    1
    14    11     9    1
    15    11    13    1
