@<TRIPOS>MOLECULE
/home/cewinharhar/GITHUB/reincatalyze/data/processed/docking_pred/2023-May-23-1437_sub9_nm5_bs15_s42_ex16_mel10_mts10000_k50_ec02_g099_lra3e-4_lrc1e-3/354626f0a3e222b5e9865005b72eb67019ec4e19_ligand_9.pdbqt
 14 15 0 0 0
SMALL
GASTEIGER

@<TRIPOS>ATOM
      1  C          8.0030   -1.7450   -2.3570 C.3     1  UNL1        0.0800
      2  C          8.7370   -0.4520   -2.4360 C.2     1  UNL1        0.1300
      3  C          8.2530    0.6700   -3.2850 C.3     1  UNL1        0.0870
      4  O          9.7650   -0.2740   -1.8030 O.2     1  UNL1       -0.3000
      5  C          8.1370   -2.3700   -0.9820 C.3     1  UNL1        0.0430
      6  C          7.3190   -1.6650    0.0210 C.2     1  UNL1       -0.0440
      7  C          7.2770   -2.0810    1.3560 C.2     1  UNL1        0.0080
      8  C          6.5760   -0.5680   -0.3540 C.2     1  UNL1        0.0540
      9  C          6.4920   -1.3790    2.2530 C.2     1  UNL1        0.0510
     10  C          5.7850    0.1380    0.5570 C.2     1  UNL1        0.1660
     11  C          5.7420   -0.2710    1.8710 C.2     1  UNL1        0.1650
     12  O          4.9670    1.2410    0.4330 O.2     1  UNL1       -0.4540
     13  O          4.8910    0.5990    2.5340 O.2     1  UNL1       -0.4540
     14  C          4.4490    1.6270    1.6800 C.3     1  UNL1        0.4680
@<TRIPOS>BOND
     1     3     2    1
     2     2     1    1
     3     2     4    2
     4     1     5    1
     5     5     6    1
     6     8     6    2
     7     8    10    1
     8     6     7    1
     9    12    10    1
    10    12    14    1
    11    10    11    2
    12     7     9    2
    13    14    13    1
    14    11     9    1
    15    11    13    1
