@<TRIPOS>MOLECULE
/home/cewinharhar/GITHUB/reincatalyze/data/processed/docking_pred/2023-May-23-1437_sub9_nm5_bs15_s42_ex16_mel10_mts10000_k50_ec02_g099_lra3e-4_lrc1e-3/354626f0a3e222b5e9865005b72eb67019ec4e19_ligand_9.pdbqt
 14 15 0 0 0
SMALL
GASTEIGER

@<TRIPOS>ATOM
      1  C          5.3940   -0.2730    2.1560 C.3     1  UNL1        0.0800
      2  C          4.4710    0.8740    1.9280 C.2     1  UNL1        0.1300
      3  C          4.6930    1.8480    0.8260 C.3     1  UNL1        0.0870
      4  O          3.4990    1.0480    2.6460 O.2     1  UNL1       -0.3000
      5  C          6.7990    0.0500    1.6890 C.3     1  UNL1        0.0430
      6  C          7.2370   -0.8510    0.6090 C.2     1  UNL1       -0.0440
      7  C          7.0700   -0.5150   -0.7400 C.2     1  UNL1        0.0080
      8  C          7.8280   -2.0540    0.9220 C.2     1  UNL1        0.0540
      9  C          7.5010   -1.4000   -1.7110 C.2     1  UNL1        0.0510
     10  C          8.2630   -2.9460   -0.0640 C.2     1  UNL1        0.1660
     11  C          8.0980   -2.6160   -1.3910 C.2     1  UNL1        0.1650
     12  O          8.8700   -4.1830   -0.0100 O.2     1  UNL1       -0.4540
     13  O          8.6130   -3.6680   -2.1320 O.2     1  UNL1       -0.4540
     14  C          9.1940   -4.6410   -1.2970 C.3     1  UNL1        0.4680
@<TRIPOS>BOND
     1    13    11    1
     2    13    14    1
     3     9    11    2
     4     9     7    1
     5    11    10    1
     6    14    12    1
     7     7     6    2
     8    10    12    1
     9    10     8    2
    10     6     8    1
    11     6     5    1
    12     3     2    1
    13     5     1    1
    14     2     1    1
    15     2     4    2
