@<TRIPOS>MOLECULE
/home/cewinharhar/GITHUB/reincatalyze/data/processed/docking_pred/2023-May-23-1437_sub9_nm5_bs15_s42_ex16_mel10_mts10000_k50_ec02_g099_lra3e-4_lrc1e-3/36543b95c0c748273319382419c31c9b55863a9a_ligand_9.pdbqt
 14 15 0 0 0
SMALL
GASTEIGER

@<TRIPOS>ATOM
      1  C          6.4280    0.3540    1.5410 C.3     1  UNL1        0.0800
      2  C          6.0120    0.8370    0.1940 C.2     1  UNL1        0.1300
      3  C          5.2210    2.0850    0.0220 C.3     1  UNL1        0.0870
      4  O          6.3110    0.2170   -0.8130 O.2     1  UNL1       -0.3000
      5  C          6.5810   -1.1540    1.5620 C.3     1  UNL1        0.0430
      6  C          7.7460   -1.5740    2.3610 C.2     1  UNL1       -0.0440
      7  C          7.8570   -1.2520    3.7190 C.2     1  UNL1        0.0080
      8  C          8.7520   -2.3030    1.7700 C.2     1  UNL1        0.0540
      9  C          8.9730   -1.6740    4.4190 C.2     1  UNL1        0.0510
     10  C          9.8780   -2.7280    2.4820 C.2     1  UNL1        0.1660
     11  C          9.9890   -2.4100    3.8180 C.2     1  UNL1        0.1650
     12  O         10.9970   -3.4510    2.1280 O.2     1  UNL1       -0.4540
     13  O         11.1860   -2.9510    4.2600 O.2     1  UNL1       -0.4540
     14  C         11.8130   -3.6970    3.2440 C.3     1  UNL1        0.4680
@<TRIPOS>BOND
     1     4     2    2
     2     3     2    1
     3     2     1    1
     4     1     5    1
     5     5     6    1
     6     8     6    2
     7     8    10    1
     8    12    10    1
     9    12    14    1
    10     6     7    1
    11    10    11    2
    12    14    13    1
    13     7     9    2
    14    11    13    1
    15    11     9    1
