MODEL 1
REMARK VINA RESULT:      -7.4      0.000      0.000
REMARK SMILES CC(=O)CCc1ccc2c(c1)OCO2
REMARK SMILES IDX 4 1 2 2 1 3 3 4 5 5 6 6 7 7 11 8 8 9 10 10 9 11 12 12 14 13
REMARK SMILES IDX 13 14
REMARK H PARENT
REMARK Flexibility Score: inf
ROOT
ATOM      1  C   UNL     1       5.504  -0.264   1.932  1.00  0.00     0.080 C 
ENDROOT
BRANCH   1   2
ATOM      2  C   UNL     1       5.277   1.005   1.185  1.00  0.00     0.130 C 
ATOM      3  C   UNL     1       5.813   1.210  -0.187  1.00  0.00     0.087 C 
ATOM      4  O   UNL     1       4.640   1.920   1.682  1.00  0.00    -0.300 OA
ENDBRANCH   1   2
BRANCH   1   5
ATOM      5  C   UNL     1       6.532  -1.135   1.238  1.00  0.00     0.043 C 
BRANCH   5   6
ATOM      6  C   UNL     1       7.635  -1.505   2.143  1.00  0.00    -0.044 A 
ATOM      7  C   UNL     1       7.611  -1.171   3.502  1.00  0.00     0.008 A 
ATOM      8  C   UNL     1       8.718  -2.197   1.652  1.00  0.00     0.054 A 
ATOM      9  C   UNL     1       8.674  -1.546   4.304  1.00  0.00     0.051 A 
ATOM     10  C   UNL     1       9.790  -2.574   2.466  1.00  0.00     0.166 A 
ATOM     11  C   UNL     1       9.768  -2.245   3.804  1.00  0.00     0.165 A 
ATOM     12  O   UNL     1      10.963  -3.254   2.220  1.00  0.00    -0.454 OA
ATOM     13  O   UNL     1      10.939  -2.737   4.357  1.00  0.00    -0.454 OA
ATOM     14  C   UNL     1      11.684  -3.463   3.408  1.00  0.00     0.468 C 
ENDBRANCH   5   6
ENDBRANCH   1   5
TORSDOF 3
ENDMDL
MODEL 2
REMARK VINA RESULT:      -7.3      3.859      4.899
REMARK SMILES CC(=O)CCc1ccc2c(c1)OCO2
REMARK SMILES IDX 4 1 2 2 1 3 3 4 5 5 6 6 7 7 11 8 8 9 10 10 9 11 12 12 14 13
REMARK SMILES IDX 13 14
REMARK H PARENT
REMARK Flexibility Score: inf
ROOT
ATOM      1  C   UNL     1       5.495   1.938   1.250  1.00  0.00     0.080 C 
ENDROOT
BRANCH   1   2
ATOM      2  C   UNL     1       5.003   0.738   1.982  1.00  0.00     0.130 C 
ATOM      3  C   UNL     1       5.823  -0.498   2.095  1.00  0.00     0.087 C 
ATOM      4  O   UNL     1       3.904   0.734   2.513  1.00  0.00    -0.300 OA
ENDBRANCH   1   2
BRANCH   1   5
ATOM      5  C   UNL     1       5.383   1.752  -0.250  1.00  0.00     0.043 C 
BRANCH   5   6
ATOM      6  C   UNL     1       6.555   1.050  -0.803  1.00  0.00    -0.044 A 
ATOM      7  C   UNL     1       7.860   1.476  -0.532  1.00  0.00     0.008 A 
ATOM      8  C   UNL     1       6.373  -0.054  -1.604  1.00  0.00     0.054 A 
ATOM      9  C   UNL     1       8.921   0.777  -1.077  1.00  0.00     0.051 A 
ATOM     10  C   UNL     1       7.450  -0.758  -2.153  1.00  0.00     0.166 A 
ATOM     11  C   UNL     1       8.734  -0.338  -1.887  1.00  0.00     0.165 A 
ATOM     12  O   UNL     1       7.530  -1.868  -2.967  1.00  0.00    -0.454 OA
ATOM     13  O   UNL     1       9.585  -1.209  -2.550  1.00  0.00    -0.454 OA
ATOM     14  C   UNL     1       8.866  -2.247  -3.173  1.00  0.00     0.468 C 
ENDBRANCH   5   6
ENDBRANCH   1   5
TORSDOF 3
ENDMDL
MODEL 3
REMARK VINA RESULT:      -7.1      0.943      1.265
REMARK SMILES CC(=O)CCc1ccc2c(c1)OCO2
REMARK SMILES IDX 4 1 2 2 1 3 3 4 5 5 6 6 7 7 11 8 8 9 10 10 9 11 12 12 14 13
REMARK SMILES IDX 13 14
REMARK H PARENT
REMARK Flexibility Score: inf
ROOT
ATOM      1  C   UNL     1       6.959  -0.403   1.719  1.00  0.00     0.080 C 
ENDROOT
BRANCH   1   2
ATOM      2  C   UNL     1       5.769   0.450   1.446  1.00  0.00     0.130 C 
ATOM      3  C   UNL     1       5.600   1.164   0.153  1.00  0.00     0.087 C 
ATOM      4  O   UNL     1       4.892   0.588   2.284  1.00  0.00    -0.300 OA
ENDBRANCH   1   2
BRANCH   1   5
ATOM      5  C   UNL     1       7.000  -0.844   3.169  1.00  0.00     0.043 C 
BRANCH   5   6
ATOM      6  C   UNL     1       8.293  -1.459   3.517  1.00  0.00    -0.044 A 
ATOM      7  C   UNL     1       8.863  -1.299   4.786  1.00  0.00     0.008 A 
ATOM      8  C   UNL     1       8.965  -2.211   2.581  1.00  0.00     0.054 A 
ATOM      9  C   UNL     1      10.079  -1.900   5.056  1.00  0.00     0.051 A 
ATOM     10  C   UNL     1      10.194  -2.817   2.859  1.00  0.00     0.166 A 
ATOM     11  C   UNL     1      10.756  -2.660   4.106  1.00  0.00     0.165 A 
ATOM     12  O   UNL     1      11.046  -3.601   2.110  1.00  0.00    -0.454 OA
ATOM     13  O   UNL     1      11.953  -3.358   4.098  1.00  0.00    -0.454 OA
ATOM     14  C   UNL     1      12.132  -4.044   2.882  1.00  0.00     0.468 C 
ENDBRANCH   5   6
ENDBRANCH   1   5
TORSDOF 3
ENDMDL
MODEL 4
REMARK VINA RESULT:      -7.0      1.068      1.096
REMARK SMILES CC(=O)CCc1ccc2c(c1)OCO2
REMARK SMILES IDX 4 1 2 2 1 3 3 4 5 5 6 6 7 7 11 8 8 9 10 10 9 11 12 12 14 13
REMARK SMILES IDX 13 14
REMARK H PARENT
REMARK Flexibility Score: inf
ROOT
ATOM      1  C   UNL     1       6.428   0.354   1.541  1.00  0.00     0.080 C 
ENDROOT
BRANCH   1   2
ATOM      2  C   UNL     1       6.012   0.837   0.194  1.00  0.00     0.130 C 
ATOM      3  C   UNL     1       5.221   2.085   0.022  1.00  0.00     0.087 C 
ATOM      4  O   UNL     1       6.311   0.217  -0.813  1.00  0.00    -0.300 OA
ENDBRANCH   1   2
BRANCH   1   5
ATOM      5  C   UNL     1       6.581  -1.154   1.562  1.00  0.00     0.043 C 
BRANCH   5   6
ATOM      6  C   UNL     1       7.746  -1.574   2.361  1.00  0.00    -0.044 A 
ATOM      7  C   UNL     1       7.857  -1.252   3.719  1.00  0.00     0.008 A 
ATOM      8  C   UNL     1       8.752  -2.303   1.770  1.00  0.00     0.054 A 
ATOM      9  C   UNL     1       8.973  -1.674   4.419  1.00  0.00     0.051 A 
ATOM     10  C   UNL     1       9.878  -2.728   2.482  1.00  0.00     0.166 A 
ATOM     11  C   UNL     1       9.989  -2.410   3.818  1.00  0.00     0.165 A 
ATOM     12  O   UNL     1      10.997  -3.451   2.128  1.00  0.00    -0.454 OA
ATOM     13  O   UNL     1      11.186  -2.951   4.260  1.00  0.00    -0.454 OA
ATOM     14  C   UNL     1      11.813  -3.697   3.244  1.00  0.00     0.468 C 
ENDBRANCH   5   6
ENDBRANCH   1   5
TORSDOF 3
ENDMDL
MODEL 5
REMARK VINA RESULT:      -7.0      1.141      2.042
REMARK SMILES CC(=O)CCc1ccc2c(c1)OCO2
REMARK SMILES IDX 4 1 2 2 1 3 3 4 5 5 6 6 7 7 11 8 8 9 10 10 9 11 12 12 14 13
REMARK SMILES IDX 13 14
REMARK H PARENT
REMARK Flexibility Score: inf
ROOT
ATOM      1  C   UNL     1       6.290  -0.120   0.651  1.00  0.00     0.080 C 
ENDROOT
BRANCH   1   2
ATOM      2  C   UNL     1       5.346   0.888   1.211  1.00  0.00     0.130 C 
ATOM      3  C   UNL     1       5.032   2.149   0.489  1.00  0.00     0.087 C 
ATOM      4  O   UNL     1       4.800   0.705   2.287  1.00  0.00    -0.300 OA
ENDBRANCH   1   2
BRANCH   1   5
ATOM      5  C   UNL     1       6.242  -1.415   1.437  1.00  0.00     0.043 C 
BRANCH   5   6
ATOM      6  C   UNL     1       7.504  -1.665   2.155  1.00  0.00    -0.044 A 
ATOM      7  C   UNL     1       8.558  -2.370   1.562  1.00  0.00     0.008 A 
ATOM      8  C   UNL     1       7.663  -1.197   3.439  1.00  0.00     0.054 A 
ATOM      9  C   UNL     1       9.720  -2.573   2.284  1.00  0.00     0.051 A 
ATOM     10  C   UNL     1       8.839  -1.404   4.165  1.00  0.00     0.166 A 
ATOM     11  C   UNL     1       9.876  -2.099   3.583  1.00  0.00     0.165 A 
ATOM     12  O   UNL     1       9.235  -1.046   5.436  1.00  0.00    -0.454 OA
ATOM     13  O   UNL     1      10.898  -2.151   4.518  1.00  0.00    -0.454 OA
ATOM     14  C   UNL     1      10.568  -1.418   5.674  1.00  0.00     0.468 C 
ENDBRANCH   5   6
ENDBRANCH   1   5
TORSDOF 3
ENDMDL
