@<TRIPOS>MOLECULE
/home/cewinharhar/GITHUB/reincatalyze/data/processed/docking_pred/2023-May-23-1437_sub9_nm5_bs15_s42_ex16_mel10_mts10000_k50_ec02_g099_lra3e-4_lrc1e-3/367438b83e07ec58543242b49c62b5ced391bd04_ligand_9.pdbqt
 14 15 0 0 0
SMALL
GASTEIGER

@<TRIPOS>ATOM
      1  C          5.5490    1.9200    1.2690 C.3     1  UNL1        0.0800
      2  C          5.1080    0.7060    2.0120 C.2     1  UNL1        0.1300
      3  C          6.0040   -0.4660    2.1960 C.3     1  UNL1        0.0870
      4  O          3.9890    0.6400    2.4950 O.2     1  UNL1       -0.3000
      5  C          5.4160    1.7270   -0.2280 C.3     1  UNL1        0.0430
      6  C          6.5810    1.0250   -0.7950 C.2     1  UNL1       -0.0440
      7  C          7.8890    1.4590   -0.5500 C.2     1  UNL1        0.0080
      8  C          6.3900   -0.0860   -1.5840 C.2     1  UNL1        0.0540
      9  C          8.9430    0.7600   -1.1080 C.2     1  UNL1        0.0510
     10  C          7.4590   -0.7900   -2.1460 C.2     1  UNL1        0.1660
     11  C          8.7470   -0.3630   -1.9060 C.2     1  UNL1        0.1650
     12  O          7.5300   -1.9060   -2.9530 O.2     1  UNL1       -0.4540
     13  O          9.5900   -1.2360   -2.5770 O.2     1  UNL1       -0.4540
     14  C          8.8640   -2.2810   -3.1780 C.3     1  UNL1        0.4680
@<TRIPOS>BOND
     1    14    12    1
     2    14    13    1
     3    12    10    1
     4    13    11    1
     5    10    11    2
     6    10     8    1
     7    11     9    1
     8     8     6    2
     9     9     7    2
    10     6     7    1
    11     6     5    1
    12     5     1    1
    13     1     2    1
    14     2     3    1
    15     2     4    2
