@<TRIPOS>MOLECULE
/home/cewinharhar/GITHUB/reincatalyze/data/processed/docking_pred/2023-May-23-1437_sub9_nm5_bs15_s42_ex16_mel10_mts10000_k50_ec02_g099_lra3e-4_lrc1e-3/367438b83e07ec58543242b49c62b5ced391bd04_ligand_9.pdbqt
 14 15 0 0 0
SMALL
GASTEIGER

@<TRIPOS>ATOM
      1  C          5.7370    1.4120   -0.2180 C.3     1  UNL1        0.0800
      2  C          5.0800    1.2600    1.1100 C.2     1  UNL1        0.1300
      3  C          5.3850    0.1110    2.0050 C.3     1  UNL1        0.0870
      4  O          4.2660    2.0790    1.5050 O.2     1  UNL1       -0.3000
      5  C          7.2260    1.1440   -0.1300 C.3     1  UNL1        0.0430
      6  C          7.5890   -0.1360   -0.7640 C.2     1  UNL1       -0.0440
      7  C          7.6280   -0.2800   -2.1560 C.2     1  UNL1        0.0080
      8  C          7.9020   -1.2220    0.0210 C.2     1  UNL1        0.0540
      9  C          7.9770   -1.5050   -2.6950 C.2     1  UNL1        0.0510
     10  C          8.2540   -2.4590   -0.5280 C.2     1  UNL1        0.1660
     11  C          8.2920   -2.6010   -1.8980 C.2     1  UNL1        0.1650
     12  O          8.6010   -3.6710    0.0300 O.2     1  UNL1       -0.4540
     13  O          8.6660   -3.9110   -2.1540 O.2     1  UNL1       -0.4540
     14  C          8.9600   -4.5980   -0.9620 C.3     1  UNL1        0.4680
@<TRIPOS>BOND
     1     9     7    1
     2     9    11    2
     3     7     6    2
     4    13    11    1
     5    13    14    1
     6    11    10    1
     7    14    12    1
     8     6     5    1
     9     6     8    1
    10    10     8    2
    11    10    12    1
    12     1     5    1
    13     1     2    1
    14     2     4    2
    15     2     3    1
