@<TRIPOS>MOLECULE
/home/cewinharhar/GITHUB/reincatalyze/data/processed/docking_pred/2023-May-23-1437_sub9_nm5_bs15_s42_ex16_mel10_mts10000_k50_ec02_g099_lra3e-4_lrc1e-3/37aabdb081a78d2f2d4d4e560ab17afff45a2586_ligand_9.pdbqt
 14 15 0 0 0
SMALL
GASTEIGER

@<TRIPOS>ATOM
      1  C          5.8920    1.5560    1.2560 C.3     1  UNL1        0.0800
      2  C          5.3810    0.3970    2.0400 C.2     1  UNL1        0.1300
      3  C          6.2210   -0.8040    2.2960 C.3     1  UNL1        0.0870
      4  O          4.2500    0.4000    2.4970 O.2     1  UNL1       -0.3000
      5  C          5.6670    1.3580   -0.2300 C.3     1  UNL1        0.0430
      6  C          6.8030    0.6690   -0.8680 C.2     1  UNL1       -0.0440
      7  C          8.0900    1.2200   -0.8650 C.2     1  UNL1        0.0080
      8  C          6.6070   -0.5470   -1.4810 C.2     1  UNL1        0.0540
      9  C          9.1180    0.5280   -1.4790 C.2     1  UNL1        0.0510
     10  C          7.6490   -1.2440   -2.1000 C.2     1  UNL1        0.1660
     11  C          8.9150   -0.7010   -2.0990 C.2     1  UNL1        0.1650
     12  O          7.7080   -2.4490   -2.7670 O.2     1  UNL1       -0.4540
     13  O          9.7340   -1.5940   -2.7720 O.2     1  UNL1       -0.4540
     14  C          9.0290   -2.7580   -3.1330 C.3     1  UNL1        0.4680
@<TRIPOS>BOND
     1    14    13    1
     2    14    12    1
     3    13    11    1
     4    12    10    1
     5    10    11    2
     6    10     8    1
     7    11     9    1
     8     8     6    2
     9     9     7    2
    10     6     7    1
    11     6     5    1
    12     5     1    1
    13     1     2    1
    14     2     3    1
    15     2     4    2
