MODEL 1
REMARK VINA RESULT:      -7.2      0.000      0.000
REMARK SMILES CC(=O)CCc1ccc2c(c1)OCO2
REMARK SMILES IDX 4 1 2 2 1 3 3 4 5 5 6 6 7 7 11 8 8 9 10 10 9 11 12 12 14 13
REMARK SMILES IDX 13 14
REMARK H PARENT
REMARK Flexibility Score: inf
ROOT
ATOM      1  C   UNL     1       5.892   1.556   1.256  1.00  0.00     0.080 C 
ENDROOT
BRANCH   1   2
ATOM      2  C   UNL     1       5.381   0.397   2.040  1.00  0.00     0.130 C 
ATOM      3  C   UNL     1       6.221  -0.804   2.296  1.00  0.00     0.087 C 
ATOM      4  O   UNL     1       4.250   0.400   2.497  1.00  0.00    -0.300 OA
ENDBRANCH   1   2
BRANCH   1   5
ATOM      5  C   UNL     1       5.667   1.358  -0.230  1.00  0.00     0.043 C 
BRANCH   5   6
ATOM      6  C   UNL     1       6.803   0.669  -0.868  1.00  0.00    -0.044 A 
ATOM      7  C   UNL     1       8.090   1.220  -0.865  1.00  0.00     0.008 A 
ATOM      8  C   UNL     1       6.607  -0.547  -1.481  1.00  0.00     0.054 A 
ATOM      9  C   UNL     1       9.118   0.528  -1.479  1.00  0.00     0.051 A 
ATOM     10  C   UNL     1       7.649  -1.244  -2.100  1.00  0.00     0.166 A 
ATOM     11  C   UNL     1       8.915  -0.701  -2.099  1.00  0.00     0.165 A 
ATOM     12  O   UNL     1       7.708  -2.449  -2.767  1.00  0.00    -0.454 OA
ATOM     13  O   UNL     1       9.734  -1.594  -2.772  1.00  0.00    -0.454 OA
ATOM     14  C   UNL     1       9.029  -2.758  -3.133  1.00  0.00     0.468 C 
ENDBRANCH   5   6
ENDBRANCH   1   5
TORSDOF 3
ENDMDL
MODEL 2
REMARK VINA RESULT:      -7.2      1.058      1.070
REMARK SMILES CC(=O)CCc1ccc2c(c1)OCO2
REMARK SMILES IDX 4 1 2 2 1 3 3 4 5 5 6 6 7 7 11 8 8 9 10 10 9 11 12 12 14 13
REMARK SMILES IDX 13 14
REMARK H PARENT
REMARK Flexibility Score: inf
ROOT
ATOM      1  C   UNL     1       6.343   1.256   0.887  1.00  0.00     0.080 C 
ENDROOT
BRANCH   1   2
ATOM      2  C   UNL     1       5.662   0.423   1.918  1.00  0.00     0.130 C 
ATOM      3  C   UNL     1       6.308  -0.785   2.498  1.00  0.00     0.087 C 
ATOM      4  O   UNL     1       4.545   0.711   2.317  1.00  0.00    -0.300 OA
ENDBRANCH   1   2
BRANCH   1   5
ATOM      5  C   UNL     1       5.827   0.943  -0.503  1.00  0.00     0.043 C 
BRANCH   5   6
ATOM      6  C   UNL     1       6.787   0.131  -1.272  1.00  0.00    -0.044 A 
ATOM      7  C   UNL     1       7.486   0.661  -2.363  1.00  0.00     0.008 A 
ATOM      8  C   UNL     1       7.012  -1.179  -0.916  1.00  0.00     0.054 A 
ATOM      9  C   UNL     1       8.375  -0.148  -3.047  1.00  0.00     0.051 A 
ATOM     10  C   UNL     1       7.912  -1.993  -1.611  1.00  0.00     0.166 A 
ATOM     11  C   UNL     1       8.599  -1.473  -2.685  1.00  0.00     0.165 A 
ATOM     12  O   UNL     1       8.304  -3.306  -1.456  1.00  0.00    -0.454 OA
ATOM     13  O   UNL     1       9.408  -2.488  -3.173  1.00  0.00    -0.454 OA
ATOM     14  C   UNL     1       9.320  -3.639  -2.368  1.00  0.00     0.468 C 
ENDBRANCH   5   6
ENDBRANCH   1   5
TORSDOF 3
ENDMDL
MODEL 3
REMARK VINA RESULT:      -7.0      1.786      2.244
REMARK SMILES CC(=O)CCc1ccc2c(c1)OCO2
REMARK SMILES IDX 4 1 2 2 1 3 3 4 5 5 6 6 7 7 11 8 8 9 10 10 9 11 12 12 14 13
REMARK SMILES IDX 13 14
REMARK H PARENT
REMARK Flexibility Score: inf
ROOT
ATOM      1  C   UNL     1       5.975   1.149  -0.201  1.00  0.00     0.080 C 
ENDROOT
BRANCH   1   2
ATOM      2  C   UNL     1       5.915   1.123   1.287  1.00  0.00     0.130 C 
ATOM      3  C   UNL     1       5.351  -0.038   2.026  1.00  0.00     0.087 C 
ATOM      4  O   UNL     1       6.330   2.062   1.947  1.00  0.00    -0.300 OA
ENDBRANCH   1   2
BRANCH   1   5
ATOM      5  C   UNL     1       7.408   1.110  -0.695  1.00  0.00     0.043 C 
BRANCH   5   6
ATOM      6  C   UNL     1       7.782  -0.228  -1.185  1.00  0.00    -0.044 A 
ATOM      7  C   UNL     1       7.958  -0.487  -2.549  1.00  0.00     0.008 A 
ATOM      8  C   UNL     1       7.966  -1.256  -0.288  1.00  0.00     0.054 A 
ATOM      9  C   UNL     1       8.310  -1.763  -2.950  1.00  0.00     0.051 A 
ATOM     10  C   UNL     1       8.323  -2.544  -0.698  1.00  0.00     0.166 A 
ATOM     11  C   UNL     1       8.495  -2.800  -2.041  1.00  0.00     0.165 A 
ATOM     12  O   UNL     1       8.560  -3.717  -0.013  1.00  0.00    -0.454 OA
ATOM     13  O   UNL     1       8.840  -4.137  -2.153  1.00  0.00    -0.454 OA
ATOM     14  C   UNL     1       8.981  -4.734  -0.886  1.00  0.00     0.468 C 
ENDBRANCH   5   6
ENDBRANCH   1   5
TORSDOF 3
ENDMDL
MODEL 4
REMARK VINA RESULT:      -6.6      2.002      2.557
REMARK SMILES CC(=O)CCc1ccc2c(c1)OCO2
REMARK SMILES IDX 4 1 2 2 1 3 3 4 5 5 6 6 7 7 11 8 8 9 10 10 9 11 12 12 14 13
REMARK SMILES IDX 13 14
REMARK H PARENT
REMARK Flexibility Score: inf
ROOT
ATOM      1  C   UNL     1       6.182  -0.392   2.306  1.00  0.00     0.080 C 
ENDROOT
BRANCH   1   2
ATOM      2  C   UNL     1       5.127   0.567   1.874  1.00  0.00     0.130 C 
ATOM      3  C   UNL     1       5.284   1.402   0.653  1.00  0.00     0.087 C 
ATOM      4  O   UNL     1       4.096   0.696   2.515  1.00  0.00    -0.300 OA
ENDBRANCH   1   2
BRANCH   1   5
ATOM      5  C   UNL     1       7.507  -0.091   1.636  1.00  0.00     0.043 C 
BRANCH   5   6
ATOM      6  C   UNL     1       7.794  -1.036   0.542  1.00  0.00    -0.044 A 
ATOM      7  C   UNL     1       7.657  -0.667  -0.801  1.00  0.00     0.008 A 
ATOM      8  C   UNL     1       8.209  -2.315   0.837  1.00  0.00     0.054 A 
ATOM      9  C   UNL     1       7.941  -1.596  -1.785  1.00  0.00     0.051 A 
ATOM     10  C   UNL     1       8.496  -3.251  -0.161  1.00  0.00     0.166 A 
ATOM     11  C   UNL     1       8.360  -2.888  -1.483  1.00  0.00     0.165 A 
ATOM     12  O   UNL     1       8.917  -4.563  -0.126  1.00  0.00    -0.454 OA
ATOM     13  O   UNL     1       8.706  -3.997  -2.240  1.00  0.00    -0.454 OA
ATOM     14  C   UNL     1       9.153  -5.052  -1.422  1.00  0.00     0.468 C 
ENDBRANCH   5   6
ENDBRANCH   1   5
TORSDOF 3
ENDMDL
MODEL 5
REMARK VINA RESULT:      -6.3      2.105      2.498
REMARK SMILES CC(=O)CCc1ccc2c(c1)OCO2
REMARK SMILES IDX 4 1 2 2 1 3 3 4 5 5 6 6 7 7 11 8 8 9 10 10 9 11 12 12 14 13
REMARK SMILES IDX 13 14
REMARK H PARENT
REMARK Flexibility Score: inf
ROOT
ATOM      1  C   UNL     1       5.821   1.054  -0.332  1.00  0.00     0.080 C 
ENDROOT
BRANCH   1   2
ATOM      2  C   UNL     1       5.770   1.250   1.144  1.00  0.00     0.130 C 
ATOM      3  C   UNL     1       4.958   0.364   2.022  1.00  0.00     0.087 C 
ATOM      4  O   UNL     1       6.397   2.149   1.679  1.00  0.00    -0.300 OA
ENDBRANCH   1   2
BRANCH   1   5
ATOM      5  C   UNL     1       7.242   0.825  -0.808  1.00  0.00     0.043 C 
BRANCH   5   6
ATOM      6  C   UNL     1       7.711  -0.536  -0.494  1.00  0.00    -0.044 A 
ATOM      7  C   UNL     1       7.960  -0.940   0.822  1.00  0.00     0.008 A 
ATOM      8  C   UNL     1       7.909  -1.441  -1.512  1.00  0.00     0.054 A 
ATOM      9  C   UNL     1       8.398  -2.231   1.056  1.00  0.00     0.051 A 
ATOM     10  C   UNL     1       8.352  -2.745  -1.270  1.00  0.00     0.166 A 
ATOM     11  C   UNL     1       8.599  -3.143   0.024  1.00  0.00     0.165 A 
ATOM     12  O   UNL     1       8.622  -3.814  -2.098  1.00  0.00    -0.454 OA
ATOM     13  O   UNL     1       9.018  -4.463  -0.035  1.00  0.00    -0.454 OA
ATOM     14  C   UNL     1       8.960  -4.955  -1.353  1.00  0.00     0.468 C 
ENDBRANCH   5   6
ENDBRANCH   1   5
TORSDOF 3
ENDMDL
