@<TRIPOS>MOLECULE
/home/cewinharhar/GITHUB/reincatalyze/data/processed/docking_pred/2023-May-23-1437_sub9_nm5_bs15_s42_ex16_mel10_mts10000_k50_ec02_g099_lra3e-4_lrc1e-3/37aabdb081a78d2f2d4d4e560ab17afff45a2586_ligand_9.pdbqt
 14 15 0 0 0
SMALL
GASTEIGER

@<TRIPOS>ATOM
      1  C          6.3430    1.2560    0.8870 C.3     1  UNL1        0.0800
      2  C          5.6620    0.4230    1.9180 C.2     1  UNL1        0.1300
      3  C          6.3080   -0.7850    2.4980 C.3     1  UNL1        0.0870
      4  O          4.5450    0.7110    2.3170 O.2     1  UNL1       -0.3000
      5  C          5.8270    0.9430   -0.5030 C.3     1  UNL1        0.0430
      6  C          6.7870    0.1310   -1.2720 C.2     1  UNL1       -0.0440
      7  C          7.4860    0.6610   -2.3630 C.2     1  UNL1        0.0080
      8  C          7.0120   -1.1790   -0.9160 C.2     1  UNL1        0.0540
      9  C          8.3750   -0.1480   -3.0470 C.2     1  UNL1        0.0510
     10  C          7.9120   -1.9930   -1.6110 C.2     1  UNL1        0.1660
     11  C          8.5990   -1.4730   -2.6850 C.2     1  UNL1        0.1650
     12  O          8.3040   -3.3060   -1.4560 O.2     1  UNL1       -0.4540
     13  O          9.4080   -2.4880   -3.1730 O.2     1  UNL1       -0.4540
     14  C          9.3200   -3.6390   -2.3680 C.3     1  UNL1        0.4680
@<TRIPOS>BOND
     1    13    11    1
     2    13    14    1
     3     9    11    2
     4     9     7    1
     5    11    10    1
     6    14    12    1
     7     7     6    2
     8    10    12    1
     9    10     8    2
    10     6     8    1
    11     6     5    1
    12     5     1    1
    13     1     2    1
    14     2     4    2
    15     2     3    1
