@<TRIPOS>MOLECULE
/home/cewinharhar/GITHUB/reincatalyze/data/processed/docking_pred/2023-May-23-1437_sub9_nm5_bs15_s42_ex16_mel10_mts10000_k50_ec02_g099_lra3e-4_lrc1e-3/37aabdb081a78d2f2d4d4e560ab17afff45a2586_ligand_9.pdbqt
 14 15 0 0 0
SMALL
GASTEIGER

@<TRIPOS>ATOM
      1  C          5.9750    1.1490   -0.2010 C.3     1  UNL1        0.0800
      2  C          5.9150    1.1230    1.2870 C.2     1  UNL1        0.1300
      3  C          5.3510   -0.0380    2.0260 C.3     1  UNL1        0.0870
      4  O          6.3300    2.0620    1.9470 O.2     1  UNL1       -0.3000
      5  C          7.4080    1.1100   -0.6950 C.3     1  UNL1        0.0430
      6  C          7.7820   -0.2280   -1.1850 C.2     1  UNL1       -0.0440
      7  C          7.9580   -0.4870   -2.5490 C.2     1  UNL1        0.0080
      8  C          7.9660   -1.2560   -0.2880 C.2     1  UNL1        0.0540
      9  C          8.3100   -1.7630   -2.9500 C.2     1  UNL1        0.0510
     10  C          8.3230   -2.5440   -0.6980 C.2     1  UNL1        0.1660
     11  C          8.4950   -2.8000   -2.0410 C.2     1  UNL1        0.1650
     12  O          8.5600   -3.7170   -0.0130 O.2     1  UNL1       -0.4540
     13  O          8.8400   -4.1370   -2.1530 O.2     1  UNL1       -0.4540
     14  C          8.9810   -4.7340   -0.8860 C.3     1  UNL1        0.4680
@<TRIPOS>BOND
     1     9     7    1
     2     9    11    2
     3     7     6    2
     4    13    11    1
     5    13    14    1
     6    11    10    1
     7     6     5    1
     8     6     8    1
     9    14    12    1
    10    10     8    2
    11    10    12    1
    12     5     1    1
    13     1     2    1
    14     2     4    2
    15     2     3    1
