@<TRIPOS>MOLECULE
/home/cewinharhar/GITHUB/reincatalyze/data/processed/docking_pred/2023-May-23-1437_sub9_nm5_bs15_s42_ex16_mel10_mts10000_k50_ec02_g099_lra3e-4_lrc1e-3/37aabdb081a78d2f2d4d4e560ab17afff45a2586_ligand_9.pdbqt
 14 15 0 0 0
SMALL
GASTEIGER

@<TRIPOS>ATOM
      1  C          6.1820   -0.3920    2.3060 C.3     1  UNL1        0.0800
      2  C          5.1270    0.5670    1.8740 C.2     1  UNL1        0.1300
      3  C          5.2840    1.4020    0.6530 C.3     1  UNL1        0.0870
      4  O          4.0960    0.6960    2.5150 O.2     1  UNL1       -0.3000
      5  C          7.5070   -0.0910    1.6360 C.3     1  UNL1        0.0430
      6  C          7.7940   -1.0360    0.5420 C.2     1  UNL1       -0.0440
      7  C          7.6570   -0.6670   -0.8010 C.2     1  UNL1        0.0080
      8  C          8.2090   -2.3150    0.8370 C.2     1  UNL1        0.0540
      9  C          7.9410   -1.5960   -1.7850 C.2     1  UNL1        0.0510
     10  C          8.4960   -3.2510   -0.1610 C.2     1  UNL1        0.1660
     11  C          8.3600   -2.8880   -1.4830 C.2     1  UNL1        0.1650
     12  O          8.9170   -4.5630   -0.1260 O.2     1  UNL1       -0.4540
     13  O          8.7060   -3.9970   -2.2400 O.2     1  UNL1       -0.4540
     14  C          9.1530   -5.0520   -1.4220 C.3     1  UNL1        0.4680
@<TRIPOS>BOND
     1    13    11    1
     2    13    14    1
     3     9    11    2
     4     9     7    1
     5    11    10    1
     6    14    12    1
     7     7     6    2
     8    10    12    1
     9    10     8    2
    10     6     8    1
    11     6     5    1
    12     3     2    1
    13     5     1    1
    14     2     1    1
    15     2     4    2
