@<TRIPOS>MOLECULE
/home/cewinharhar/GITHUB/reincatalyze/data/processed/docking_pred/2023-May-23-1437_sub9_nm5_bs15_s42_ex16_mel10_mts10000_k50_ec02_g099_lra3e-4_lrc1e-3/3b29dc4ebb7ee5049f43ecb42d98a580ffb6b5da_ligand_9.pdbqt
 14 15 0 0 0
SMALL
GASTEIGER

@<TRIPOS>ATOM
      1  C          6.9780   -0.3040    1.6630 C.3     1  UNL1        0.0800
      2  C          5.7750    0.5460    1.4370 C.2     1  UNL1        0.1300
      3  C          5.6230    1.3720    0.2100 C.3     1  UNL1        0.0870
      4  O          4.8740    0.5880    2.2590 O.2     1  UNL1       -0.3000
      5  C          6.8730   -1.0700    2.9670 C.3     1  UNL1        0.0430
      6  C          8.1930   -1.5220    3.4420 C.2     1  UNL1       -0.0440
      7  C          8.6310   -1.2620    4.7460 C.2     1  UNL1        0.0080
      8  C          9.0210   -2.2200    2.5940 C.2     1  UNL1        0.0540
      9  C          9.8790   -1.7120    5.1370 C.2     1  UNL1        0.0510
     10  C         10.2820   -2.6730    2.9940 C.2     1  UNL1        0.1660
     11  C         10.7140   -2.4170    4.2760 C.2     1  UNL1        0.1650
     12  O         11.2770   -3.3760    2.3470 O.2     1  UNL1       -0.4540
     13  O         11.9780   -2.9740    4.3920 O.2     1  UNL1       -0.4540
     14  C         12.3360   -3.6700    3.2220 C.3     1  UNL1        0.4680
@<TRIPOS>BOND
     1     3     2    1
     2     2     1    1
     3     2     4    2
     4     1     5    1
     5    12    10    1
     6    12    14    1
     7     8    10    1
     8     8     6    2
     9     5     6    1
    10    10    11    2
    11    14    13    1
    12     6     7    1
    13    11    13    1
    14    11     9    1
    15     7     9    2
