MODEL 1
REMARK VINA RESULT:      -7.5      0.000      0.000
REMARK SMILES CC(=O)CCc1ccc2c(c1)OCO2
REMARK SMILES IDX 4 1 2 2 1 3 3 4 5 5 6 6 7 7 11 8 8 9 10 10 9 11 12 12 14 13
REMARK SMILES IDX 13 14
REMARK H PARENT
REMARK Flexibility Score: inf
ROOT
ATOM      1  C   UNL     1       5.601  -0.187   1.962  1.00  0.00     0.080 C 
ENDROOT
BRANCH   1   2
ATOM      2  C   UNL     1       5.355   1.007   1.106  1.00  0.00     0.130 C 
ATOM      3  C   UNL     1       5.994   1.156  -0.229  1.00  0.00     0.087 C 
ATOM      4  O   UNL     1       4.618   1.905   1.480  1.00  0.00    -0.300 OA
ENDBRANCH   1   2
BRANCH   1   5
ATOM      5  C   UNL     1       6.535  -1.169   1.282  1.00  0.00     0.043 C 
BRANCH   5   6
ATOM      6  C   UNL     1       7.659  -1.548   2.156  1.00  0.00    -0.044 A 
ATOM      7  C   UNL     1       7.695  -1.181   3.506  1.00  0.00     0.008 A 
ATOM      8  C   UNL     1       8.704  -2.283   1.643  1.00  0.00     0.054 A 
ATOM      9  C   UNL     1       8.775  -1.567   4.278  1.00  0.00     0.051 A 
ATOM     10  C   UNL     1       9.794  -2.671   2.428  1.00  0.00     0.166 A 
ATOM     11  C   UNL     1       9.830  -2.310   3.756  1.00  0.00     0.165 A 
ATOM     12  O   UNL     1      10.938  -3.392   2.157  1.00  0.00    -0.454 OA
ATOM     13  O   UNL     1      11.007  -2.822   4.279  1.00  0.00    -0.454 OA
ATOM     14  C   UNL     1      11.695  -3.592   3.323  1.00  0.00     0.468 C 
ENDBRANCH   5   6
ENDBRANCH   1   5
TORSDOF 3
ENDMDL
MODEL 2
REMARK VINA RESULT:      -7.3      3.888      4.889
REMARK SMILES CC(=O)CCc1ccc2c(c1)OCO2
REMARK SMILES IDX 4 1 2 2 1 3 3 4 5 5 6 6 7 7 11 8 8 9 10 10 9 11 12 12 14 13
REMARK SMILES IDX 13 14
REMARK H PARENT
REMARK Flexibility Score: inf
ROOT
ATOM      1  C   UNL     1       5.489   1.905   1.277  1.00  0.00     0.080 C 
ENDROOT
BRANCH   1   2
ATOM      2  C   UNL     1       4.984   0.694   1.983  1.00  0.00     0.130 C 
ATOM      3  C   UNL     1       5.796  -0.548   2.081  1.00  0.00     0.087 C 
ATOM      4  O   UNL     1       3.880   0.687   2.504  1.00  0.00    -0.300 OA
ENDBRANCH   1   2
BRANCH   1   5
ATOM      5  C   UNL     1       5.384   1.749  -0.227  1.00  0.00     0.043 C 
BRANCH   5   6
ATOM      6  C   UNL     1       6.552   1.045  -0.786  1.00  0.00    -0.044 A 
ATOM      7  C   UNL     1       7.860   1.469  -0.520  1.00  0.00     0.008 A 
ATOM      8  C   UNL     1       6.365  -0.058  -1.587  1.00  0.00     0.054 A 
ATOM      9  C   UNL     1       8.917   0.768  -1.071  1.00  0.00     0.051 A 
ATOM     10  C   UNL     1       7.438  -0.764  -2.141  1.00  0.00     0.166 A 
ATOM     11  C   UNL     1       8.724  -0.346  -1.882  1.00  0.00     0.165 A 
ATOM     12  O   UNL     1       7.512  -1.872  -2.957  1.00  0.00    -0.454 OA
ATOM     13  O   UNL     1       9.570  -1.218  -2.549  1.00  0.00    -0.454 OA
ATOM     14  C   UNL     1       8.847  -2.254  -3.170  1.00  0.00     0.468 C 
ENDBRANCH   5   6
ENDBRANCH   1   5
TORSDOF 3
ENDMDL
MODEL 3
REMARK VINA RESULT:      -7.1      0.927      1.158
REMARK SMILES CC(=O)CCc1ccc2c(c1)OCO2
REMARK SMILES IDX 4 1 2 2 1 3 3 4 5 5 6 6 7 7 11 8 8 9 10 10 9 11 12 12 14 13
REMARK SMILES IDX 13 14
REMARK H PARENT
REMARK Flexibility Score: inf
ROOT
ATOM      1  C   UNL     1       6.978  -0.304   1.663  1.00  0.00     0.080 C 
ENDROOT
BRANCH   1   2
ATOM      2  C   UNL     1       5.775   0.546   1.437  1.00  0.00     0.130 C 
ATOM      3  C   UNL     1       5.623   1.372   0.210  1.00  0.00     0.087 C 
ATOM      4  O   UNL     1       4.874   0.588   2.259  1.00  0.00    -0.300 OA
ENDBRANCH   1   2
BRANCH   1   5
ATOM      5  C   UNL     1       6.873  -1.070   2.967  1.00  0.00     0.043 C 
BRANCH   5   6
ATOM      6  C   UNL     1       8.193  -1.522   3.442  1.00  0.00    -0.044 A 
ATOM      7  C   UNL     1       8.631  -1.262   4.746  1.00  0.00     0.008 A 
ATOM      8  C   UNL     1       9.021  -2.220   2.594  1.00  0.00     0.054 A 
ATOM      9  C   UNL     1       9.879  -1.712   5.137  1.00  0.00     0.051 A 
ATOM     10  C   UNL     1      10.282  -2.673   2.994  1.00  0.00     0.166 A 
ATOM     11  C   UNL     1      10.714  -2.417   4.276  1.00  0.00     0.165 A 
ATOM     12  O   UNL     1      11.277  -3.376   2.347  1.00  0.00    -0.454 OA
ATOM     13  O   UNL     1      11.978  -2.974   4.392  1.00  0.00    -0.454 OA
ATOM     14  C   UNL     1      12.336  -3.670   3.222  1.00  0.00     0.468 C 
ENDBRANCH   5   6
ENDBRANCH   1   5
TORSDOF 3
ENDMDL
MODEL 4
REMARK VINA RESULT:      -7.0      0.995      1.957
REMARK SMILES CC(=O)CCc1ccc2c(c1)OCO2
REMARK SMILES IDX 4 1 2 2 1 3 3 4 5 5 6 6 7 7 11 8 8 9 10 10 9 11 12 12 14 13
REMARK SMILES IDX 13 14
REMARK H PARENT
REMARK Flexibility Score: inf
ROOT
ATOM      1  C   UNL     1       5.375  -0.092   1.950  1.00  0.00     0.080 C 
ENDROOT
BRANCH   1   2
ATOM      2  C   UNL     1       5.308   1.086   1.041  1.00  0.00     0.130 C 
ATOM      3  C   UNL     1       5.856   1.037  -0.341  1.00  0.00     0.087 C 
ATOM      4  O   UNL     1       4.799   2.132   1.407  1.00  0.00    -0.300 OA
ENDBRANCH   1   2
BRANCH   1   5
ATOM      5  C   UNL     1       6.113  -1.247   1.303  1.00  0.00     0.043 C 
BRANCH   5   6
ATOM      6  C   UNL     1       7.362  -1.566   2.017  1.00  0.00    -0.044 A 
ATOM      7  C   UNL     1       8.387  -2.300   1.408  1.00  0.00     0.008 A 
ATOM      8  C   UNL     1       7.537  -1.136   3.312  1.00  0.00     0.054 A 
ATOM      9  C   UNL     1       9.538  -2.569   2.127  1.00  0.00     0.051 A 
ATOM     10  C   UNL     1       8.702  -1.410   4.035  1.00  0.00     0.166 A 
ATOM     11  C   UNL     1       9.711  -2.133   3.437  1.00  0.00     0.165 A 
ATOM     12  O   UNL     1       9.109  -1.099   5.315  1.00  0.00    -0.454 OA
ATOM     13  O   UNL     1      10.727  -2.251   4.372  1.00  0.00    -0.454 OA
ATOM     14  C   UNL     1      10.425  -1.533   5.545  1.00  0.00     0.468 C 
ENDBRANCH   5   6
ENDBRANCH   1   5
TORSDOF 3
ENDMDL
MODEL 5
REMARK VINA RESULT:      -7.0      3.088      4.221
REMARK SMILES CC(=O)CCc1ccc2c(c1)OCO2
REMARK SMILES IDX 4 1 2 2 1 3 3 4 5 5 6 6 7 7 11 8 8 9 10 10 9 11 12 12 14 13
REMARK SMILES IDX 13 14
REMARK H PARENT
REMARK Flexibility Score: inf
ROOT
ATOM      1  C   UNL     1       5.618   1.459  -0.283  1.00  0.00     0.080 C 
ENDROOT
BRANCH   1   2
ATOM      2  C   UNL     1       5.033   1.302   1.077  1.00  0.00     0.130 C 
ATOM      3  C   UNL     1       5.392   0.155   1.954  1.00  0.00     0.087 C 
ATOM      4  O   UNL     1       4.237   2.116   1.515  1.00  0.00    -0.300 OA
ENDBRANCH   1   2
BRANCH   1   5
ATOM      5  C   UNL     1       7.122   1.270  -0.261  1.00  0.00     0.043 C 
BRANCH   5   6
ATOM      6  C   UNL     1       7.518  -0.029  -0.833  1.00  0.00    -0.044 A 
ATOM      7  C   UNL     1       7.626  -0.219  -2.216  1.00  0.00     0.008 A 
ATOM      8  C   UNL     1       7.793  -1.088   0.003  1.00  0.00     0.054 A 
ATOM      9  C   UNL     1       8.003  -1.460  -2.695  1.00  0.00     0.051 A 
ATOM     10  C   UNL     1       8.173  -2.341  -0.487  1.00  0.00     0.166 A 
ATOM     11  C   UNL     1       8.279  -2.528  -1.847  1.00  0.00     0.165 A 
ATOM     12  O   UNL     1       8.494  -3.532   0.128  1.00  0.00    -0.454 OA
ATOM     13  O   UNL     1       8.667  -3.845  -2.041  1.00  0.00    -0.454 OA
ATOM     14  C   UNL     1       8.903  -4.491  -0.813  1.00  0.00     0.468 C 
ENDBRANCH   5   6
ENDBRANCH   1   5
TORSDOF 3
ENDMDL
