@<TRIPOS>MOLECULE
/home/cewinharhar/GITHUB/reincatalyze/data/processed/docking_pred/2023-May-23-1437_sub9_nm5_bs15_s42_ex16_mel10_mts10000_k50_ec02_g099_lra3e-4_lrc1e-3/3bf4b9a3f06cfa5433c2fd34b58c3faf64c233d9_ligand_9.pdbqt
 14 15 0 0 0
SMALL
GASTEIGER

@<TRIPOS>ATOM
      1  C          5.5030    1.9250    1.2560 C.3     1  UNL1        0.0800
      2  C          5.0660    0.7100    1.9980 C.2     1  UNL1        0.1300
      3  C          5.9600   -0.4680    2.1640 C.3     1  UNL1        0.0870
      4  O          3.9530    0.6450    2.4940 O.2     1  UNL1       -0.3000
      5  C          5.3790    1.7290   -0.2420 C.3     1  UNL1        0.0430
      6  C          6.5500    1.0280   -0.8000 C.2     1  UNL1       -0.0440
      7  C          7.8550    1.4610   -0.5410 C.2     1  UNL1        0.0080
      8  C          6.3660   -0.0810   -1.5940 C.2     1  UNL1        0.0540
      9  C          8.9150    0.7620   -1.0910 C.2     1  UNL1        0.0510
     10  C          7.4400   -0.7830   -2.1470 C.2     1  UNL1        0.1660
     11  C          8.7250   -0.3580   -1.8940 C.2     1  UNL1        0.1650
     12  O          7.5180   -1.8970   -2.9570 O.2     1  UNL1       -0.4540
     13  O          9.5740   -1.2290   -2.5590 O.2     1  UNL1       -0.4540
     14  C          8.8550   -2.2720   -3.1700 C.3     1  UNL1        0.4680
@<TRIPOS>BOND
     1    14    12    1
     2    14    13    1
     3    12    10    1
     4    13    11    1
     5    10    11    2
     6    10     8    1
     7    11     9    1
     8     8     6    2
     9     9     7    2
    10     6     7    1
    11     6     5    1
    12     5     1    1
    13     1     2    1
    14     2     3    1
    15     2     4    2
