MODEL 1
REMARK VINA RESULT:      -7.7      0.000      0.000
REMARK SMILES CC(=O)CCc1ccc2c(c1)OCO2
REMARK SMILES IDX 4 1 2 2 1 3 3 4 5 5 6 6 7 7 11 8 8 9 10 10 9 11 12 12 14 13
REMARK SMILES IDX 13 14
REMARK H PARENT
REMARK Flexibility Score: inf
ROOT
ATOM      1  C   UNL     1       5.503   1.925   1.256  1.00  0.00     0.080 C 
ENDROOT
BRANCH   1   2
ATOM      2  C   UNL     1       5.066   0.710   1.998  1.00  0.00     0.130 C 
ATOM      3  C   UNL     1       5.960  -0.468   2.164  1.00  0.00     0.087 C 
ATOM      4  O   UNL     1       3.953   0.645   2.494  1.00  0.00    -0.300 OA
ENDBRANCH   1   2
BRANCH   1   5
ATOM      5  C   UNL     1       5.379   1.729  -0.242  1.00  0.00     0.043 C 
BRANCH   5   6
ATOM      6  C   UNL     1       6.550   1.028  -0.800  1.00  0.00    -0.044 A 
ATOM      7  C   UNL     1       7.855   1.461  -0.541  1.00  0.00     0.008 A 
ATOM      8  C   UNL     1       6.366  -0.081  -1.594  1.00  0.00     0.054 A 
ATOM      9  C   UNL     1       8.915   0.762  -1.091  1.00  0.00     0.051 A 
ATOM     10  C   UNL     1       7.440  -0.783  -2.147  1.00  0.00     0.166 A 
ATOM     11  C   UNL     1       8.725  -0.358  -1.894  1.00  0.00     0.165 A 
ATOM     12  O   UNL     1       7.518  -1.897  -2.957  1.00  0.00    -0.454 OA
ATOM     13  O   UNL     1       9.574  -1.229  -2.559  1.00  0.00    -0.454 OA
ATOM     14  C   UNL     1       8.855  -2.272  -3.170  1.00  0.00     0.468 C 
ENDBRANCH   5   6
ENDBRANCH   1   5
TORSDOF 3
ENDMDL
MODEL 2
REMARK VINA RESULT:      -7.5      1.942      2.395
REMARK SMILES CC(=O)CCc1ccc2c(c1)OCO2
REMARK SMILES IDX 4 1 2 2 1 3 3 4 5 5 6 6 7 7 11 8 8 9 10 10 9 11 12 12 14 13
REMARK SMILES IDX 13 14
REMARK H PARENT
REMARK Flexibility Score: inf
ROOT
ATOM      1  C   UNL     1       5.710   1.351  -0.283  1.00  0.00     0.080 C 
ENDROOT
BRANCH   1   2
ATOM      2  C   UNL     1       5.111   1.273   1.078  1.00  0.00     0.130 C 
ATOM      3  C   UNL     1       5.418   0.150   2.004  1.00  0.00     0.087 C 
ATOM      4  O   UNL     1       4.344   2.136   1.476  1.00  0.00    -0.300 OA
ENDBRANCH   1   2
BRANCH   1   5
ATOM      5  C   UNL     1       7.207   1.120  -0.239  1.00  0.00     0.043 C 
BRANCH   5   6
ATOM      6  C   UNL     1       7.578  -0.176  -0.835  1.00  0.00    -0.044 A 
ATOM      7  C   UNL     1       7.617  -0.362  -2.221  1.00  0.00     0.008 A 
ATOM      8  C   UNL     1       7.898  -1.236  -0.017  1.00  0.00     0.054 A 
ATOM      9  C   UNL     1       7.972  -1.601  -2.723  1.00  0.00     0.051 A 
ATOM     10  C   UNL     1       8.258  -2.486  -0.529  1.00  0.00     0.166 A 
ATOM     11  C   UNL     1       8.295  -2.670  -1.893  1.00  0.00     0.165 A 
ATOM     12  O   UNL     1       8.613  -3.679   0.065  1.00  0.00    -0.454 OA
ATOM     13  O   UNL     1       8.677  -3.985  -2.111  1.00  0.00    -0.454 OA
ATOM     14  C   UNL     1       8.976  -4.634  -0.898  1.00  0.00     0.468 C 
ENDBRANCH   5   6
ENDBRANCH   1   5
TORSDOF 3
ENDMDL
MODEL 3
REMARK VINA RESULT:      -7.2      2.056      2.619
REMARK SMILES CC(=O)CCc1ccc2c(c1)OCO2
REMARK SMILES IDX 4 1 2 2 1 3 3 4 5 5 6 6 7 7 11 8 8 9 10 10 9 11 12 12 14 13
REMARK SMILES IDX 13 14
REMARK H PARENT
REMARK Flexibility Score: inf
ROOT
ATOM      1  C   UNL     1       5.453  -0.040   2.020  1.00  0.00     0.080 C 
ENDROOT
BRANCH   1   2
ATOM      2  C   UNL     1       4.574   1.132   1.751  1.00  0.00     0.130 C 
ATOM      3  C   UNL     1       4.893   2.118   0.684  1.00  0.00     0.087 C 
ATOM      4  O   UNL     1       3.560   1.318   2.404  1.00  0.00    -0.300 OA
ENDBRANCH   1   2
BRANCH   1   5
ATOM      5  C   UNL     1       6.876   0.224   1.570  1.00  0.00     0.043 C 
BRANCH   5   6
ATOM      6  C   UNL     1       7.296  -0.711   0.510  1.00  0.00    -0.044 A 
ATOM      7  C   UNL     1       7.167  -0.387  -0.845  1.00  0.00     0.008 A 
ATOM      8  C   UNL     1       7.832  -1.932   0.850  1.00  0.00     0.054 A 
ATOM      9  C   UNL     1       7.580  -1.303  -1.796  1.00  0.00     0.051 A 
ATOM     10  C   UNL     1       8.248  -2.854  -0.114  1.00  0.00     0.166 A 
ATOM     11  C   UNL     1       8.120  -2.538  -1.448  1.00  0.00     0.165 A 
ATOM     12  O   UNL     1       8.802  -4.114  -0.032  1.00  0.00    -0.454 OA
ATOM     13  O   UNL     1       8.605  -3.620  -2.165  1.00  0.00    -0.454 OA
ATOM     14  C   UNL     1       9.131  -4.604  -1.307  1.00  0.00     0.468 C 
ENDBRANCH   5   6
ENDBRANCH   1   5
TORSDOF 3
ENDMDL
MODEL 4
REMARK VINA RESULT:      -7.1      1.246      1.447
REMARK SMILES CC(=O)CCc1ccc2c(c1)OCO2
REMARK SMILES IDX 4 1 2 2 1 3 3 4 5 5 6 6 7 7 11 8 8 9 10 10 9 11 12 12 14 13
REMARK SMILES IDX 13 14
REMARK H PARENT
REMARK Flexibility Score: inf
ROOT
ATOM      1  C   UNL     1       6.357   1.217   0.936  1.00  0.00     0.080 C 
ENDROOT
BRANCH   1   2
ATOM      2  C   UNL     1       5.658   0.372   1.944  1.00  0.00     0.130 C 
ATOM      3  C   UNL     1       6.293  -0.845   2.518  1.00  0.00     0.087 C 
ATOM      4  O   UNL     1       4.536   0.656   2.330  1.00  0.00    -0.300 OA
ENDBRANCH   1   2
BRANCH   1   5
ATOM      5  C   UNL     1       5.848   0.936  -0.465  1.00  0.00     0.043 C 
BRANCH   5   6
ATOM      6  C   UNL     1       6.801   0.121  -1.239  1.00  0.00    -0.044 A 
ATOM      7  C   UNL     1       7.498   0.648  -2.332  1.00  0.00     0.008 A 
ATOM      8  C   UNL     1       7.021  -1.191  -0.885  1.00  0.00     0.054 A 
ATOM      9  C   UNL     1       8.380  -0.165  -3.021  1.00  0.00     0.051 A 
ATOM     10  C   UNL     1       7.915  -2.008  -1.583  1.00  0.00     0.166 A 
ATOM     11  C   UNL     1       8.600  -1.491  -2.661  1.00  0.00     0.165 A 
ATOM     12  O   UNL     1       8.301  -3.323  -1.432  1.00  0.00    -0.454 OA
ATOM     13  O   UNL     1       9.401  -2.509  -3.152  1.00  0.00    -0.454 OA
ATOM     14  C   UNL     1       9.311  -3.660  -2.348  1.00  0.00     0.468 C 
ENDBRANCH   5   6
ENDBRANCH   1   5
TORSDOF 3
ENDMDL
MODEL 5
REMARK VINA RESULT:      -7.0      1.946      2.510
REMARK SMILES CC(=O)CCc1ccc2c(c1)OCO2
REMARK SMILES IDX 4 1 2 2 1 3 3 4 5 5 6 6 7 7 11 8 8 9 10 10 9 11 12 12 14 13
REMARK SMILES IDX 13 14
REMARK H PARENT
REMARK Flexibility Score: inf
ROOT
ATOM      1  C   UNL     1       6.863   0.924   1.308  1.00  0.00     0.080 C 
ENDROOT
BRANCH   1   2
ATOM      2  C   UNL     1       5.403   1.148   1.497  1.00  0.00     0.130 C 
ATOM      3  C   UNL     1       4.656   2.150   0.690  1.00  0.00     0.087 C 
ATOM      4  O   UNL     1       4.773   0.511   2.326  1.00  0.00    -0.300 OA
ENDBRANCH   1   2
BRANCH   1   5
ATOM      5  C   UNL     1       7.262   1.091  -0.145  1.00  0.00     0.043 C 
BRANCH   5   6
ATOM      6  C   UNL     1       7.582  -0.201  -0.777  1.00  0.00    -0.044 A 
ATOM      7  C   UNL     1       7.524  -0.373  -2.165  1.00  0.00     0.008 A 
ATOM      8  C   UNL     1       7.950  -1.271   0.007  1.00  0.00     0.054 A 
ATOM      9  C   UNL     1       7.836  -1.609  -2.701  1.00  0.00     0.051 A 
ATOM     10  C   UNL     1       8.265  -2.518  -0.540  1.00  0.00     0.166 A 
ATOM     11  C   UNL     1       8.207  -2.689  -1.906  1.00  0.00     0.165 A 
ATOM     12  O   UNL     1       8.651  -3.719   0.017  1.00  0.00    -0.454 OA
ATOM     13  O   UNL     1       8.564  -4.004  -2.161  1.00  0.00    -0.454 OA
ATOM     14  C   UNL     1       8.941  -4.667  -0.978  1.00  0.00     0.468 C 
ENDBRANCH   5   6
ENDBRANCH   1   5
TORSDOF 3
ENDMDL
