@<TRIPOS>MOLECULE
/home/cewinharhar/GITHUB/reincatalyze/data/processed/docking_pred/2023-May-23-1437_sub9_nm5_bs15_s42_ex16_mel10_mts10000_k50_ec02_g099_lra3e-4_lrc1e-3/3dd20a82ca316ee4e9168eadca9f8684e5881f32_ligand_9.pdbqt
 14 15 0 0 0
SMALL
GASTEIGER

@<TRIPOS>ATOM
      1  C          5.5460    0.0260    1.9670 C.3     1  UNL1        0.0800
      2  C          4.6680    1.1910    1.6660 C.2     1  UNL1        0.1300
      3  C          4.9840    2.1450    0.5690 C.3     1  UNL1        0.0870
      4  O          3.6550    1.3970    2.3150 O.2     1  UNL1       -0.3000
      5  C          6.9710    0.2800    1.5140 C.3     1  UNL1        0.0430
      6  C          7.3860   -0.6650    0.4630 C.2     1  UNL1       -0.0440
      7  C          7.3040   -0.3350   -0.8950 C.2     1  UNL1        0.0080
      8  C          7.8710   -1.9050    0.8130 C.2     1  UNL1        0.0540
      9  C          7.7090   -1.2620   -1.8370 C.2     1  UNL1        0.0510
     10  C          8.2800   -2.8390   -0.1440 C.2     1  UNL1        0.1660
     11  C          8.1980   -2.5150   -1.4800 C.2     1  UNL1        0.1650
     12  O          8.7890   -4.1170   -0.0520 O.2     1  UNL1       -0.4540
     13  O          8.6640   -3.6120   -2.1880 O.2     1  UNL1       -0.4540
     14  C          9.1340   -4.6150   -1.3190 C.3     1  UNL1        0.4680
@<TRIPOS>BOND
     1    13    11    1
     2    13    14    1
     3     9    11    2
     4     9     7    1
     5    11    10    1
     6    14    12    1
     7     7     6    2
     8    10    12    1
     9    10     8    2
    10     6     8    1
    11     6     5    1
    12     3     2    1
    13     5     1    1
    14     2     1    1
    15     2     4    2
