MODEL 1
REMARK VINA RESULT:      -7.6      0.000      0.000
REMARK SMILES CC(=O)CCc1ccc2c(c1)OCO2
REMARK SMILES IDX 4 1 2 2 1 3 3 4 5 5 6 6 7 7 11 8 8 9 10 10 9 11 12 12 14 13
REMARK SMILES IDX 13 14
REMARK H PARENT
REMARK Flexibility Score: inf
ROOT
ATOM      1  C   UNL     1       5.496   1.933   1.262  1.00  0.00     0.080 C 
ENDROOT
BRANCH   1   2
ATOM      2  C   UNL     1       5.040   0.718   1.994  1.00  0.00     0.130 C 
ATOM      3  C   UNL     1       5.904  -0.486   2.124  1.00  0.00     0.087 C 
ATOM      4  O   UNL     1       3.935   0.675   2.511  1.00  0.00    -0.300 OA
ENDBRANCH   1   2
BRANCH   1   5
ATOM      5  C   UNL     1       5.380   1.748  -0.238  1.00  0.00     0.043 C 
BRANCH   5   6
ATOM      6  C   UNL     1       6.550   1.046  -0.794  1.00  0.00    -0.044 A 
ATOM      7  C   UNL     1       7.856   1.477  -0.533  1.00  0.00     0.008 A 
ATOM      8  C   UNL     1       6.367  -0.063  -1.589  1.00  0.00     0.054 A 
ATOM      9  C   UNL     1       8.916   0.779  -1.082  1.00  0.00     0.051 A 
ATOM     10  C   UNL     1       7.442  -0.766  -2.140  1.00  0.00     0.166 A 
ATOM     11  C   UNL     1       8.727  -0.341  -1.885  1.00  0.00     0.165 A 
ATOM     12  O   UNL     1       7.520  -1.879  -2.950  1.00  0.00    -0.454 OA
ATOM     13  O   UNL     1       9.576  -1.213  -2.549  1.00  0.00    -0.454 OA
ATOM     14  C   UNL     1       8.856  -2.256  -3.162  1.00  0.00     0.468 C 
ENDBRANCH   5   6
ENDBRANCH   1   5
TORSDOF 3
ENDMDL
MODEL 2
REMARK VINA RESULT:      -7.4      1.859      2.303
REMARK SMILES CC(=O)CCc1ccc2c(c1)OCO2
REMARK SMILES IDX 4 1 2 2 1 3 3 4 5 5 6 6 7 7 11 8 8 9 10 10 9 11 12 12 14 13
REMARK SMILES IDX 13 14
REMARK H PARENT
REMARK Flexibility Score: inf
ROOT
ATOM      1  C   UNL     1       5.589   1.369  -0.223  1.00  0.00     0.080 C 
ENDROOT
BRANCH   1   2
ATOM      2  C   UNL     1       5.033   1.226   1.151  1.00  0.00     0.130 C 
ATOM      3  C   UNL     1       5.425   0.098   2.039  1.00  0.00     0.087 C 
ATOM      4  O   UNL     1       4.233   2.035   1.591  1.00  0.00    -0.300 OA
ENDBRANCH   1   2
BRANCH   1   5
ATOM      5  C   UNL     1       7.094   1.185  -0.230  1.00  0.00     0.043 C 
BRANCH   5   6
ATOM      6  C   UNL     1       7.486  -0.092  -0.852  1.00  0.00    -0.044 A 
ATOM      7  C   UNL     1       7.492  -0.259  -2.241  1.00  0.00     0.008 A 
ATOM      8  C   UNL     1       7.860  -1.152  -0.057  1.00  0.00     0.054 A 
ATOM      9  C   UNL     1       7.870  -1.481  -2.769  1.00  0.00     0.051 A 
ATOM     10  C   UNL     1       8.242  -2.384  -0.595  1.00  0.00     0.166 A 
ATOM     11  C   UNL     1       8.246  -2.550  -1.962  1.00  0.00     0.165 A 
ATOM     12  O   UNL     1       8.648  -3.573  -0.026  1.00  0.00    -0.454 OA
ATOM     13  O   UNL     1       8.661  -3.850  -2.207  1.00  0.00    -0.454 OA
ATOM     14  C   UNL     1       9.013  -4.505  -1.011  1.00  0.00     0.468 C 
ENDBRANCH   5   6
ENDBRANCH   1   5
TORSDOF 3
ENDMDL
MODEL 3
REMARK VINA RESULT:      -7.2      2.072      2.600
REMARK SMILES CC(=O)CCc1ccc2c(c1)OCO2
REMARK SMILES IDX 4 1 2 2 1 3 3 4 5 5 6 6 7 7 11 8 8 9 10 10 9 11 12 12 14 13
REMARK SMILES IDX 13 14
REMARK H PARENT
REMARK Flexibility Score: inf
ROOT
ATOM      1  C   UNL     1       5.546   0.026   1.967  1.00  0.00     0.080 C 
ENDROOT
BRANCH   1   2
ATOM      2  C   UNL     1       4.668   1.191   1.666  1.00  0.00     0.130 C 
ATOM      3  C   UNL     1       4.984   2.145   0.569  1.00  0.00     0.087 C 
ATOM      4  O   UNL     1       3.655   1.397   2.315  1.00  0.00    -0.300 OA
ENDBRANCH   1   2
BRANCH   1   5
ATOM      5  C   UNL     1       6.971   0.280   1.514  1.00  0.00     0.043 C 
BRANCH   5   6
ATOM      6  C   UNL     1       7.386  -0.665   0.463  1.00  0.00    -0.044 A 
ATOM      7  C   UNL     1       7.304  -0.335  -0.895  1.00  0.00     0.008 A 
ATOM      8  C   UNL     1       7.871  -1.905   0.813  1.00  0.00     0.054 A 
ATOM      9  C   UNL     1       7.709  -1.262  -1.837  1.00  0.00     0.051 A 
ATOM     10  C   UNL     1       8.280  -2.839  -0.144  1.00  0.00     0.166 A 
ATOM     11  C   UNL     1       8.198  -2.515  -1.480  1.00  0.00     0.165 A 
ATOM     12  O   UNL     1       8.789  -4.117  -0.052  1.00  0.00    -0.454 OA
ATOM     13  O   UNL     1       8.664  -3.612  -2.188  1.00  0.00    -0.454 OA
ATOM     14  C   UNL     1       9.134  -4.615  -1.319  1.00  0.00     0.468 C 
ENDBRANCH   5   6
ENDBRANCH   1   5
TORSDOF 3
ENDMDL
MODEL 4
REMARK VINA RESULT:      -7.1      1.260      1.480
REMARK SMILES CC(=O)CCc1ccc2c(c1)OCO2
REMARK SMILES IDX 4 1 2 2 1 3 3 4 5 5 6 6 7 7 11 8 8 9 10 10 9 11 12 12 14 13
REMARK SMILES IDX 13 14
REMARK H PARENT
REMARK Flexibility Score: inf
ROOT
ATOM      1  C   UNL     1       6.359   1.233   0.873  1.00  0.00     0.080 C 
ENDROOT
BRANCH   1   2
ATOM      2  C   UNL     1       5.664   0.419   1.909  1.00  0.00     0.130 C 
ATOM      3  C   UNL     1       6.287  -0.799   2.493  1.00  0.00     0.087 C 
ATOM      4  O   UNL     1       4.555   0.732   2.312  1.00  0.00    -0.300 OA
ENDBRANCH   1   2
BRANCH   1   5
ATOM      5  C   UNL     1       5.846   0.909  -0.516  1.00  0.00     0.043 C 
BRANCH   5   6
ATOM      6  C   UNL     1       6.808   0.093  -1.278  1.00  0.00    -0.044 A 
ATOM      7  C   UNL     1       7.517   0.618  -2.364  1.00  0.00     0.008 A 
ATOM      8  C   UNL     1       7.024  -1.218  -0.919  1.00  0.00     0.054 A 
ATOM      9  C   UNL     1       8.408  -0.195  -3.040  1.00  0.00     0.051 A 
ATOM     10  C   UNL     1       7.926  -2.036  -1.606  1.00  0.00     0.166 A 
ATOM     11  C   UNL     1       8.624  -1.520  -2.676  1.00  0.00     0.165 A 
ATOM     12  O   UNL     1       8.311  -3.351  -1.448  1.00  0.00    -0.454 OA
ATOM     13  O   UNL     1       9.432  -2.539  -3.156  1.00  0.00    -0.454 OA
ATOM     14  C   UNL     1       9.332  -3.689  -2.351  1.00  0.00     0.468 C 
ENDBRANCH   5   6
ENDBRANCH   1   5
TORSDOF 3
ENDMDL
MODEL 5
REMARK VINA RESULT:      -7.0      1.996      2.556
REMARK SMILES CC(=O)CCc1ccc2c(c1)OCO2
REMARK SMILES IDX 4 1 2 2 1 3 3 4 5 5 6 6 7 7 11 8 8 9 10 10 9 11 12 12 14 13
REMARK SMILES IDX 13 14
REMARK H PARENT
REMARK Flexibility Score: inf
ROOT
ATOM      1  C   UNL     1       6.813   0.727   1.345  1.00  0.00     0.080 C 
ENDROOT
BRANCH   1   2
ATOM      2  C   UNL     1       5.378   1.092   1.505  1.00  0.00     0.130 C 
ATOM      3  C   UNL     1       4.744   2.150   0.673  1.00  0.00     0.087 C 
ATOM      4  O   UNL     1       4.676   0.530   2.330  1.00  0.00    -0.300 OA
ENDBRANCH   1   2
BRANCH   1   5
ATOM      5  C   UNL     1       7.281   0.946  -0.080  1.00  0.00     0.043 C 
BRANCH   5   6
ATOM      6  C   UNL     1       7.656  -0.320  -0.733  1.00  0.00    -0.044 A 
ATOM      7  C   UNL     1       7.703  -0.440  -2.127  1.00  0.00     0.008 A 
ATOM      8  C   UNL     1       7.973  -1.417   0.036  1.00  0.00     0.054 A 
ATOM      9  C   UNL     1       8.063  -1.654  -2.684  1.00  0.00     0.051 A 
ATOM     10  C   UNL     1       8.336  -2.642  -0.532  1.00  0.00     0.166 A 
ATOM     11  C   UNL     1       8.381  -2.761  -1.904  1.00  0.00     0.165 A 
ATOM     12  O   UNL     1       8.689  -3.860   0.007  1.00  0.00    -0.454 OA
ATOM     13  O   UNL     1       8.766  -4.064  -2.180  1.00  0.00    -0.454 OA
ATOM     14  C   UNL     1       9.059  -4.769  -0.998  1.00  0.00     0.468 C 
ENDBRANCH   5   6
ENDBRANCH   1   5
TORSDOF 3
ENDMDL
