@<TRIPOS>MOLECULE
/home/cewinharhar/GITHUB/reincatalyze/data/processed/docking_pred/2023-May-23-1437_sub9_nm5_bs15_s42_ex16_mel10_mts10000_k50_ec02_g099_lra3e-4_lrc1e-3/3e742204aaadd08b2af2eabe2bac092cf241077d_ligand_9.pdbqt
 14 15 0 0 0
SMALL
GASTEIGER

@<TRIPOS>ATOM
      1  C          5.3980   -0.0670    2.0120 C.3     1  UNL1        0.0800
      2  C          4.5650    1.1440    1.7710 C.2     1  UNL1        0.1300
      3  C          4.9110    2.1330    0.7160 C.3     1  UNL1        0.0870
      4  O          3.5660    1.3600    2.4390 O.2     1  UNL1       -0.3000
      5  C          6.8420    0.1720    1.6170 C.3     1  UNL1        0.0430
      6  C          7.2740   -0.7430    0.5460 C.2     1  UNL1       -0.0440
      7  C          7.1540   -0.3990   -0.8050 C.2     1  UNL1        0.0080
      8  C          7.8120   -1.9680    0.8710 C.2     1  UNL1        0.0540
      9  C          7.5770   -1.2980   -1.7670 C.2     1  UNL1        0.0510
     10  C          8.2390   -2.8730   -0.1060 C.2     1  UNL1        0.1660
     11  C          8.1200   -2.5350   -1.4360 C.2     1  UNL1        0.1650
     12  O          8.7980   -4.1320   -0.0400 O.2     1  UNL1       -0.4540
     13  O          8.6140   -3.6040   -2.1660 O.2     1  UNL1       -0.4540
     14  C          9.1380   -4.6000   -1.3200 C.3     1  UNL1        0.4680
@<TRIPOS>BOND
     1    13    11    1
     2    13    14    1
     3     9    11    2
     4     9     7    1
     5    11    10    1
     6    14    12    1
     7     7     6    2
     8    10    12    1
     9    10     8    2
    10     6     8    1
    11     6     5    1
    12     3     2    1
    13     5     1    1
    14     2     1    1
    15     2     4    2
