@<TRIPOS>MOLECULE
/home/cewinharhar/GITHUB/reincatalyze/data/processed/docking_pred/2023-May-23-1437_sub9_nm5_bs15_s42_ex16_mel10_mts10000_k50_ec02_g099_lra3e-4_lrc1e-3/3ef00b253c4480de2280c2f95d83164b82996574_ligand_9.pdbqt
 14 15 0 0 0
SMALL
GASTEIGER

@<TRIPOS>ATOM
      1  C          5.7470    1.5870   -0.1780 C.3     1  UNL1        0.0800
      2  C          5.0740    1.3040    1.1200 C.2     1  UNL1        0.1300
      3  C          5.4350    0.1200    1.9450 C.3     1  UNL1        0.0870
      4  O          4.1990    2.0410    1.5460 O.2     1  UNL1       -0.3000
      5  C          7.2280    1.2680   -0.1110 C.3     1  UNL1        0.0430
      6  C          7.5450    0.0010   -0.7950 C.2     1  UNL1       -0.0440
      7  C          7.4820   -0.1150   -2.1880 C.2     1  UNL1        0.0080
      8  C          7.9150   -1.0990   -0.0560 C.2     1  UNL1        0.0540
      9  C          7.7920   -1.3290   -2.7750 C.2     1  UNL1        0.0510
     10  C          8.2270   -2.3240   -0.6530 C.2     1  UNL1        0.1660
     11  C          8.1650   -2.4390   -2.0240 C.2     1  UNL1        0.1650
     12  O          8.6150   -3.5450   -0.1460 O.2     1  UNL1       -0.4540
     13  O          8.5210   -3.7430   -2.3330 O.2     1  UNL1       -0.4540
     14  C          8.9020   -4.4530   -1.1790 C.3     1  UNL1        0.4680
@<TRIPOS>BOND
     1     9     7    1
     2     9    11    2
     3    13    11    1
     4    13    14    1
     5     7     6    2
     6    11    10    1
     7    14    12    1
     8     6     5    1
     9     6     8    1
    10    10    12    1
    11    10     8    2
    12     1     5    1
    13     1     2    1
    14     2     4    2
    15     2     3    1
