@<TRIPOS>MOLECULE
/home/cewinharhar/GITHUB/reincatalyze/data/processed/docking_pred/2023-May-23-1437_sub9_nm5_bs15_s42_ex16_mel10_mts10000_k50_ec02_g099_lra3e-4_lrc1e-3/41d0b72e0d67d5e9a3b384f9954b5fa92cfe5642_ligand_9.pdbqt
 14 15 0 0 0
SMALL
GASTEIGER

@<TRIPOS>ATOM
      1  C          5.7530    1.3360   -0.3350 C.3     1  UNL1        0.0800
      2  C          5.1640    1.2760    1.0320 C.2     1  UNL1        0.1300
      3  C          5.4660    0.1560    1.9630 C.3     1  UNL1        0.0870
      4  O          4.4110    2.1500    1.4290 O.2     1  UNL1       -0.3000
      5  C          7.2490    1.0950   -0.3020 C.3     1  UNL1        0.0430
      6  C          7.6070   -0.1980   -0.9110 C.2     1  UNL1       -0.0440
      7  C          7.6310   -0.3730   -2.3000 C.2     1  UNL1        0.0080
      8  C          7.9310   -1.2660   -0.1050 C.2     1  UNL1        0.0540
      9  C          7.9760   -1.6090   -2.8150 C.2     1  UNL1        0.0510
     10  C          8.2800   -2.5140   -0.6310 C.2     1  UNL1        0.1660
     11  C          8.3020   -2.6860   -1.9970 C.2     1  UNL1        0.1650
     12  O          8.6360   -3.7120   -0.0500 O.2     1  UNL1       -0.4540
     13  O          8.6760   -4.0010   -2.2290 O.2     1  UNL1       -0.4540
     14  C          8.9850   -4.6610   -1.0250 C.3     1  UNL1        0.4680
@<TRIPOS>BOND
     1     9     7    1
     2     9    11    2
     3     7     6    2
     4    13    11    1
     5    13    14    1
     6    11    10    1
     7    14    12    1
     8     6     5    1
     9     6     8    1
    10    10     8    2
    11    10    12    1
    12     1     5    1
    13     1     2    1
    14     2     4    2
    15     2     3    1
