@<TRIPOS>MOLECULE
/home/cewinharhar/GITHUB/reincatalyze/data/processed/docking_pred/2023-May-23-1437_sub9_nm5_bs15_s42_ex16_mel10_mts10000_k50_ec02_g099_lra3e-4_lrc1e-3/41d0b72e0d67d5e9a3b384f9954b5fa92cfe5642_ligand_9.pdbqt
 14 15 0 0 0
SMALL
GASTEIGER

@<TRIPOS>ATOM
      1  C          5.5250    1.9540    1.2500 C.3     1  UNL1        0.0800
      2  C          5.1190    0.7340    2.0030 C.2     1  UNL1        0.1300
      3  C          6.0490   -0.4110    2.1940 C.3     1  UNL1        0.0870
      4  O          4.0030    0.6390    2.4880 O.2     1  UNL1       -0.3000
      5  C          5.3960    1.7450   -0.2460 C.3     1  UNL1        0.0430
      6  C          6.5650    1.0390   -0.8010 C.2     1  UNL1       -0.0440
      7  C          7.8720    1.4640   -0.5370 C.2     1  UNL1        0.0080
      8  C          6.3780   -0.0670   -1.5980 C.2     1  UNL1        0.0540
      9  C          8.9300    0.7610   -1.0850 C.2     1  UNL1        0.0510
     10  C          7.4510   -0.7740   -2.1500 C.2     1  UNL1        0.1660
     11  C          8.7370   -0.3560   -1.8910 C.2     1  UNL1        0.1650
     12  O          7.5250   -1.8860   -2.9610 O.2     1  UNL1       -0.4540
     13  O          9.5840   -1.2300   -2.5550 O.2     1  UNL1       -0.4540
     14  C          8.8600   -2.2690   -3.1710 C.3     1  UNL1        0.4680
@<TRIPOS>BOND
     1    14    12    1
     2    14    13    1
     3    12    10    1
     4    13    11    1
     5    10    11    2
     6    10     8    1
     7    11     9    1
     8     8     6    2
     9     9     7    2
    10     6     7    1
    11     6     5    1
    12     5     1    1
    13     1     2    1
    14     2     3    1
    15     2     4    2
