@<TRIPOS>MOLECULE
/home/cewinharhar/GITHUB/reincatalyze/data/processed/docking_pred/2023-May-23-1437_sub9_nm5_bs15_s42_ex16_mel10_mts10000_k50_ec02_g099_lra3e-4_lrc1e-3/42234a6127519c7502e2f6bf4b16ee47cf11c698_ligand_9.pdbqt
 14 15 0 0 0
SMALL
GASTEIGER

@<TRIPOS>ATOM
      1  C          5.6990    1.1090   -0.3570 C.3     1  UNL1        0.0800
      2  C          5.3630    1.2550    1.0870 C.2     1  UNL1        0.1300
      3  C          6.1250    0.5360    2.1420 C.3     1  UNL1        0.0870
      4  O          4.4450    1.9740    1.4470 O.2     1  UNL1       -0.3000
      5  C          7.1990    1.0630   -0.5710 C.3     1  UNL1        0.0430
      6  C          7.6340   -0.2390   -1.1070 C.2     1  UNL1       -0.0440
      7  C          7.8500   -0.4330   -2.4760 C.2     1  UNL1        0.0080
      8  C          7.8400   -1.2950   -0.2490 C.2     1  UNL1        0.0540
      9  C          8.2590   -1.6760   -2.9220 C.2     1  UNL1        0.0510
     10  C          8.2540   -2.5510   -0.7050 C.2     1  UNL1        0.1660
     11  C          8.4650   -2.7430   -2.0520 C.2     1  UNL1        0.1650
     12  O          8.5220   -3.7410   -0.0630 O.2     1  UNL1       -0.4540
     13  O          8.8640   -4.0610   -2.2110 O.2     1  UNL1       -0.4540
     14  C          9.0010   -4.7040   -0.9670 C.3     1  UNL1        0.4680
@<TRIPOS>BOND
     1     9     7    1
     2     9    11    2
     3     7     6    2
     4    13    11    1
     5    13    14    1
     6    11    10    1
     7     6     5    1
     8     6     8    1
     9    14    12    1
    10    10     8    2
    11    10    12    1
    12     5     1    1
    13     1     2    1
    14     2     4    2
    15     2     3    1
