@<TRIPOS>MOLECULE
/home/cewinharhar/GITHUB/reincatalyze/data/processed/docking_pred/2023-May-23-1437_sub9_nm5_bs15_s42_ex16_mel10_mts10000_k50_ec02_g099_lra3e-4_lrc1e-3/4295960a5818388fac6ce93a10a8a6662c8ec52f_ligand_9.pdbqt
 14 15 0 0 0
SMALL
GASTEIGER

@<TRIPOS>ATOM
      1  C          5.6930    1.2290   -0.3250 C.3     1  UNL1        0.0800
      2  C          5.1320    1.2130    1.0550 C.2     1  UNL1        0.1300
      3  C          5.3550    0.0650    1.9750 C.3     1  UNL1        0.0870
      4  O          4.4690    2.1480    1.4730 O.2     1  UNL1       -0.3000
      5  C          7.2010    1.0740   -0.3080 C.3     1  UNL1        0.0430
      6  C          7.6260   -0.2080   -0.8960 C.2     1  UNL1       -0.0440
      7  C          7.8080   -0.3570   -2.2760 C.2     1  UNL1        0.0080
      8  C          7.8540   -1.2920   -0.0780 C.2     1  UNL1        0.0540
      9  C          8.2090   -1.5850   -2.7710 C.2     1  UNL1        0.0510
     10  C          8.2590   -2.5310   -0.5840 C.2     1  UNL1        0.1660
     11  C          8.4370   -2.6790   -1.9410 C.2     1  UNL1        0.1650
     12  O          8.5440   -3.7410    0.0120 O.2     1  UNL1       -0.4540
     13  O          8.8340   -3.9900   -2.1530 O.2     1  UNL1       -0.4540
     14  C          9.0020   -4.6730   -0.9340 C.3     1  UNL1        0.4680
@<TRIPOS>BOND
     1     9     7    1
     2     9    11    2
     3     7     6    2
     4    13    11    1
     5    13    14    1
     6    11    10    1
     7    14    12    1
     8     6     5    1
     9     6     8    1
    10    10     8    2
    11    10    12    1
    12     1     5    1
    13     1     2    1
    14     2     4    2
    15     2     3    1
