MODEL 1
REMARK VINA RESULT:      -7.7      0.000      0.000
REMARK SMILES CC(=O)CCc1ccc2c(c1)OCO2
REMARK SMILES IDX 4 1 2 2 1 3 3 4 5 5 6 6 7 7 11 8 8 9 10 10 9 11 12 12 14 13
REMARK SMILES IDX 13 14
REMARK H PARENT
REMARK Flexibility Score: inf
ROOT
ATOM      1  C   UNL     1       5.509   1.926   1.249  1.00  0.00     0.080 C 
ENDROOT
BRANCH   1   2
ATOM      2  C   UNL     1       5.026   0.727   1.990  1.00  0.00     0.130 C 
ATOM      3  C   UNL     1       5.856  -0.500   2.116  1.00  0.00     0.087 C 
ATOM      4  O   UNL     1       3.925   0.718   2.518  1.00  0.00    -0.300 OA
ENDBRANCH   1   2
BRANCH   1   5
ATOM      5  C   UNL     1       5.390   1.731  -0.249  1.00  0.00     0.043 C 
BRANCH   5   6
ATOM      6  C   UNL     1       6.562   1.030  -0.804  1.00  0.00    -0.044 A 
ATOM      7  C   UNL     1       7.867   1.460  -0.540  1.00  0.00     0.008 A 
ATOM      8  C   UNL     1       6.379  -0.078  -1.600  1.00  0.00     0.054 A 
ATOM      9  C   UNL     1       8.928   0.762  -1.087  1.00  0.00     0.051 A 
ATOM     10  C   UNL     1       7.455  -0.781  -2.151  1.00  0.00     0.166 A 
ATOM     11  C   UNL     1       8.740  -0.358  -1.893  1.00  0.00     0.165 A 
ATOM     12  O   UNL     1       7.534  -1.894  -2.962  1.00  0.00    -0.454 OA
ATOM     13  O   UNL     1       9.590  -1.229  -2.556  1.00  0.00    -0.454 OA
ATOM     14  C   UNL     1       8.871  -2.271  -3.171  1.00  0.00     0.468 C 
ENDBRANCH   5   6
ENDBRANCH   1   5
TORSDOF 3
ENDMDL
MODEL 2
REMARK VINA RESULT:      -7.4      1.963      2.430
REMARK SMILES CC(=O)CCc1ccc2c(c1)OCO2
REMARK SMILES IDX 4 1 2 2 1 3 3 4 5 5 6 6 7 7 11 8 8 9 10 10 9 11 12 12 14 13
REMARK SMILES IDX 13 14
REMARK H PARENT
REMARK Flexibility Score: inf
ROOT
ATOM      1  C   UNL     1       5.725   1.234  -0.292  1.00  0.00     0.080 C 
ENDROOT
BRANCH   1   2
ATOM      2  C   UNL     1       5.186   1.214   1.097  1.00  0.00     0.130 C 
ATOM      3  C   UNL     1       5.424   0.065   2.010  1.00  0.00     0.087 C 
ATOM      4  O   UNL     1       4.529   2.148   1.528  1.00  0.00    -0.300 OA
ENDBRANCH   1   2
BRANCH   1   5
ATOM      5  C   UNL     1       7.230   1.052  -0.301  1.00  0.00     0.043 C 
BRANCH   5   6
ATOM      6  C   UNL     1       7.619  -0.246  -0.882  1.00  0.00    -0.044 A 
ATOM      7  C   UNL     1       7.711  -0.431  -2.266  1.00  0.00     0.008 A 
ATOM      8  C   UNL     1       7.904  -1.306  -0.052  1.00  0.00     0.054 A 
ATOM      9  C   UNL     1       8.083  -1.671  -2.753  1.00  0.00     0.051 A 
ATOM     10  C   UNL     1       8.279  -2.558  -0.549  1.00  0.00     0.166 A 
ATOM     11  C   UNL     1       8.369  -2.742  -1.911  1.00  0.00     0.165 A 
ATOM     12  O   UNL     1       8.607  -3.751   0.058  1.00  0.00    -0.454 OA
ATOM     13  O   UNL     1       8.755  -4.058  -2.113  1.00  0.00    -0.454 OA
ATOM     14  C   UNL     1       9.005  -4.708  -0.890  1.00  0.00     0.468 C 
ENDBRANCH   5   6
ENDBRANCH   1   5
TORSDOF 3
ENDMDL
MODEL 3
REMARK VINA RESULT:      -7.2      2.092      2.623
REMARK SMILES CC(=O)CCc1ccc2c(c1)OCO2
REMARK SMILES IDX 4 1 2 2 1 3 3 4 5 5 6 6 7 7 11 8 8 9 10 10 9 11 12 12 14 13
REMARK SMILES IDX 13 14
REMARK H PARENT
REMARK Flexibility Score: inf
ROOT
ATOM      1  C   UNL     1       5.535   0.012   1.967  1.00  0.00     0.080 C 
ENDROOT
BRANCH   1   2
ATOM      2  C   UNL     1       4.647   1.166   1.652  1.00  0.00     0.130 C 
ATOM      3  C   UNL     1       4.953   2.106   0.540  1.00  0.00     0.087 C 
ATOM      4  O   UNL     1       3.636   1.374   2.302  1.00  0.00    -0.300 OA
ENDBRANCH   1   2
BRANCH   1   5
ATOM      5  C   UNL     1       6.953   0.264   1.494  1.00  0.00     0.043 C 
BRANCH   5   6
ATOM      6  C   UNL     1       7.362  -0.696   0.454  1.00  0.00    -0.044 A 
ATOM      7  C   UNL     1       7.256  -0.390  -0.908  1.00  0.00     0.008 A 
ATOM      8  C   UNL     1       7.862  -1.925   0.818  1.00  0.00     0.054 A 
ATOM      9  C   UNL     1       7.656  -1.331  -1.840  1.00  0.00     0.051 A 
ATOM     10  C   UNL     1       8.265  -2.872  -0.128  1.00  0.00     0.166 A 
ATOM     11  C   UNL     1       8.161  -2.573  -1.468  1.00  0.00     0.165 A 
ATOM     12  O   UNL     1       8.786  -4.144  -0.021  1.00  0.00    -0.454 OA
ATOM     13  O   UNL     1       8.626  -3.678  -2.163  1.00  0.00    -0.454 OA
ATOM     14  C   UNL     1       9.117  -4.662  -1.284  1.00  0.00     0.468 C 
ENDBRANCH   5   6
ENDBRANCH   1   5
TORSDOF 3
ENDMDL
MODEL 4
REMARK VINA RESULT:      -7.1      1.254      1.461
REMARK SMILES CC(=O)CCc1ccc2c(c1)OCO2
REMARK SMILES IDX 4 1 2 2 1 3 3 4 5 5 6 6 7 7 11 8 8 9 10 10 9 11 12 12 14 13
REMARK SMILES IDX 13 14
REMARK H PARENT
REMARK Flexibility Score: inf
ROOT
ATOM      1  C   UNL     1       6.349   1.246   0.867  1.00  0.00     0.080 C 
ENDROOT
BRANCH   1   2
ATOM      2  C   UNL     1       5.661   0.434   1.909  1.00  0.00     0.130 C 
ATOM      3  C   UNL     1       6.279  -0.794   2.476  1.00  0.00     0.087 C 
ATOM      4  O   UNL     1       4.562   0.757   2.330  1.00  0.00    -0.300 OA
ENDBRANCH   1   2
BRANCH   1   5
ATOM      5  C   UNL     1       5.836   0.911  -0.520  1.00  0.00     0.043 C 
BRANCH   5   6
ATOM      6  C   UNL     1       6.803   0.097  -1.278  1.00  0.00    -0.044 A 
ATOM      7  C   UNL     1       7.520   0.628  -2.357  1.00  0.00     0.008 A 
ATOM      8  C   UNL     1       7.016  -1.215  -0.924  1.00  0.00     0.054 A 
ATOM      9  C   UNL     1       8.415  -0.183  -3.031  1.00  0.00     0.051 A 
ATOM     10  C   UNL     1       7.923  -2.031  -1.608  1.00  0.00     0.166 A 
ATOM     11  C   UNL     1       8.627  -1.510  -2.671  1.00  0.00     0.165 A 
ATOM     12  O   UNL     1       8.306  -3.346  -1.453  1.00  0.00    -0.454 OA
ATOM     13  O   UNL     1       9.438  -2.527  -3.151  1.00  0.00    -0.454 OA
ATOM     14  C   UNL     1       9.333  -3.681  -2.351  1.00  0.00     0.468 C 
ENDBRANCH   5   6
ENDBRANCH   1   5
TORSDOF 3
ENDMDL
MODEL 5
REMARK VINA RESULT:      -6.9      1.953      2.569
REMARK SMILES CC(=O)CCc1ccc2c(c1)OCO2
REMARK SMILES IDX 4 1 2 2 1 3 3 4 5 5 6 6 7 7 11 8 8 9 10 10 9 11 12 12 14 13
REMARK SMILES IDX 13 14
REMARK H PARENT
REMARK Flexibility Score: inf
ROOT
ATOM      1  C   UNL     1       6.875   0.764   0.956  1.00  0.00     0.080 C 
ENDROOT
BRANCH   1   2
ATOM      2  C   UNL     1       5.488   1.138   1.350  1.00  0.00     0.130 C 
ATOM      3  C   UNL     1       4.707   2.150   0.590  1.00  0.00     0.087 C 
ATOM      4  O   UNL     1       4.950   0.620   2.315  1.00  0.00    -0.300 OA
ENDBRANCH   1   2
BRANCH   1   5
ATOM      5  C   UNL     1       7.060   0.838  -0.547  1.00  0.00     0.043 C 
BRANCH   5   6
ATOM      6  C   UNL     1       7.590  -0.423  -1.095  1.00  0.00    -0.044 A 
ATOM      7  C   UNL     1       7.921  -0.552  -2.449  1.00  0.00     0.008 A 
ATOM      8  C   UNL     1       7.770  -1.506  -0.264  1.00  0.00     0.054 A 
ATOM      9  C   UNL     1       8.416  -1.760  -2.906  1.00  0.00     0.051 A 
ATOM     10  C   UNL     1       8.271  -2.725  -0.732  1.00  0.00     0.166 A 
ATOM     11  C   UNL     1       8.596  -2.853  -2.064  1.00  0.00     0.165 A 
ATOM     12  O   UNL     1       8.536  -3.930  -0.116  1.00  0.00    -0.454 OA
ATOM     13  O   UNL     1       9.060  -4.147  -2.240  1.00  0.00    -0.454 OA
ATOM     14  C   UNL     1       9.124  -4.836  -1.014  1.00  0.00     0.468 C 
ENDBRANCH   5   6
ENDBRANCH   1   5
TORSDOF 3
ENDMDL
