MODEL 1
REMARK VINA RESULT:      -7.7      0.000      0.000
REMARK SMILES CC(=O)CCc1ccc2c(c1)OCO2
REMARK SMILES IDX 4 1 2 2 1 3 3 4 5 5 6 6 7 7 11 8 8 9 10 10 9 11 12 12 14 13
REMARK SMILES IDX 13 14
REMARK H PARENT
REMARK Flexibility Score: inf
ROOT
ATOM      1  C   UNL     1       5.497   1.928   1.265  1.00  0.00     0.080 C 
ENDROOT
BRANCH   1   2
ATOM      2  C   UNL     1       5.043   0.713   1.997  1.00  0.00     0.130 C 
ATOM      3  C   UNL     1       5.909  -0.488   2.130  1.00  0.00     0.087 C 
ATOM      4  O   UNL     1       3.937   0.669   2.513  1.00  0.00    -0.300 OA
ENDBRANCH   1   2
BRANCH   1   5
ATOM      5  C   UNL     1       5.380   1.742  -0.235  1.00  0.00     0.043 C 
BRANCH   5   6
ATOM      6  C   UNL     1       6.552   1.044  -0.792  1.00  0.00    -0.044 A 
ATOM      7  C   UNL     1       7.856   1.478  -0.532  1.00  0.00     0.008 A 
ATOM      8  C   UNL     1       6.371  -0.065  -1.587  1.00  0.00     0.054 A 
ATOM      9  C   UNL     1       8.918   0.783  -1.081  1.00  0.00     0.051 A 
ATOM     10  C   UNL     1       7.447  -0.765  -2.140  1.00  0.00     0.166 A 
ATOM     11  C   UNL     1       8.731  -0.338  -1.885  1.00  0.00     0.165 A 
ATOM     12  O   UNL     1       7.528  -1.878  -2.950  1.00  0.00    -0.454 OA
ATOM     13  O   UNL     1       9.582  -1.206  -2.550  1.00  0.00    -0.454 OA
ATOM     14  C   UNL     1       8.865  -2.251  -3.163  1.00  0.00     0.468 C 
ENDBRANCH   5   6
ENDBRANCH   1   5
TORSDOF 3
ENDMDL
MODEL 2
REMARK VINA RESULT:      -7.5      1.926      2.389
REMARK SMILES CC(=O)CCc1ccc2c(c1)OCO2
REMARK SMILES IDX 4 1 2 2 1 3 3 4 5 5 6 6 7 7 11 8 8 9 10 10 9 11 12 12 14 13
REMARK SMILES IDX 13 14
REMARK H PARENT
REMARK Flexibility Score: inf
ROOT
ATOM      1  C   UNL     1       5.742   1.388  -0.319  1.00  0.00     0.080 C 
ENDROOT
BRANCH   1   2
ATOM      2  C   UNL     1       5.108   1.309   1.027  1.00  0.00     0.130 C 
ATOM      3  C   UNL     1       5.432   0.214   1.979  1.00  0.00     0.087 C 
ATOM      4  O   UNL     1       4.298   2.147   1.388  1.00  0.00    -0.300 OA
ENDBRANCH   1   2
BRANCH   1   5
ATOM      5  C   UNL     1       7.235   1.136  -0.240  1.00  0.00     0.043 C 
BRANCH   5   6
ATOM      6  C   UNL     1       7.604  -0.155  -0.848  1.00  0.00    -0.044 A 
ATOM      7  C   UNL     1       7.671  -0.319  -2.236  1.00  0.00     0.008 A 
ATOM      8  C   UNL     1       7.894  -1.231  -0.040  1.00  0.00     0.054 A 
ATOM      9  C   UNL     1       8.024  -1.553  -2.750  1.00  0.00     0.051 A 
ATOM     10  C   UNL     1       8.252  -2.477  -0.564  1.00  0.00     0.166 A 
ATOM     11  C   UNL     1       8.317  -2.639  -1.930  1.00  0.00     0.165 A 
ATOM     12  O   UNL     1       8.580  -3.682   0.019  1.00  0.00    -0.454 OA
ATOM     13  O   UNL     1       8.689  -3.955  -2.160  1.00  0.00    -0.454 OA
ATOM     14  C   UNL     1       8.955  -4.626  -0.952  1.00  0.00     0.468 C 
ENDBRANCH   5   6
ENDBRANCH   1   5
TORSDOF 3
ENDMDL
MODEL 3
REMARK VINA RESULT:      -7.2      2.097      2.627
REMARK SMILES CC(=O)CCc1ccc2c(c1)OCO2
REMARK SMILES IDX 4 1 2 2 1 3 3 4 5 5 6 6 7 7 11 8 8 9 10 10 9 11 12 12 14 13
REMARK SMILES IDX 13 14
REMARK H PARENT
REMARK Flexibility Score: inf
ROOT
ATOM      1  C   UNL     1       5.557   0.028   1.948  1.00  0.00     0.080 C 
ENDROOT
BRANCH   1   2
ATOM      2  C   UNL     1       4.660   1.175   1.633  1.00  0.00     0.130 C 
ATOM      3  C   UNL     1       4.950   2.108   0.512  1.00  0.00     0.087 C 
ATOM      4  O   UNL     1       3.654   1.383   2.292  1.00  0.00    -0.300 OA
ENDBRANCH   1   2
BRANCH   1   5
ATOM      5  C   UNL     1       6.971   0.286   1.464  1.00  0.00     0.043 C 
BRANCH   5   6
ATOM      6  C   UNL     1       7.380  -0.682   0.431  1.00  0.00    -0.044 A 
ATOM      7  C   UNL     1       7.291  -0.380  -0.933  1.00  0.00     0.008 A 
ATOM      8  C   UNL     1       7.865  -1.914   0.805  1.00  0.00     0.054 A 
ATOM      9  C   UNL     1       7.690  -1.328  -1.857  1.00  0.00     0.051 A 
ATOM     10  C   UNL     1       8.269  -2.869  -0.134  1.00  0.00     0.166 A 
ATOM     11  C   UNL     1       8.180  -2.573  -1.476  1.00  0.00     0.165 A 
ATOM     12  O   UNL     1       8.777  -4.145  -0.017  1.00  0.00    -0.454 OA
ATOM     13  O   UNL     1       8.641  -3.685  -2.163  1.00  0.00    -0.454 OA
ATOM     14  C   UNL     1       9.114  -4.670  -1.276  1.00  0.00     0.468 C 
ENDBRANCH   5   6
ENDBRANCH   1   5
TORSDOF 3
ENDMDL
MODEL 4
REMARK VINA RESULT:      -7.1      1.278      1.505
REMARK SMILES CC(=O)CCc1ccc2c(c1)OCO2
REMARK SMILES IDX 4 1 2 2 1 3 3 4 5 5 6 6 7 7 11 8 8 9 10 10 9 11 12 12 14 13
REMARK SMILES IDX 13 14
REMARK H PARENT
REMARK Flexibility Score: inf
ROOT
ATOM      1  C   UNL     1       6.391   1.158   0.971  1.00  0.00     0.080 C 
ENDROOT
BRANCH   1   2
ATOM      2  C   UNL     1       5.663   0.337   1.979  1.00  0.00     0.130 C 
ATOM      3  C   UNL     1       6.270  -0.882   2.578  1.00  0.00     0.087 C 
ATOM      4  O   UNL     1       4.539   0.643   2.343  1.00  0.00    -0.300 OA
ENDBRANCH   1   2
BRANCH   1   5
ATOM      5  C   UNL     1       5.871   0.899  -0.429  1.00  0.00     0.043 C 
BRANCH   5   6
ATOM      6  C   UNL     1       6.807   0.078  -1.217  1.00  0.00    -0.044 A 
ATOM      7  C   UNL     1       7.461   0.589  -2.344  1.00  0.00     0.008 A 
ATOM      8  C   UNL     1       7.053  -1.224  -0.843  1.00  0.00     0.054 A 
ATOM      9  C   UNL     1       8.329  -0.228  -3.044  1.00  0.00     0.051 A 
ATOM     10  C   UNL     1       7.933  -2.046  -1.554  1.00  0.00     0.166 A 
ATOM     11  C   UNL     1       8.576  -1.544  -2.664  1.00  0.00     0.165 A 
ATOM     12  O   UNL     1       8.339  -3.353  -1.388  1.00  0.00    -0.454 OA
ATOM     13  O   UNL     1       9.373  -2.564  -3.161  1.00  0.00    -0.454 OA
ATOM     14  C   UNL     1       9.322  -3.699  -2.330  1.00  0.00     0.468 C 
ENDBRANCH   5   6
ENDBRANCH   1   5
TORSDOF 3
ENDMDL
MODEL 5
REMARK VINA RESULT:      -7.0      1.987      2.562
REMARK SMILES CC(=O)CCc1ccc2c(c1)OCO2
REMARK SMILES IDX 4 1 2 2 1 3 3 4 5 5 6 6 7 7 11 8 8 9 10 10 9 11 12 12 14 13
REMARK SMILES IDX 13 14
REMARK H PARENT
REMARK Flexibility Score: inf
ROOT
ATOM      1  C   UNL     1       6.871   0.811   1.271  1.00  0.00     0.080 C 
ENDROOT
BRANCH   1   2
ATOM      2  C   UNL     1       5.427   1.105   1.487  1.00  0.00     0.130 C 
ATOM      3  C   UNL     1       4.716   2.150   0.702  1.00  0.00     0.087 C 
ATOM      4  O   UNL     1       4.781   0.492   2.321  1.00  0.00    -0.300 OA
ENDBRANCH   1   2
BRANCH   1   5
ATOM      5  C   UNL     1       7.255   0.981  -0.186  1.00  0.00     0.043 C 
BRANCH   5   6
ATOM      6  C   UNL     1       7.611  -0.306  -0.811  1.00  0.00    -0.044 A 
ATOM      7  C   UNL     1       7.649  -0.460  -2.201  1.00  0.00     0.008 A 
ATOM      8  C   UNL     1       7.918  -1.388  -0.017  1.00  0.00     0.054 A 
ATOM      9  C   UNL     1       7.991  -1.691  -2.731  1.00  0.00     0.051 A 
ATOM     10  C   UNL     1       8.264  -2.630  -0.557  1.00  0.00     0.166 A 
ATOM     11  C   UNL     1       8.300  -2.783  -1.925  1.00  0.00     0.165 A 
ATOM     12  O   UNL     1       8.604  -3.839   0.010  1.00  0.00    -0.454 OA
ATOM     13  O   UNL     1       8.667  -4.096  -2.172  1.00  0.00    -0.454 OA
ATOM     14  C   UNL     1       8.958  -4.776  -0.975  1.00  0.00     0.468 C 
ENDBRANCH   5   6
ENDBRANCH   1   5
TORSDOF 3
ENDMDL
