MODEL 1
REMARK VINA RESULT:      -7.6      0.000      0.000
REMARK SMILES CC(=O)CCc1ccc2c(c1)OCO2
REMARK SMILES IDX 4 1 2 2 1 3 3 4 5 5 6 6 7 7 11 8 8 9 10 10 9 11 12 12 14 13
REMARK SMILES IDX 13 14
REMARK H PARENT
REMARK Flexibility Score: inf
ROOT
ATOM      1  C   UNL     1       5.503   1.926   1.258  1.00  0.00     0.080 C 
ENDROOT
BRANCH   1   2
ATOM      2  C   UNL     1       5.060   0.711   1.998  1.00  0.00     0.130 C 
ATOM      3  C   UNL     1       5.945  -0.475   2.152  1.00  0.00     0.087 C 
ATOM      4  O   UNL     1       3.950   0.653   2.500  1.00  0.00    -0.300 OA
ENDBRANCH   1   2
BRANCH   1   5
ATOM      5  C   UNL     1       5.382   1.733  -0.240  1.00  0.00     0.043 C 
BRANCH   5   6
ATOM      6  C   UNL     1       6.553   1.032  -0.797  1.00  0.00    -0.044 A 
ATOM      7  C   UNL     1       7.858   1.465  -0.540  1.00  0.00     0.008 A 
ATOM      8  C   UNL     1       6.369  -0.079  -1.589  1.00  0.00     0.054 A 
ATOM      9  C   UNL     1       8.918   0.767  -1.089  1.00  0.00     0.051 A 
ATOM     10  C   UNL     1       7.444  -0.782  -2.142  1.00  0.00     0.166 A 
ATOM     11  C   UNL     1       8.729  -0.355  -1.890  1.00  0.00     0.165 A 
ATOM     12  O   UNL     1       7.522  -1.897  -2.949  1.00  0.00    -0.454 OA
ATOM     13  O   UNL     1       9.578  -1.226  -2.553  1.00  0.00    -0.454 OA
ATOM     14  C   UNL     1       8.859  -2.272  -3.163  1.00  0.00     0.468 C 
ENDBRANCH   5   6
ENDBRANCH   1   5
TORSDOF 3
ENDMDL
MODEL 2
REMARK VINA RESULT:      -7.4      1.869      2.339
REMARK SMILES CC(=O)CCc1ccc2c(c1)OCO2
REMARK SMILES IDX 4 1 2 2 1 3 3 4 5 5 6 6 7 7 11 8 8 9 10 10 9 11 12 12 14 13
REMARK SMILES IDX 13 14
REMARK H PARENT
REMARK Flexibility Score: inf
ROOT
ATOM      1  C   UNL     1       5.696   1.364  -0.292  1.00  0.00     0.080 C 
ENDROOT
BRANCH   1   2
ATOM      2  C   UNL     1       5.147   1.246   1.088  1.00  0.00     0.130 C 
ATOM      3  C   UNL     1       5.372   0.031   1.916  1.00  0.00     0.087 C 
ATOM      4  O   UNL     1       4.492   2.149   1.581  1.00  0.00    -0.300 OA
ENDBRANCH   1   2
BRANCH   1   5
ATOM      5  C   UNL     1       7.198   1.157  -0.307  1.00  0.00     0.043 C 
BRANCH   5   6
ATOM      6  C   UNL     1       7.566  -0.131  -0.922  1.00  0.00    -0.044 A 
ATOM      7  C   UNL     1       7.608  -0.294  -2.311  1.00  0.00     0.008 A 
ATOM      8  C   UNL     1       7.879  -1.205  -0.120  1.00  0.00     0.054 A 
ATOM      9  C   UNL     1       7.961  -1.526  -2.831  1.00  0.00     0.051 A 
ATOM     10  C   UNL     1       8.236  -2.448  -0.651  1.00  0.00     0.166 A 
ATOM     11  C   UNL     1       8.277  -2.610  -2.018  1.00  0.00     0.165 A 
ATOM     12  O   UNL     1       8.585  -3.651  -0.074  1.00  0.00    -0.454 OA
ATOM     13  O   UNL     1       8.655  -3.922  -2.255  1.00  0.00    -0.454 OA
ATOM     14  C   UNL     1       8.948  -4.592  -1.052  1.00  0.00     0.468 C 
ENDBRANCH   5   6
ENDBRANCH   1   5
TORSDOF 3
ENDMDL
MODEL 3
REMARK VINA RESULT:      -7.3      2.056      2.635
REMARK SMILES CC(=O)CCc1ccc2c(c1)OCO2
REMARK SMILES IDX 4 1 2 2 1 3 3 4 5 5 6 6 7 7 11 8 8 9 10 10 9 11 12 12 14 13
REMARK SMILES IDX 13 14
REMARK H PARENT
REMARK Flexibility Score: inf
ROOT
ATOM      1  C   UNL     1       5.398  -0.069   2.014  1.00  0.00     0.080 C 
ENDROOT
BRANCH   1   2
ATOM      2  C   UNL     1       4.566   1.143   1.772  1.00  0.00     0.130 C 
ATOM      3  C   UNL     1       4.913   2.130   0.714  1.00  0.00     0.087 C 
ATOM      4  O   UNL     1       3.568   1.362   2.440  1.00  0.00    -0.300 OA
ENDBRANCH   1   2
BRANCH   1   5
ATOM      5  C   UNL     1       6.842   0.167   1.620  1.00  0.00     0.043 C 
BRANCH   5   6
ATOM      6  C   UNL     1       7.274  -0.750   0.551  1.00  0.00    -0.044 A 
ATOM      7  C   UNL     1       7.148  -0.411  -0.801  1.00  0.00     0.008 A 
ATOM      8  C   UNL     1       7.817  -1.972   0.879  1.00  0.00     0.054 A 
ATOM      9  C   UNL     1       7.571  -1.313  -1.761  1.00  0.00     0.051 A 
ATOM     10  C   UNL     1       8.244  -2.879  -0.096  1.00  0.00     0.166 A 
ATOM     11  C   UNL     1       8.120  -2.547  -1.426  1.00  0.00     0.165 A 
ATOM     12  O   UNL     1       8.808  -4.136  -0.027  1.00  0.00    -0.454 OA
ATOM     13  O   UNL     1       8.616  -3.617  -2.155  1.00  0.00    -0.454 OA
ATOM     14  C   UNL     1       9.145  -4.608  -1.306  1.00  0.00     0.468 C 
ENDBRANCH   5   6
ENDBRANCH   1   5
TORSDOF 3
ENDMDL
MODEL 4
REMARK VINA RESULT:      -7.1      1.265      1.483
REMARK SMILES CC(=O)CCc1ccc2c(c1)OCO2
REMARK SMILES IDX 4 1 2 2 1 3 3 4 5 5 6 6 7 7 11 8 8 9 10 10 9 11 12 12 14 13
REMARK SMILES IDX 13 14
REMARK H PARENT
REMARK Flexibility Score: inf
ROOT
ATOM      1  C   UNL     1       6.388   1.182   0.949  1.00  0.00     0.080 C 
ENDROOT
BRANCH   1   2
ATOM      2  C   UNL     1       5.651   0.369   1.957  1.00  0.00     0.130 C 
ATOM      3  C   UNL     1       6.239  -0.862   2.549  1.00  0.00     0.087 C 
ATOM      4  O   UNL     1       4.534   0.693   2.327  1.00  0.00    -0.300 OA
ENDBRANCH   1   2
BRANCH   1   5
ATOM      5  C   UNL     1       5.877   0.915  -0.453  1.00  0.00     0.043 C 
BRANCH   5   6
ATOM      6  C   UNL     1       6.819   0.091  -1.230  1.00  0.00    -0.044 A 
ATOM      7  C   UNL     1       7.490   0.601  -2.348  1.00  0.00     0.008 A 
ATOM      8  C   UNL     1       7.053  -1.213  -0.857  1.00  0.00     0.054 A 
ATOM      9  C   UNL     1       8.363  -0.220  -3.038  1.00  0.00     0.051 A 
ATOM     10  C   UNL     1       7.937  -2.039  -1.557  1.00  0.00     0.166 A 
ATOM     11  C   UNL     1       8.598  -1.538  -2.657  1.00  0.00     0.165 A 
ATOM     12  O   UNL     1       8.334  -3.348  -1.389  1.00  0.00    -0.454 OA
ATOM     13  O   UNL     1       9.395  -2.561  -3.146  1.00  0.00    -0.454 OA
ATOM     14  C   UNL     1       9.328  -3.698  -2.318  1.00  0.00     0.468 C 
ENDBRANCH   5   6
ENDBRANCH   1   5
TORSDOF 3
ENDMDL
MODEL 5
REMARK VINA RESULT:      -6.7      1.261      5.268
REMARK SMILES CC(=O)CCc1ccc2c(c1)OCO2
REMARK SMILES IDX 4 1 2 2 1 3 3 4 5 5 6 6 7 7 11 8 8 9 10 10 9 11 12 12 14 13
REMARK SMILES IDX 13 14
REMARK H PARENT
REMARK Flexibility Score: inf
ROOT
ATOM      1  C   UNL     1       8.535   0.245  -2.639  1.00  0.00     0.080 C 
ENDROOT
BRANCH   1   2
ATOM      2  C   UNL     1       8.467  -1.236  -2.782  1.00  0.00     0.130 C 
ATOM      3  C   UNL     1       7.167  -1.951  -2.892  1.00  0.00     0.087 C 
ATOM      4  O   UNL     1       9.483  -1.910  -2.813  1.00  0.00    -0.300 OA
ENDBRANCH   1   2
BRANCH   1   5
ATOM      5  C   UNL     1       8.997   0.643  -1.251  1.00  0.00     0.043 C 
BRANCH   5   6
ATOM      6  C   UNL     1       7.931   0.464  -0.249  1.00  0.00    -0.044 A 
ATOM      7  C   UNL     1       7.992  -0.552   0.712  1.00  0.00     0.008 A 
ATOM      8  C   UNL     1       6.848   1.312  -0.246  1.00  0.00     0.054 A 
ATOM      9  C   UNL     1       6.963  -0.671   1.629  1.00  0.00     0.051 A 
ATOM     10  C   UNL     1       5.810   1.188   0.683  1.00  0.00     0.166 A 
ATOM     11  C   UNL     1       5.869   0.188   1.628  1.00  0.00     0.165 A 
ATOM     12  O   UNL     1       4.644   1.894   0.890  1.00  0.00    -0.454 OA
ATOM     13  O   UNL     1       4.726   0.302   2.404  1.00  0.00    -0.454 OA
ATOM     14  C   UNL     1       3.966   1.426   2.028  1.00  0.00     0.468 C 
ENDBRANCH   5   6
ENDBRANCH   1   5
TORSDOF 3
ENDMDL
