@<TRIPOS>MOLECULE
/home/cewinharhar/GITHUB/reincatalyze/data/processed/docking_pred/2023-May-23-1437_sub9_nm5_bs15_s42_ex16_mel10_mts10000_k50_ec02_g099_lra3e-4_lrc1e-3/46824fcf52dc560be674bfd6df7e039c48ea1670_ligand_9.pdbqt
 14 15 0 0 0
SMALL
GASTEIGER

@<TRIPOS>ATOM
      1  C          8.5350    0.2450   -2.6390 C.3     1  UNL1        0.0800
      2  C          8.4670   -1.2360   -2.7820 C.2     1  UNL1        0.1300
      3  C          7.1670   -1.9510   -2.8920 C.3     1  UNL1        0.0870
      4  O          9.4830   -1.9100   -2.8130 O.2     1  UNL1       -0.3000
      5  C          8.9970    0.6430   -1.2510 C.3     1  UNL1        0.0430
      6  C          7.9310    0.4640   -0.2490 C.2     1  UNL1       -0.0440
      7  C          7.9920   -0.5520    0.7120 C.2     1  UNL1        0.0080
      8  C          6.8480    1.3120   -0.2460 C.2     1  UNL1        0.0540
      9  C          6.9630   -0.6710    1.6290 C.2     1  UNL1        0.0510
     10  C          5.8100    1.1880    0.6830 C.2     1  UNL1        0.1660
     11  C          5.8690    0.1880    1.6280 C.2     1  UNL1        0.1650
     12  O          4.6440    1.8940    0.8900 O.2     1  UNL1       -0.4540
     13  O          4.7260    0.3020    2.4040 O.2     1  UNL1       -0.4540
     14  C          3.9660    1.4260    2.0280 C.3     1  UNL1        0.4680
@<TRIPOS>BOND
     1     3     2    1
     2     4     2    2
     3     2     1    1
     4     1     5    1
     5     5     6    1
     6     6     8    2
     7     6     7    1
     8     8    10    1
     9    10    12    1
    10    10    11    2
    11     7     9    2
    12    12    14    1
    13    11     9    1
    14    11    13    1
    15    14    13    1
