@<TRIPOS>MOLECULE
/home/cewinharhar/GITHUB/reincatalyze/data/processed/docking_pred/2023-May-23-1437_sub9_nm5_bs15_s42_ex16_mel10_mts10000_k50_ec02_g099_lra3e-4_lrc1e-3/46861e00ed193d15618049a480e2ca269f83ce14_ligand_9.pdbqt
 14 15 0 0 0
SMALL
GASTEIGER

@<TRIPOS>ATOM
      1  C          6.6660    1.0730    0.9700 C.3     1  UNL1        0.0800
      2  C          5.3780    1.7650    0.6860 C.2     1  UNL1        0.1300
      3  C          4.9870    2.1500   -0.6970 C.3     1  UNL1        0.0870
      4  O          4.6010    2.0390    1.5860 O.2     1  UNL1       -0.3000
      5  C          7.6140    1.1690   -0.2090 C.3     1  UNL1        0.0430
      6  C          7.8530   -0.1480   -0.8260 C.2     1  UNL1       -0.0440
      7  C          7.8240   -0.3220   -2.2140 C.2     1  UNL1        0.0080
      8  C          8.1140   -1.2380   -0.0280 C.2     1  UNL1        0.0540
      9  C          8.0560   -1.5820   -2.7370 C.2     1  UNL1        0.0510
     10  C          8.3490   -2.5090   -0.5620 C.2     1  UNL1        0.1660
     11  C          8.3190   -2.6820   -1.9270 C.2     1  UNL1        0.1650
     12  O          8.6260   -3.7320    0.0110 O.2     1  UNL1       -0.4540
     13  O          8.5820   -4.0220   -2.1680 O.2     1  UNL1       -0.4540
     14  C          8.8720   -4.7050   -0.9720 C.3     1  UNL1        0.4680
@<TRIPOS>BOND
     1     9     7    1
     2     9    11    2
     3     7     6    2
     4    13    11    1
     5    13    14    1
     6    11    10    1
     7    14    12    1
     8     6     5    1
     9     6     8    1
    10     3     2    1
    11    10     8    2
    12    10    12    1
    13     5     1    1
    14     2     1    1
    15     2     4    2
