@<TRIPOS>MOLECULE
/home/cewinharhar/GITHUB/reincatalyze/data/processed/docking_pred/2023-May-23-1437_sub9_nm5_bs15_s42_ex16_mel10_mts10000_k50_ec02_g099_lra3e-4_lrc1e-3/49b3117837231080fe644fe44c00424f4b8d2b91_ligand_9.pdbqt
 14 15 0 0 0
SMALL
GASTEIGER

@<TRIPOS>ATOM
      1  C          6.4370    1.1810    0.9530 C.3     1  UNL1        0.0800
      2  C          5.6920    0.3390    1.9300 C.2     1  UNL1        0.1300
      3  C          6.2820   -0.9010    2.5020 C.3     1  UNL1        0.0870
      4  O          4.5670    0.6450    2.2920 O.2     1  UNL1       -0.3000
      5  C          5.9350    0.9590   -0.4600 C.3     1  UNL1        0.0430
      6  C          6.8600    0.1210   -1.2430 C.2     1  UNL1       -0.0440
      7  C          7.5260    0.6190   -2.3690 C.2     1  UNL1        0.0080
      8  C          7.0840   -1.1830   -0.8660 C.2     1  UNL1        0.0540
      9  C          8.3830   -0.2140   -3.0650 C.2     1  UNL1        0.0510
     10  C          7.9530   -2.0210   -1.5720 C.2     1  UNL1        0.1660
     11  C          8.6070   -1.5320   -2.6810 C.2     1  UNL1        0.1650
     12  O          8.3370   -3.3340   -1.4020 O.2     1  UNL1       -0.4540
     13  O          9.3890   -2.5660   -3.1730 O.2     1  UNL1       -0.4540
     14  C          9.3180   -3.6980   -2.3400 C.3     1  UNL1        0.4680
@<TRIPOS>BOND
     1    13    11    1
     2    13    14    1
     3     9    11    2
     4     9     7    1
     5    11    10    1
     6     7     6    2
     7    14    12    1
     8    10    12    1
     9    10     8    2
    10     6     8    1
    11     6     5    1
    12     5     1    1
    13     1     2    1
    14     2     4    2
    15     2     3    1
