@<TRIPOS>MOLECULE
/home/cewinharhar/GITHUB/reincatalyze/data/processed/docking_pred/2023-May-23-1437_sub9_nm5_bs15_s42_ex16_mel10_mts10000_k50_ec02_g099_lra3e-4_lrc1e-3/49b3117837231080fe644fe44c00424f4b8d2b91_ligand_9.pdbqt
 14 15 0 0 0
SMALL
GASTEIGER

@<TRIPOS>ATOM
      1  C          5.5450    1.9250    1.2770 C.3     1  UNL1        0.0800
      2  C          5.1090    0.7060    2.0130 C.2     1  UNL1        0.1300
      3  C          6.0130   -0.4620    2.1950 C.3     1  UNL1        0.0870
      4  O          3.9890    0.6300    2.4910 O.2     1  UNL1       -0.3000
      5  C          5.4140    1.7400   -0.2220 C.3     1  UNL1        0.0430
      6  C          6.5760    1.0340   -0.7890 C.2     1  UNL1       -0.0440
      7  C          7.8860    1.4640   -0.5470 C.2     1  UNL1        0.0080
      8  C          6.3810   -0.0780   -1.5770 C.2     1  UNL1        0.0540
      9  C          8.9380    0.7620   -1.1050 C.2     1  UNL1        0.0510
     10  C          7.4480   -0.7860   -2.1390 C.2     1  UNL1        0.1660
     11  C          8.7370   -0.3620   -1.9010 C.2     1  UNL1        0.1650
     12  O          7.5150   -1.9030   -2.9440 O.2     1  UNL1       -0.4540
     13  O          9.5770   -1.2370   -2.5720 O.2     1  UNL1       -0.4540
     14  C          8.8480   -2.2820   -3.1710 C.3     1  UNL1        0.4680
@<TRIPOS>BOND
     1    14    12    1
     2    14    13    1
     3    12    10    1
     4    13    11    1
     5    10    11    2
     6    10     8    1
     7    11     9    1
     8     8     6    2
     9     9     7    2
    10     6     7    1
    11     6     5    1
    12     5     1    1
    13     1     2    1
    14     2     3    1
    15     2     4    2
