@<TRIPOS>MOLECULE
/home/cewinharhar/GITHUB/reincatalyze/data/processed/docking_pred/2023-May-23-1437_sub9_nm5_bs15_s42_ex16_mel10_mts10000_k50_ec02_g099_lra3e-4_lrc1e-3/4a3a178b6a4326eb13634b12f3ce9c4ec26f8538_ligand_9.pdbqt
 14 15 0 0 0
SMALL
GASTEIGER

@<TRIPOS>ATOM
      1  C          6.3560    1.2400    0.8850 C.3     1  UNL1        0.0800
      2  C          5.6670    0.4130    1.9150 C.2     1  UNL1        0.1300
      3  C          6.3080   -0.7920    2.5060 C.3     1  UNL1        0.0870
      4  O          4.5480    0.7040    2.3060 O.2     1  UNL1       -0.3000
      5  C          5.8510    0.9180   -0.5070 C.3     1  UNL1        0.0430
      6  C          6.8150    0.0990   -1.2630 C.2     1  UNL1       -0.0440
      7  C          7.5340    0.6230   -2.3430 C.2     1  UNL1        0.0080
      8  C          7.0240   -1.2130   -0.9050 C.2     1  UNL1        0.0540
      9  C          8.4270   -0.1920   -3.0140 C.2     1  UNL1        0.0510
     10  C          7.9280   -2.0340   -1.5860 C.2     1  UNL1        0.1660
     11  C          8.6350   -1.5190   -2.6500 C.2     1  UNL1        0.1650
     12  O          8.3070   -3.3500   -1.4270 O.2     1  UNL1       -0.4540
     13  O          9.4420   -2.5400   -3.1260 O.2     1  UNL1       -0.4540
     14  C          9.3330   -3.6910   -2.3230 C.3     1  UNL1        0.4680
@<TRIPOS>BOND
     1    13    11    1
     2    13    14    1
     3     9    11    2
     4     9     7    1
     5    11    10    1
     6     7     6    2
     7    14    12    1
     8    10    12    1
     9    10     8    2
    10     6     8    1
    11     6     5    1
    12     5     1    1
    13     1     2    1
    14     2     4    2
    15     2     3    1
