@<TRIPOS>MOLECULE
/home/cewinharhar/GITHUB/reincatalyze/data/processed/docking_pred/2023-May-23-1437_sub9_nm5_bs15_s42_ex16_mel10_mts10000_k50_ec02_g099_lra3e-4_lrc1e-3/4a3a178b6a4326eb13634b12f3ce9c4ec26f8538_ligand_9.pdbqt
 14 15 0 0 0
SMALL
GASTEIGER

@<TRIPOS>ATOM
      1  C          5.4510   -0.0300    1.9960 C.3     1  UNL1        0.0800
      2  C          4.5820    1.1530    1.7430 C.2     1  UNL1        0.1300
      3  C          4.8860    2.1280    0.6610 C.3     1  UNL1        0.0870
      4  O          3.5890    1.3580    2.4210 O.2     1  UNL1       -0.3000
      5  C          6.8770    0.2290    1.5510 C.3     1  UNL1        0.0430
      6  C          7.2960   -0.7050    0.4910 C.2     1  UNL1       -0.0440
      7  C          7.1670   -0.3820   -0.8640 C.2     1  UNL1        0.0080
      8  C          7.8320   -1.9260    0.8310 C.2     1  UNL1        0.0540
      9  C          7.5790   -1.2980   -1.8150 C.2     1  UNL1        0.0510
     10  C          8.2480   -2.8490   -0.1340 C.2     1  UNL1        0.1660
     11  C          8.1190   -2.5320   -1.4680 C.2     1  UNL1        0.1650
     12  O          8.8020   -4.1090   -0.0520 O.2     1  UNL1       -0.4540
     13  O          8.6030   -3.6150   -2.1850 O.2     1  UNL1       -0.4540
     14  C          9.1300   -4.5990   -1.3270 C.3     1  UNL1        0.4680
@<TRIPOS>BOND
     1    13    11    1
     2    13    14    1
     3     9    11    2
     4     9     7    1
     5    11    10    1
     6    14    12    1
     7     7     6    2
     8    10    12    1
     9    10     8    2
    10     6     8    1
    11     6     5    1
    12     3     2    1
    13     5     1    1
    14     2     1    1
    15     2     4    2
