@<TRIPOS>MOLECULE
/home/cewinharhar/GITHUB/reincatalyze/data/processed/docking_pred/2023-May-23-1437_sub9_nm5_bs15_s42_ex16_mel10_mts10000_k50_ec02_g099_lra3e-4_lrc1e-3/4a3a178b6a4326eb13634b12f3ce9c4ec26f8538_ligand_9.pdbqt
 14 15 0 0 0
SMALL
GASTEIGER

@<TRIPOS>ATOM
      1  C          5.3280   -0.0610    1.9770 C.3     1  UNL1        0.0800
      2  C          4.4420    1.1210    1.7880 C.2     1  UNL1        0.1300
      3  C          4.7230    2.1500    0.7520 C.3     1  UNL1        0.0870
      4  O          3.4530    1.2800    2.4850 O.2     1  UNL1       -0.3000
      5  C          6.7910    0.3310    1.9070 C.3     1  UNL1        0.0430
      6  C          7.3920   -0.0300    0.6100 C.2     1  UNL1       -0.0440
      7  C          7.8830    0.9440   -0.2660 C.2     1  UNL1        0.0080
      8  C          7.4780   -1.3540    0.2440 C.2     1  UNL1        0.0540
      9  C          8.4370    0.5460   -1.4690 C.2     1  UNL1        0.0510
     10  C          8.0400   -1.7510   -0.9730 C.2     1  UNL1        0.1660
     11  C          8.5230   -0.7930   -1.8370 C.2     1  UNL1        0.1650
     12  O          8.2380   -2.9840   -1.5590 O.2     1  UNL1       -0.4540
     13  O          9.0140   -1.4650   -2.9460 O.2     1  UNL1       -0.4540
     14  C          8.9350   -2.8590   -2.7720 C.3     1  UNL1        0.4680
@<TRIPOS>BOND
     1    13    14    1
     2    13    11    1
     3    14    12    1
     4    11     9    2
     5    11    10    1
     6    12    10    1
     7     9     7    1
     8    10     8    2
     9     7     6    2
    10     8     6    1
    11     6     5    1
    12     3     2    1
    13     2     1    1
    14     2     4    2
    15     5     1    1
