@<TRIPOS>MOLECULE
/home/cewinharhar/GITHUB/reincatalyze/data/processed/docking_pred/2023-May-23-1437_sub9_nm5_bs15_s42_ex16_mel10_mts10000_k50_ec02_g099_lra3e-4_lrc1e-3/4bd4f81152b1bdf0b1c74c36e0a7b56f2e48fda8_ligand_9.pdbqt
 14 15 0 0 0
SMALL
GASTEIGER

@<TRIPOS>ATOM
      1  C          5.4320   -0.0350    2.0330 C.3     1  UNL1        0.0800
      2  C          4.5620    1.1440    1.7670 C.2     1  UNL1        0.1300
      3  C          4.8880    2.1310    0.7020 C.3     1  UNL1        0.0870
      4  O          3.5490    1.3360    2.4200 O.2     1  UNL1       -0.3000
      5  C          6.8600    0.2250    1.5970 C.3     1  UNL1        0.0430
      6  C          7.2850   -0.7040    0.5350 C.2     1  UNL1       -0.0440
      7  C          7.1690   -0.3710   -0.8200 C.2     1  UNL1        0.0080
      8  C          7.8130   -1.9300    0.8720 C.2     1  UNL1        0.0540
      9  C          7.5860   -1.2830   -1.7730 C.2     1  UNL1        0.0510
     10  C          8.2330   -2.8480   -0.0950 C.2     1  UNL1        0.1660
     11  C          8.1180   -2.5220   -1.4280 C.2     1  UNL1        0.1650
     12  O          8.7810   -4.1100   -0.0170 O.2     1  UNL1       -0.4540
     13  O          8.6040   -3.6020   -2.1480 O.2     1  UNL1       -0.4540
     14  C          9.1190   -4.5940   -1.2920 C.3     1  UNL1        0.4680
@<TRIPOS>BOND
     1    13    11    1
     2    13    14    1
     3     9    11    2
     4     9     7    1
     5    11    10    1
     6    14    12    1
     7     7     6    2
     8    10    12    1
     9    10     8    2
    10     6     8    1
    11     6     5    1
    12     3     2    1
    13     5     1    1
    14     2     1    1
    15     2     4    2
