MODEL 1
REMARK VINA RESULT:      -7.5      0.000      0.000
REMARK SMILES CC(=O)CCc1ccc2c(c1)OCO2
REMARK SMILES IDX 4 1 2 2 1 3 3 4 5 5 6 6 7 7 11 8 8 9 10 10 9 11 12 12 14 13
REMARK SMILES IDX 13 14
REMARK H PARENT
REMARK Flexibility Score: inf
ROOT
ATOM      1  C   UNL     1       5.547   1.914   1.275  1.00  0.00     0.080 C 
ENDROOT
BRANCH   1   2
ATOM      2  C   UNL     1       5.114   0.693   2.011  1.00  0.00     0.130 C 
ATOM      3  C   UNL     1       6.019  -0.474   2.187  1.00  0.00     0.087 C 
ATOM      4  O   UNL     1       3.996   0.617   2.495  1.00  0.00    -0.300 OA
ENDBRANCH   1   2
BRANCH   1   5
ATOM      5  C   UNL     1       5.417   1.728  -0.223  1.00  0.00     0.043 C 
BRANCH   5   6
ATOM      6  C   UNL     1       6.580   1.024  -0.790  1.00  0.00    -0.044 A 
ATOM      7  C   UNL     1       7.889   1.452  -0.541  1.00  0.00     0.008 A 
ATOM      8  C   UNL     1       6.387  -0.085  -1.583  1.00  0.00     0.054 A 
ATOM      9  C   UNL     1       8.942   0.750  -1.099  1.00  0.00     0.051 A 
ATOM     10  C   UNL     1       7.455  -0.791  -2.144  1.00  0.00     0.166 A 
ATOM     11  C   UNL     1       8.743  -0.370  -1.900  1.00  0.00     0.165 A 
ATOM     12  O   UNL     1       7.523  -1.905  -2.954  1.00  0.00    -0.454 OA
ATOM     13  O   UNL     1       9.585  -1.243  -2.572  1.00  0.00    -0.454 OA
ATOM     14  C   UNL     1       8.857  -2.284  -3.178  1.00  0.00     0.468 C 
ENDBRANCH   5   6
ENDBRANCH   1   5
TORSDOF 3
ENDMDL
MODEL 2
REMARK VINA RESULT:      -7.2      1.901      2.405
REMARK SMILES CC(=O)CCc1ccc2c(c1)OCO2
REMARK SMILES IDX 4 1 2 2 1 3 3 4 5 5 6 6 7 7 11 8 8 9 10 10 9 11 12 12 14 13
REMARK SMILES IDX 13 14
REMARK H PARENT
REMARK Flexibility Score: inf
ROOT
ATOM      1  C   UNL     1       5.746   1.299  -0.364  1.00  0.00     0.080 C 
ENDROOT
BRANCH   1   2
ATOM      2  C   UNL     1       5.195   1.261   1.019  1.00  0.00     0.130 C 
ATOM      3  C   UNL     1       5.507   0.146   1.953  1.00  0.00     0.087 C 
ATOM      4  O   UNL     1       4.466   2.150   1.428  1.00  0.00    -0.300 OA
ENDBRANCH   1   2
BRANCH   1   5
ATOM      5  C   UNL     1       7.247   1.082  -0.365  1.00  0.00     0.043 C 
BRANCH   5   6
ATOM      6  C   UNL     1       7.611  -0.215  -0.964  1.00  0.00    -0.044 A 
ATOM      7  C   UNL     1       7.635  -0.401  -2.351  1.00  0.00     0.008 A 
ATOM      8  C   UNL     1       7.939  -1.274  -0.149  1.00  0.00     0.054 A 
ATOM      9  C   UNL     1       7.985  -1.640  -2.855  1.00  0.00     0.051 A 
ATOM     10  C   UNL     1       8.293  -2.525  -0.664  1.00  0.00     0.166 A 
ATOM     11  C   UNL     1       8.316  -2.709  -2.028  1.00  0.00     0.165 A 
ATOM     12  O   UNL     1       8.654  -3.717  -0.072  1.00  0.00    -0.454 OA
ATOM     13  O   UNL     1       8.696  -4.024  -2.248  1.00  0.00    -0.454 OA
ATOM     14  C   UNL     1       9.008  -4.673  -1.038  1.00  0.00     0.468 C 
ENDBRANCH   5   6
ENDBRANCH   1   5
TORSDOF 3
ENDMDL
MODEL 3
REMARK VINA RESULT:      -7.0      1.262      1.484
REMARK SMILES CC(=O)CCc1ccc2c(c1)OCO2
REMARK SMILES IDX 4 1 2 2 1 3 3 4 5 5 6 6 7 7 11 8 8 9 10 10 9 11 12 12 14 13
REMARK SMILES IDX 13 14
REMARK H PARENT
REMARK Flexibility Score: inf
ROOT
ATOM      1  C   UNL     1       6.390   1.154   0.940  1.00  0.00     0.080 C 
ENDROOT
BRANCH   1   2
ATOM      2  C   UNL     1       5.689   0.332   1.966  1.00  0.00     0.130 C 
ATOM      3  C   UNL     1       6.309  -0.889   2.546  1.00  0.00     0.087 C 
ATOM      4  O   UNL     1       4.576   0.639   2.361  1.00  0.00    -0.300 OA
ENDBRANCH   1   2
BRANCH   1   5
ATOM      5  C   UNL     1       5.869   0.859  -0.452  1.00  0.00     0.043 C 
BRANCH   5   6
ATOM      6  C   UNL     1       6.821   0.049  -1.232  1.00  0.00    -0.044 A 
ATOM      7  C   UNL     1       7.501   0.576  -2.336  1.00  0.00     0.008 A 
ATOM      8  C   UNL     1       7.057  -1.259  -0.873  1.00  0.00     0.054 A 
ATOM      9  C   UNL     1       8.383  -0.232  -3.029  1.00  0.00     0.051 A 
ATOM     10  C   UNL     1       7.952  -2.071  -1.577  1.00  0.00     0.166 A 
ATOM     11  C   UNL     1       8.620  -1.553  -2.664  1.00  0.00     0.165 A 
ATOM     12  O   UNL     1       8.352  -3.381  -1.422  1.00  0.00    -0.454 OA
ATOM     13  O   UNL     1       9.426  -2.566  -3.159  1.00  0.00    -0.454 OA
ATOM     14  C   UNL     1       9.356  -3.714  -2.347  1.00  0.00     0.468 C 
ENDBRANCH   5   6
ENDBRANCH   1   5
TORSDOF 3
ENDMDL
MODEL 4
REMARK VINA RESULT:      -7.0      2.029      2.595
REMARK SMILES CC(=O)CCc1ccc2c(c1)OCO2
REMARK SMILES IDX 4 1 2 2 1 3 3 4 5 5 6 6 7 7 11 8 8 9 10 10 9 11 12 12 14 13
REMARK SMILES IDX 13 14
REMARK H PARENT
REMARK Flexibility Score: inf
ROOT
ATOM      1  C   UNL     1       5.473  -0.063   1.954  1.00  0.00     0.080 C 
ENDROOT
BRANCH   1   2
ATOM      2  C   UNL     1       4.622   1.134   1.704  1.00  0.00     0.130 C 
ATOM      3  C   UNL     1       4.929   2.096   0.613  1.00  0.00     0.087 C 
ATOM      4  O   UNL     1       3.642   1.360   2.395  1.00  0.00    -0.300 OA
ENDBRANCH   1   2
BRANCH   1   5
ATOM      5  C   UNL     1       6.906   0.181   1.524  1.00  0.00     0.043 C 
BRANCH   5   6
ATOM      6  C   UNL     1       7.319  -0.737   0.448  1.00  0.00    -0.044 A 
ATOM      7  C   UNL     1       7.151  -0.407  -0.901  1.00  0.00     0.008 A 
ATOM      8  C   UNL     1       7.886  -1.951   0.767  1.00  0.00     0.054 A 
ATOM      9  C   UNL     1       7.558  -1.309  -1.868  1.00  0.00     0.051 A 
ATOM     10  C   UNL     1       8.296  -2.858  -0.214  1.00  0.00     0.166 A 
ATOM     11  C   UNL     1       8.130  -2.535  -1.543  1.00  0.00     0.165 A 
ATOM     12  O   UNL     1       8.876  -4.108  -0.155  1.00  0.00    -0.454 OA
ATOM     13  O   UNL     1       8.618  -3.603  -2.279  1.00  0.00    -0.454 OA
ATOM     14  C   UNL     1       9.183  -4.583  -1.440  1.00  0.00     0.468 C 
ENDBRANCH   5   6
ENDBRANCH   1   5
TORSDOF 3
ENDMDL
MODEL 5
REMARK VINA RESULT:      -6.6      1.197      5.181
REMARK SMILES CC(=O)CCc1ccc2c(c1)OCO2
REMARK SMILES IDX 4 1 2 2 1 3 3 4 5 5 6 6 7 7 11 8 8 9 10 10 9 11 12 12 14 13
REMARK SMILES IDX 13 14
REMARK H PARENT
REMARK Flexibility Score: inf
ROOT
ATOM      1  C   UNL     1       8.237   0.075  -2.747  1.00  0.00     0.080 C 
ENDROOT
BRANCH   1   2
ATOM      2  C   UNL     1       8.050  -1.400  -2.833  1.00  0.00     0.130 C 
ATOM      3  C   UNL     1       9.207  -2.327  -2.951  1.00  0.00     0.087 C 
ATOM      4  O   UNL     1       6.934  -1.893  -2.810  1.00  0.00    -0.300 OA
ENDBRANCH   1   2
BRANCH   1   5
ATOM      5  C   UNL     1       8.807   0.481  -1.402  1.00  0.00     0.043 C 
BRANCH   5   6
ATOM      6  C   UNL     1       7.805   0.365  -0.327  1.00  0.00    -0.044 A 
ATOM      7  C   UNL     1       7.953  -0.556   0.716  1.00  0.00     0.008 A 
ATOM      8  C   UNL     1       6.696   1.179  -0.338  1.00  0.00     0.054 A 
ATOM      9  C   UNL     1       6.981  -0.619   1.698  1.00  0.00     0.051 A 
ATOM     10  C   UNL     1       5.716   1.112   0.658  1.00  0.00     0.166 A 
ATOM     11  C   UNL     1       5.860   0.205   1.684  1.00  0.00     0.165 A 
ATOM     12  O   UNL     1       4.540   1.801   0.867  1.00  0.00    -0.454 OA
ATOM     13  O   UNL     1       4.758   0.359   2.511  1.00  0.00    -0.454 OA
ATOM     14  C   UNL     1       3.943   1.422   2.080  1.00  0.00     0.468 C 
ENDBRANCH   5   6
ENDBRANCH   1   5
TORSDOF 3
ENDMDL
