@<TRIPOS>MOLECULE
/home/cewinharhar/GITHUB/reincatalyze/data/processed/docking_pred/2023-May-23-1437_sub9_nm5_bs15_s42_ex16_mel10_mts10000_k50_ec02_g099_lra3e-4_lrc1e-3/4c3a486d5bbb1ad3c8ce5b6da142191fd088767a_ligand_9.pdbqt
 14 15 0 0 0
SMALL
GASTEIGER

@<TRIPOS>ATOM
      1  C          6.3900    1.1540    0.9400 C.3     1  UNL1        0.0800
      2  C          5.6890    0.3320    1.9660 C.2     1  UNL1        0.1300
      3  C          6.3090   -0.8890    2.5460 C.3     1  UNL1        0.0870
      4  O          4.5760    0.6390    2.3610 O.2     1  UNL1       -0.3000
      5  C          5.8690    0.8590   -0.4520 C.3     1  UNL1        0.0430
      6  C          6.8210    0.0490   -1.2320 C.2     1  UNL1       -0.0440
      7  C          7.5010    0.5760   -2.3360 C.2     1  UNL1        0.0080
      8  C          7.0570   -1.2590   -0.8730 C.2     1  UNL1        0.0540
      9  C          8.3830   -0.2320   -3.0290 C.2     1  UNL1        0.0510
     10  C          7.9520   -2.0710   -1.5770 C.2     1  UNL1        0.1660
     11  C          8.6200   -1.5530   -2.6640 C.2     1  UNL1        0.1650
     12  O          8.3520   -3.3810   -1.4220 O.2     1  UNL1       -0.4540
     13  O          9.4260   -2.5660   -3.1590 O.2     1  UNL1       -0.4540
     14  C          9.3560   -3.7140   -2.3470 C.3     1  UNL1        0.4680
@<TRIPOS>BOND
     1    13    11    1
     2    13    14    1
     3     9    11    2
     4     9     7    1
     5    11    10    1
     6    14    12    1
     7     7     6    2
     8    10    12    1
     9    10     8    2
    10     6     8    1
    11     6     5    1
    12     5     1    1
    13     1     2    1
    14     2     4    2
    15     2     3    1
