@<TRIPOS>MOLECULE
/home/cewinharhar/GITHUB/reincatalyze/data/processed/docking_pred/2023-May-23-1437_sub9_nm5_bs15_s42_ex16_mel10_mts10000_k50_ec02_g099_lra3e-4_lrc1e-3/4c3a486d5bbb1ad3c8ce5b6da142191fd088767a_ligand_9.pdbqt
 14 15 0 0 0
SMALL
GASTEIGER

@<TRIPOS>ATOM
      1  C          8.2370    0.0750   -2.7470 C.3     1  UNL1        0.0800
      2  C          8.0500   -1.4000   -2.8330 C.2     1  UNL1        0.1300
      3  C          9.2070   -2.3270   -2.9510 C.3     1  UNL1        0.0870
      4  O          6.9340   -1.8930   -2.8100 O.2     1  UNL1       -0.3000
      5  C          8.8070    0.4810   -1.4020 C.3     1  UNL1        0.0430
      6  C          7.8050    0.3650   -0.3270 C.2     1  UNL1       -0.0440
      7  C          7.9530   -0.5560    0.7160 C.2     1  UNL1        0.0080
      8  C          6.6960    1.1790   -0.3380 C.2     1  UNL1        0.0540
      9  C          6.9810   -0.6190    1.6980 C.2     1  UNL1        0.0510
     10  C          5.7160    1.1120    0.6580 C.2     1  UNL1        0.1660
     11  C          5.8600    0.2050    1.6840 C.2     1  UNL1        0.1650
     12  O          4.5400    1.8010    0.8670 O.2     1  UNL1       -0.4540
     13  O          4.7580    0.3590    2.5110 O.2     1  UNL1       -0.4540
     14  C          3.9430    1.4220    2.0800 C.3     1  UNL1        0.4680
@<TRIPOS>BOND
     1     3     2    1
     2     2     4    2
     3     2     1    1
     4     1     5    1
     5     5     6    1
     6     8     6    2
     7     8    10    1
     8     6     7    1
     9    10    12    1
    10    10    11    2
    11     7     9    2
    12    12    14    1
    13    11     9    1
    14    11    13    1
    15    14    13    1
