@<TRIPOS>MOLECULE
/home/cewinharhar/GITHUB/reincatalyze/data/processed/docking_pred/2023-May-23-1437_sub9_nm5_bs15_s42_ex16_mel10_mts10000_k50_ec02_g099_lra3e-4_lrc1e-3/4c41b041102a8d5d821093d1e21668bd2b50a839_ligand_9.pdbqt
 14 15 0 0 0
SMALL
GASTEIGER

@<TRIPOS>ATOM
      1  C          5.5200    1.9150    1.2580 C.3     1  UNL1        0.0800
      2  C          5.0730    0.7060    2.0040 C.2     1  UNL1        0.1300
      3  C          5.9530   -0.4830    2.1640 C.3     1  UNL1        0.0870
      4  O          3.9630    0.6550    2.5080 O.2     1  UNL1       -0.3000
      5  C          5.3930    1.7170   -0.2390 C.3     1  UNL1        0.0430
      6  C          6.5630    1.0190   -0.8000 C.2     1  UNL1       -0.0440
      7  C          7.8680    1.4580   -0.5500 C.2     1  UNL1        0.0080
      8  C          6.3800   -0.0950   -1.5880 C.2     1  UNL1        0.0540
      9  C          8.9280    0.7620   -1.1020 C.2     1  UNL1        0.0510
     10  C          7.4550   -0.7950   -2.1430 C.2     1  UNL1        0.1660
     11  C          8.7400   -0.3630   -1.8980 C.2     1  UNL1        0.1650
     12  O          7.5340   -1.9120   -2.9480 O.2     1  UNL1       -0.4540
     13  O          9.5890   -1.2330   -2.5640 O.2     1  UNL1       -0.4540
     14  C          8.8710   -2.2830   -3.1670 C.3     1  UNL1        0.4680
@<TRIPOS>BOND
     1    14    12    1
     2    14    13    1
     3    12    10    1
     4    13    11    1
     5    10    11    2
     6    10     8    1
     7    11     9    1
     8     8     6    2
     9     9     7    2
    10     6     7    1
    11     6     5    1
    12     5     1    1
    13     1     2    1
    14     2     3    1
    15     2     4    2
