@<TRIPOS>MOLECULE
/home/cewinharhar/GITHUB/reincatalyze/data/processed/docking_pred/2023-May-23-1437_sub9_nm5_bs15_s42_ex16_mel10_mts10000_k50_ec02_g099_lra3e-4_lrc1e-3/4c41b041102a8d5d821093d1e21668bd2b50a839_ligand_9.pdbqt
 14 15 0 0 0
SMALL
GASTEIGER

@<TRIPOS>ATOM
      1  C          5.7340    1.3420   -0.2590 C.3     1  UNL1        0.0800
      2  C          5.1280    1.2530    1.0980 C.2     1  UNL1        0.1300
      3  C          5.3540    0.0760    1.9790 C.3     1  UNL1        0.0870
      4  O          4.4210    2.1500    1.5290 O.2     1  UNL1       -0.3000
      5  C          7.2300    1.1000   -0.2110 C.3     1  UNL1        0.0430
      6  C          7.5930   -0.1950   -0.8130 C.2     1  UNL1       -0.0440
      7  C          7.6380   -0.3710   -2.2010 C.2     1  UNL1        0.0080
      8  C          7.9010   -1.2630   -0.0010 C.2     1  UNL1        0.0540
      9  C          7.9870   -1.6090   -2.7090 C.2     1  UNL1        0.0510
     10  C          8.2530   -2.5120   -0.5200 C.2     1  UNL1        0.1660
     11  C          8.2960   -2.6870   -1.8850 C.2     1  UNL1        0.1650
     12  O          8.5960   -3.7110    0.0680 O.2     1  UNL1       -0.4540
     13  O          8.6700   -4.0030   -2.1090 O.2     1  UNL1       -0.4540
     14  C          8.9570   -4.6630   -0.9000 C.3     1  UNL1        0.4680
@<TRIPOS>BOND
     1     9     7    1
     2     9    11    2
     3     7     6    2
     4    13    11    1
     5    13    14    1
     6    11    10    1
     7    14    12    1
     8     6     5    1
     9     6     8    1
    10    10     8    2
    11    10    12    1
    12     1     5    1
    13     1     2    1
    14     2     4    2
    15     2     3    1
