@<TRIPOS>MOLECULE
/home/cewinharhar/GITHUB/reincatalyze/data/processed/docking_pred/2023-May-23-1437_sub9_nm5_bs15_s42_ex16_mel10_mts10000_k50_ec02_g099_lra3e-4_lrc1e-3/4c41b041102a8d5d821093d1e21668bd2b50a839_ligand_9.pdbqt
 14 15 0 0 0
SMALL
GASTEIGER

@<TRIPOS>ATOM
      1  C          5.4500   -0.0450    1.9920 C.3     1  UNL1        0.0800
      2  C          4.5880    1.1450    1.7480 C.2     1  UNL1        0.1300
      3  C          4.8860    2.1140    0.6600 C.3     1  UNL1        0.0870
      4  O          3.6050    1.3600    2.4390 O.2     1  UNL1       -0.3000
      5  C          6.8780    0.2090    1.5510 C.3     1  UNL1        0.0430
      6  C          7.2970   -0.7250    0.4910 C.2     1  UNL1       -0.0440
      7  C          7.1630   -0.4040   -0.8640 C.2     1  UNL1        0.0080
      8  C          7.8360   -1.9450    0.8310 C.2     1  UNL1        0.0540
      9  C          7.5750   -1.3200   -1.8150 C.2     1  UNL1        0.0510
     10  C          8.2510   -2.8680   -0.1330 C.2     1  UNL1        0.1660
     11  C          8.1190   -2.5530   -1.4680 C.2     1  UNL1        0.1650
     12  O          8.8080   -4.1260   -0.0520 O.2     1  UNL1       -0.4540
     13  O          8.6040   -3.6350   -2.1850 O.2     1  UNL1       -0.4540
     14  C          9.1340   -4.6170   -1.3270 C.3     1  UNL1        0.4680
@<TRIPOS>BOND
     1    13    11    1
     2    13    14    1
     3     9    11    2
     4     9     7    1
     5    11    10    1
     6    14    12    1
     7     7     6    2
     8    10    12    1
     9    10     8    2
    10     6     8    1
    11     6     5    1
    12     3     2    1
    13     5     1    1
    14     2     1    1
    15     2     4    2
