@<TRIPOS>MOLECULE
/home/cewinharhar/GITHUB/reincatalyze/data/processed/docking_pred/2023-May-23-1437_sub9_nm5_bs15_s42_ex16_mel10_mts10000_k50_ec02_g099_lra3e-4_lrc1e-3/4d620996829bdf69d2437cdb6940cc233521eaf3_ligand_9.pdbqt
 14 15 0 0 0
SMALL
GASTEIGER

@<TRIPOS>ATOM
      1  C          5.3740   -0.0290    2.0460 C.3     1  UNL1        0.0800
      2  C          4.5550    1.1770    1.7420 C.2     1  UNL1        0.1300
      3  C          4.9560    2.1480    0.6880 C.3     1  UNL1        0.0870
      4  O          3.5240    1.4060    2.3540 O.2     1  UNL1       -0.3000
      5  C          6.8250    0.1780    1.6580 C.3     1  UNL1        0.0430
      6  C          7.1900   -0.6120    0.4690 C.2     1  UNL1       -0.0440
      7  C          6.9410   -0.1450   -0.8270 C.2     1  UNL1        0.0080
      8  C          7.7950   -1.8390    0.6240 C.2     1  UNL1        0.0540
      9  C          7.3070   -0.9300   -1.9050 C.2     1  UNL1        0.0510
     10  C          8.1630   -2.6290   -0.4690 C.2     1  UNL1        0.1660
     11  C          7.9170   -2.1700   -1.7440 C.2     1  UNL1        0.1650
     12  O          8.7660   -3.8640   -0.5750 O.2     1  UNL1       -0.4540
     13  O          8.3800   -3.1440   -2.6160 O.2     1  UNL1       -0.4540
     14  C          9.0080   -4.1930   -1.9190 C.3     1  UNL1        0.4680
@<TRIPOS>BOND
     1    13    14    1
     2    13    11    1
     3    14    12    1
     4     9    11    2
     5     9     7    1
     6    11    10    1
     7     7     6    2
     8    12    10    1
     9    10     8    2
    10     6     8    1
    11     6     5    1
    12     3     2    1
    13     5     1    1
    14     2     1    1
    15     2     4    2
