@<TRIPOS>MOLECULE
/home/cewinharhar/GITHUB/reincatalyze/data/processed/docking_pred/2023-May-23-1437_sub9_nm5_bs15_s42_ex16_mel10_mts10000_k50_ec02_g099_lra3e-4_lrc1e-3/4d620996829bdf69d2437cdb6940cc233521eaf3_ligand_9.pdbqt
 14 15 0 0 0
SMALL
GASTEIGER

@<TRIPOS>ATOM
      1  C          5.5850    1.8410    1.3150 C.3     1  UNL1        0.0800
      2  C          5.1240    0.6200    2.0340 C.2     1  UNL1        0.1300
      3  C          5.9990   -0.5720    2.1890 C.3     1  UNL1        0.0870
      4  O          4.0050    0.5640    2.5190 O.2     1  UNL1       -0.3000
      5  C          5.4440    1.6820   -0.1860 C.3     1  UNL1        0.0430
      6  C          6.6030    0.9870   -0.7740 C.2     1  UNL1       -0.0440
      7  C          7.9110    1.4350   -0.5600 C.2     1  UNL1        0.0080
      8  C          6.4050   -0.1310   -1.5510 C.2     1  UNL1        0.0540
      9  C          8.9600    0.7420   -1.1370 C.2     1  UNL1        0.0510
     10  C          7.4690   -0.8290   -2.1310 C.2     1  UNL1        0.1660
     11  C          8.7570   -0.3880   -1.9230 C.2     1  UNL1        0.1650
     12  O          7.5320   -1.9490   -2.9320 O.2     1  UNL1       -0.4540
     13  O          9.5930   -1.2570   -2.6060 O.2     1  UNL1       -0.4540
     14  C          8.8650   -2.3140   -3.1850 C.3     1  UNL1        0.4680
@<TRIPOS>BOND
     1    14    12    1
     2    14    13    1
     3    12    10    1
     4    13    11    1
     5    10    11    2
     6    10     8    1
     7    11     9    1
     8     8     6    2
     9     9     7    2
    10     6     7    1
    11     6     5    1
    12     5     1    1
    13     1     2    1
    14     2     3    1
    15     2     4    2
