@<TRIPOS>MOLECULE
/home/cewinharhar/GITHUB/reincatalyze/data/processed/docking_pred/2023-May-23-1437_sub9_nm5_bs15_s42_ex16_mel10_mts10000_k50_ec02_g099_lra3e-4_lrc1e-3/4d620996829bdf69d2437cdb6940cc233521eaf3_ligand_9.pdbqt
 14 15 0 0 0
SMALL
GASTEIGER

@<TRIPOS>ATOM
      1  C          5.6640    1.6360   -0.1790 C.3     1  UNL1        0.0800
      2  C          5.0420    1.3280    1.1390 C.2     1  UNL1        0.1300
      3  C          5.4780    0.1630    1.9550 C.3     1  UNL1        0.0870
      4  O          4.1490    2.0280    1.5900 O.2     1  UNL1       -0.3000
      5  C          7.1610    1.4000   -0.1490 C.3     1  UNL1        0.0430
      6  C          7.5340    0.1660   -0.8620 C.2     1  UNL1       -0.0440
      7  C          7.6060    0.1190   -2.2590 C.2     1  UNL1        0.0080
      8  C          7.8240   -0.9740   -0.1470 C.2     1  UNL1        0.0540
      9  C          7.9630   -1.0670   -2.8740 C.2     1  UNL1        0.0510
     10  C          8.1840   -2.1710   -0.7730 C.2     1  UNL1        0.1660
     11  C          8.2540   -2.2180   -2.1480 C.2     1  UNL1        0.1650
     12  O          8.5130   -3.4210   -0.2930 O.2     1  UNL1       -0.4540
     13  O          8.6300   -3.5090   -2.4870 O.2     1  UNL1       -0.4540
     14  C          8.8920   -4.2790   -1.3380 C.3     1  UNL1        0.4680
@<TRIPOS>BOND
     1     9     7    1
     2     9    11    2
     3    13    11    1
     4    13    14    1
     5     7     6    2
     6    11    10    1
     7    14    12    1
     8     6     5    1
     9     6     8    1
    10    10    12    1
    11    10     8    2
    12     1     5    1
    13     1     2    1
    14     2     4    2
    15     2     3    1
