@<TRIPOS>MOLECULE
/home/cewinharhar/GITHUB/reincatalyze/data/processed/docking_pred/2023-May-23-1437_sub9_nm5_bs15_s42_ex16_mel10_mts10000_k50_ec02_g099_lra3e-4_lrc1e-3/4d620996829bdf69d2437cdb6940cc233521eaf3_ligand_9.pdbqt
 14 15 0 0 0
SMALL
GASTEIGER

@<TRIPOS>ATOM
      1  C          5.2850   -0.1190    1.9430 C.3     1  UNL1        0.0800
      2  C          4.4430    1.1020    1.8090 C.2     1  UNL1        0.1300
      3  C          4.7420    2.1500    0.7960 C.3     1  UNL1        0.0870
      4  O          3.4770    1.2800    2.5330 O.2     1  UNL1       -0.3000
      5  C          6.7610    0.2260    1.9240 C.3     1  UNL1        0.0430
      6  C          7.3810   -0.0950    0.6250 C.2     1  UNL1       -0.0440
      7  C          7.8970    0.9050   -0.2070 C.2     1  UNL1        0.0080
      8  C          7.4610   -1.4050    0.2130 C.2     1  UNL1        0.0540
      9  C          8.4670    0.5440   -1.4140 C.2     1  UNL1        0.0510
     10  C          8.0390   -1.7650   -1.0080 C.2     1  UNL1        0.1660
     11  C          8.5460   -0.7820   -1.8290 C.2     1  UNL1        0.1650
     12  O          8.2350   -2.9770   -1.6350 O.2     1  UNL1       -0.4540
     13  O          9.0490   -1.4180   -2.9530 O.2     1  UNL1       -0.4540
     14  C          8.9550   -2.8170   -2.8300 C.3     1  UNL1        0.4680
@<TRIPOS>BOND
     1    13    14    1
     2    13    11    1
     3    14    12    1
     4    11     9    2
     5    11    10    1
     6    12    10    1
     7     9     7    1
     8    10     8    2
     9     7     6    2
    10     8     6    1
    11     6     5    1
    12     3     2    1
    13     2     1    1
    14     2     4    2
    15     5     1    1
