MODEL 1
REMARK VINA RESULT:      -7.7      0.000      0.000
REMARK SMILES CC(=O)CCc1ccc2c(c1)OCO2
REMARK SMILES IDX 4 1 2 2 1 3 3 4 5 5 6 6 7 7 11 8 8 9 10 10 9 11 12 12 14 13
REMARK SMILES IDX 13 14
REMARK H PARENT
REMARK Flexibility Score: inf
ROOT
ATOM      1  C   UNL     1       5.585   1.841   1.315  1.00  0.00     0.080 C 
ENDROOT
BRANCH   1   2
ATOM      2  C   UNL     1       5.124   0.620   2.034  1.00  0.00     0.130 C 
ATOM      3  C   UNL     1       5.999  -0.572   2.189  1.00  0.00     0.087 C 
ATOM      4  O   UNL     1       4.005   0.564   2.519  1.00  0.00    -0.300 OA
ENDBRANCH   1   2
BRANCH   1   5
ATOM      5  C   UNL     1       5.444   1.682  -0.186  1.00  0.00     0.043 C 
BRANCH   5   6
ATOM      6  C   UNL     1       6.603   0.987  -0.774  1.00  0.00    -0.044 A 
ATOM      7  C   UNL     1       7.911   1.435  -0.560  1.00  0.00     0.008 A 
ATOM      8  C   UNL     1       6.405  -0.131  -1.551  1.00  0.00     0.054 A 
ATOM      9  C   UNL     1       8.960   0.742  -1.137  1.00  0.00     0.051 A 
ATOM     10  C   UNL     1       7.469  -0.829  -2.131  1.00  0.00     0.166 A 
ATOM     11  C   UNL     1       8.757  -0.388  -1.923  1.00  0.00     0.165 A 
ATOM     12  O   UNL     1       7.532  -1.949  -2.932  1.00  0.00    -0.454 OA
ATOM     13  O   UNL     1       9.593  -1.257  -2.606  1.00  0.00    -0.454 OA
ATOM     14  C   UNL     1       8.865  -2.314  -3.185  1.00  0.00     0.468 C 
ENDBRANCH   5   6
ENDBRANCH   1   5
TORSDOF 3
ENDMDL
MODEL 2
REMARK VINA RESULT:      -7.2      1.244      1.448
REMARK SMILES CC(=O)CCc1ccc2c(c1)OCO2
REMARK SMILES IDX 4 1 2 2 1 3 3 4 5 5 6 6 7 7 11 8 8 9 10 10 9 11 12 12 14 13
REMARK SMILES IDX 13 14
REMARK H PARENT
REMARK Flexibility Score: inf
ROOT
ATOM      1  C   UNL     1       6.387   1.175   0.946  1.00  0.00     0.080 C 
ENDROOT
BRANCH   1   2
ATOM      2  C   UNL     1       5.647   0.362   1.951  1.00  0.00     0.130 C 
ATOM      3  C   UNL     1       6.235  -0.867   2.548  1.00  0.00     0.087 C 
ATOM      4  O   UNL     1       4.528   0.684   2.316  1.00  0.00    -0.300 OA
ENDBRANCH   1   2
BRANCH   1   5
ATOM      5  C   UNL     1       5.881   0.908  -0.458  1.00  0.00     0.043 C 
BRANCH   5   6
ATOM      6  C   UNL     1       6.823   0.078  -1.230  1.00  0.00    -0.044 A 
ATOM      7  C   UNL     1       7.497   0.582  -2.349  1.00  0.00     0.008 A 
ATOM      8  C   UNL     1       7.056  -1.224  -0.849  1.00  0.00     0.054 A 
ATOM      9  C   UNL     1       8.370  -0.243  -3.034  1.00  0.00     0.051 A 
ATOM     10  C   UNL     1       7.940  -2.053  -1.545  1.00  0.00     0.166 A 
ATOM     11  C   UNL     1       8.602  -1.559  -2.647  1.00  0.00     0.165 A 
ATOM     12  O   UNL     1       8.335  -3.363  -1.370  1.00  0.00    -0.454 OA
ATOM     13  O   UNL     1       9.400  -2.585  -3.129  1.00  0.00    -0.454 OA
ATOM     14  C   UNL     1       9.330  -3.717  -2.296  1.00  0.00     0.468 C 
ENDBRANCH   5   6
ENDBRANCH   1   5
TORSDOF 3
ENDMDL
MODEL 3
REMARK VINA RESULT:      -7.0      1.669      2.069
REMARK SMILES CC(=O)CCc1ccc2c(c1)OCO2
REMARK SMILES IDX 4 1 2 2 1 3 3 4 5 5 6 6 7 7 11 8 8 9 10 10 9 11 12 12 14 13
REMARK SMILES IDX 13 14
REMARK H PARENT
REMARK Flexibility Score: inf
ROOT
ATOM      1  C   UNL     1       5.664   1.636  -0.179  1.00  0.00     0.080 C 
ENDROOT
BRANCH   1   2
ATOM      2  C   UNL     1       5.042   1.328   1.139  1.00  0.00     0.130 C 
ATOM      3  C   UNL     1       5.478   0.163   1.955  1.00  0.00     0.087 C 
ATOM      4  O   UNL     1       4.149   2.028   1.590  1.00  0.00    -0.300 OA
ENDBRANCH   1   2
BRANCH   1   5
ATOM      5  C   UNL     1       7.161   1.400  -0.149  1.00  0.00     0.043 C 
BRANCH   5   6
ATOM      6  C   UNL     1       7.534   0.166  -0.862  1.00  0.00    -0.044 A 
ATOM      7  C   UNL     1       7.606   0.119  -2.259  1.00  0.00     0.008 A 
ATOM      8  C   UNL     1       7.824  -0.974  -0.147  1.00  0.00     0.054 A 
ATOM      9  C   UNL     1       7.963  -1.067  -2.874  1.00  0.00     0.051 A 
ATOM     10  C   UNL     1       8.184  -2.171  -0.773  1.00  0.00     0.166 A 
ATOM     11  C   UNL     1       8.254  -2.218  -2.148  1.00  0.00     0.165 A 
ATOM     12  O   UNL     1       8.513  -3.421  -0.293  1.00  0.00    -0.454 OA
ATOM     13  O   UNL     1       8.630  -3.509  -2.487  1.00  0.00    -0.454 OA
ATOM     14  C   UNL     1       8.892  -4.279  -1.338  1.00  0.00     0.468 C 
ENDBRANCH   5   6
ENDBRANCH   1   5
TORSDOF 3
ENDMDL
MODEL 4
REMARK VINA RESULT:      -6.9      1.771      2.376
REMARK SMILES CC(=O)CCc1ccc2c(c1)OCO2
REMARK SMILES IDX 4 1 2 2 1 3 3 4 5 5 6 6 7 7 11 8 8 9 10 10 9 11 12 12 14 13
REMARK SMILES IDX 13 14
REMARK H PARENT
REMARK Flexibility Score: inf
ROOT
ATOM      1  C   UNL     1       5.374  -0.029   2.046  1.00  0.00     0.080 C 
ENDROOT
BRANCH   1   2
ATOM      2  C   UNL     1       4.555   1.177   1.742  1.00  0.00     0.130 C 
ATOM      3  C   UNL     1       4.956   2.148   0.688  1.00  0.00     0.087 C 
ATOM      4  O   UNL     1       3.524   1.406   2.354  1.00  0.00    -0.300 OA
ENDBRANCH   1   2
BRANCH   1   5
ATOM      5  C   UNL     1       6.825   0.178   1.658  1.00  0.00     0.043 C 
BRANCH   5   6
ATOM      6  C   UNL     1       7.190  -0.612   0.469  1.00  0.00    -0.044 A 
ATOM      7  C   UNL     1       6.941  -0.145  -0.827  1.00  0.00     0.008 A 
ATOM      8  C   UNL     1       7.795  -1.839   0.624  1.00  0.00     0.054 A 
ATOM      9  C   UNL     1       7.307  -0.930  -1.905  1.00  0.00     0.051 A 
ATOM     10  C   UNL     1       8.163  -2.629  -0.469  1.00  0.00     0.166 A 
ATOM     11  C   UNL     1       7.917  -2.170  -1.744  1.00  0.00     0.165 A 
ATOM     12  O   UNL     1       8.766  -3.864  -0.575  1.00  0.00    -0.454 OA
ATOM     13  O   UNL     1       8.380  -3.144  -2.616  1.00  0.00    -0.454 OA
ATOM     14  C   UNL     1       9.008  -4.193  -1.919  1.00  0.00     0.468 C 
ENDBRANCH   5   6
ENDBRANCH   1   5
TORSDOF 3
ENDMDL
MODEL 5
REMARK VINA RESULT:      -6.8      1.240      1.736
REMARK SMILES CC(=O)CCc1ccc2c(c1)OCO2
REMARK SMILES IDX 4 1 2 2 1 3 3 4 5 5 6 6 7 7 11 8 8 9 10 10 9 11 12 12 14 13
REMARK SMILES IDX 13 14
REMARK H PARENT
REMARK Flexibility Score: inf
ROOT
ATOM      1  C   UNL     1       5.285  -0.119   1.943  1.00  0.00     0.080 C 
ENDROOT
BRANCH   1   2
ATOM      2  C   UNL     1       4.443   1.102   1.809  1.00  0.00     0.130 C 
ATOM      3  C   UNL     1       4.742   2.150   0.796  1.00  0.00     0.087 C 
ATOM      4  O   UNL     1       3.477   1.280   2.533  1.00  0.00    -0.300 OA
ENDBRANCH   1   2
BRANCH   1   5
ATOM      5  C   UNL     1       6.761   0.226   1.924  1.00  0.00     0.043 C 
BRANCH   5   6
ATOM      6  C   UNL     1       7.381  -0.095   0.625  1.00  0.00    -0.044 A 
ATOM      7  C   UNL     1       7.897   0.905  -0.207  1.00  0.00     0.008 A 
ATOM      8  C   UNL     1       7.461  -1.405   0.213  1.00  0.00     0.054 A 
ATOM      9  C   UNL     1       8.467   0.544  -1.414  1.00  0.00     0.051 A 
ATOM     10  C   UNL     1       8.039  -1.765  -1.008  1.00  0.00     0.166 A 
ATOM     11  C   UNL     1       8.546  -0.782  -1.829  1.00  0.00     0.165 A 
ATOM     12  O   UNL     1       8.235  -2.977  -1.635  1.00  0.00    -0.454 OA
ATOM     13  O   UNL     1       9.049  -1.418  -2.953  1.00  0.00    -0.454 OA
ATOM     14  C   UNL     1       8.955  -2.817  -2.830  1.00  0.00     0.468 C 
ENDBRANCH   5   6
ENDBRANCH   1   5
TORSDOF 3
ENDMDL
