@<TRIPOS>MOLECULE
/home/cewinharhar/GITHUB/reincatalyze/data/processed/docking_pred/2023-May-23-1437_sub9_nm5_bs15_s42_ex16_mel10_mts10000_k50_ec02_g099_lra3e-4_lrc1e-3/4f8338f1f65f27d68c3e57a6b5041c9c59ec4c55_ligand_9.pdbqt
 14 15 0 0 0
SMALL
GASTEIGER

@<TRIPOS>ATOM
      1  C          5.3780   -0.0920    1.9700 C.3     1  UNL1        0.0800
      2  C          4.5640    1.1290    1.7130 C.2     1  UNL1        0.1300
      3  C          4.9260    2.0980    0.6440 C.3     1  UNL1        0.0870
      4  O          3.5710    1.3710    2.3790 O.2     1  UNL1       -0.3000
      5  C          6.8310    0.1270    1.5960 C.3     1  UNL1        0.0430
      6  C          7.2640   -0.7910    0.5270 C.2     1  UNL1       -0.0440
      7  C          7.1180   -0.4620   -0.8260 C.2     1  UNL1        0.0080
      8  C          7.8290   -2.0030    0.8550 C.2     1  UNL1        0.0540
      9  C          7.5430   -1.3630   -1.7850 C.2     1  UNL1        0.0510
     10  C          8.2580   -2.9100   -0.1180 C.2     1  UNL1        0.1660
     11  C          8.1130   -2.5870   -1.4490 C.2     1  UNL1        0.1650
     12  O          8.8400   -4.1570   -0.0490 O.2     1  UNL1       -0.4540
     13  O          8.6160   -3.6540   -2.1770 O.2     1  UNL1       -0.4540
     14  C          9.1700   -4.6320   -1.3290 C.3     1  UNL1        0.4680
@<TRIPOS>BOND
     1    13    11    1
     2    13    14    1
     3     9    11    2
     4     9     7    1
     5    11    10    1
     6    14    12    1
     7     7     6    2
     8    10    12    1
     9    10     8    2
    10     6     8    1
    11     6     5    1
    12     3     2    1
    13     5     1    1
    14     2     1    1
    15     2     4    2
