@<TRIPOS>MOLECULE
/home/cewinharhar/GITHUB/reincatalyze/data/processed/docking_pred/2023-May-23-1437_sub9_nm5_bs15_s42_ex16_mel10_mts10000_k50_ec02_g099_lra3e-4_lrc1e-3/4f8485ffa73320ccf1b94cd7b1ea99ef776c762b_ligand_9.pdbqt
 14 15 0 0 0
SMALL
GASTEIGER

@<TRIPOS>ATOM
      1  C          5.3750   -0.0920    1.9500 C.3     1  UNL1        0.0800
      2  C          5.3080    1.0860    1.0410 C.2     1  UNL1        0.1300
      3  C          5.8560    1.0370   -0.3410 C.3     1  UNL1        0.0870
      4  O          4.7990    2.1320    1.4070 O.2     1  UNL1       -0.3000
      5  C          6.1130   -1.2470    1.3030 C.3     1  UNL1        0.0430
      6  C          7.3620   -1.5660    2.0170 C.2     1  UNL1       -0.0440
      7  C          8.3870   -2.3000    1.4080 C.2     1  UNL1        0.0080
      8  C          7.5370   -1.1360    3.3120 C.2     1  UNL1        0.0540
      9  C          9.5380   -2.5690    2.1270 C.2     1  UNL1        0.0510
     10  C          8.7020   -1.4100    4.0350 C.2     1  UNL1        0.1660
     11  C          9.7110   -2.1330    3.4370 C.2     1  UNL1        0.1650
     12  O          9.1090   -1.0990    5.3150 O.2     1  UNL1       -0.4540
     13  O         10.7270   -2.2510    4.3720 O.2     1  UNL1       -0.4540
     14  C         10.4250   -1.5330    5.5450 C.3     1  UNL1        0.4680
@<TRIPOS>BOND
     1     3     2    1
     2     2     4    2
     3     2     1    1
     4     5     1    1
     5     5     6    1
     6     7     6    2
     7     7     9    1
     8     6     8    1
     9     9    11    2
    10     8    10    2
    11    11    10    1
    12    11    13    1
    13    10    12    1
    14    13    14    1
    15    12    14    1
