@<TRIPOS>MOLECULE
/home/cewinharhar/GITHUB/reincatalyze/data/processed/docking_pred/2023-May-23-1437_sub9_nm5_bs15_s42_ex16_mel10_mts10000_k50_ec02_g099_lra3e-4_lrc1e-3/4fd116288ae20ad94bf91d23a53b6bc9c92e4cae_ligand_9.pdbqt
 14 15 0 0 0
SMALL
GASTEIGER

@<TRIPOS>ATOM
      1  C          5.5500    1.9160    1.2790 C.3     1  UNL1        0.0800
      2  C          5.0980    0.7000    2.0120 C.2     1  UNL1        0.1300
      3  C          5.9840   -0.4820    2.1840 C.3     1  UNL1        0.0870
      4  O          3.9790    0.6400    2.4970 O.2     1  UNL1       -0.3000
      5  C          5.4180    1.7350   -0.2200 C.3     1  UNL1        0.0430
      6  C          6.5810    1.0320   -0.7900 C.2     1  UNL1       -0.0440
      7  C          7.8890    1.4670   -0.5520 C.2     1  UNL1        0.0080
      8  C          6.3870   -0.0820   -1.5750 C.2     1  UNL1        0.0540
      9  C          8.9420    0.7670   -1.1130 C.2     1  UNL1        0.0510
     10  C          7.4540   -0.7870   -2.1390 C.2     1  UNL1        0.1660
     11  C          8.7420   -0.3590   -1.9070 C.2     1  UNL1        0.1650
     12  O          7.5220   -1.9060   -2.9430 O.2     1  UNL1       -0.4540
     13  O          9.5830   -1.2330   -2.5780 O.2     1  UNL1       -0.4540
     14  C          8.8550   -2.2810   -3.1730 C.3     1  UNL1        0.4680
@<TRIPOS>BOND
     1    14    12    1
     2    14    13    1
     3    12    10    1
     4    13    11    1
     5    10    11    2
     6    10     8    1
     7    11     9    1
     8     8     6    2
     9     9     7    2
    10     6     7    1
    11     6     5    1
    12     5     1    1
    13     1     2    1
    14     2     3    1
    15     2     4    2
