MODEL 1
REMARK VINA RESULT:      -7.6      0.000      0.000
REMARK SMILES CC(=O)CCc1ccc2c(c1)OCO2
REMARK SMILES IDX 4 1 2 2 1 3 3 4 5 5 6 6 7 7 11 8 8 9 10 10 9 11 12 12 14 13
REMARK SMILES IDX 13 14
REMARK H PARENT
REMARK Flexibility Score: inf
ROOT
ATOM      1  C   UNL     1       5.550   1.916   1.279  1.00  0.00     0.080 C 
ENDROOT
BRANCH   1   2
ATOM      2  C   UNL     1       5.098   0.700   2.012  1.00  0.00     0.130 C 
ATOM      3  C   UNL     1       5.984  -0.482   2.184  1.00  0.00     0.087 C 
ATOM      4  O   UNL     1       3.979   0.640   2.497  1.00  0.00    -0.300 OA
ENDBRANCH   1   2
BRANCH   1   5
ATOM      5  C   UNL     1       5.418   1.735  -0.220  1.00  0.00     0.043 C 
BRANCH   5   6
ATOM      6  C   UNL     1       6.581   1.032  -0.790  1.00  0.00    -0.044 A 
ATOM      7  C   UNL     1       7.889   1.467  -0.552  1.00  0.00     0.008 A 
ATOM      8  C   UNL     1       6.387  -0.082  -1.575  1.00  0.00     0.054 A 
ATOM      9  C   UNL     1       8.942   0.767  -1.113  1.00  0.00     0.051 A 
ATOM     10  C   UNL     1       7.454  -0.787  -2.139  1.00  0.00     0.166 A 
ATOM     11  C   UNL     1       8.742  -0.359  -1.907  1.00  0.00     0.165 A 
ATOM     12  O   UNL     1       7.522  -1.906  -2.943  1.00  0.00    -0.454 OA
ATOM     13  O   UNL     1       9.583  -1.233  -2.578  1.00  0.00    -0.454 OA
ATOM     14  C   UNL     1       8.855  -2.281  -3.173  1.00  0.00     0.468 C 
ENDBRANCH   5   6
ENDBRANCH   1   5
TORSDOF 3
ENDMDL
MODEL 2
REMARK VINA RESULT:      -7.2      2.070      2.627
REMARK SMILES CC(=O)CCc1ccc2c(c1)OCO2
REMARK SMILES IDX 4 1 2 2 1 3 3 4 5 5 6 6 7 7 11 8 8 9 10 10 9 11 12 12 14 13
REMARK SMILES IDX 13 14
REMARK H PARENT
REMARK Flexibility Score: inf
ROOT
ATOM      1  C   UNL     1       5.469  -0.018   2.007  1.00  0.00     0.080 C 
ENDROOT
BRANCH   1   2
ATOM      2  C   UNL     1       4.590   1.156   1.748  1.00  0.00     0.130 C 
ATOM      3  C   UNL     1       4.894   2.136   0.670  1.00  0.00     0.087 C 
ATOM      4  O   UNL     1       3.589   1.350   2.418  1.00  0.00    -0.300 OA
ENDBRANCH   1   2
BRANCH   1   5
ATOM      5  C   UNL     1       6.889   0.244   1.547  1.00  0.00     0.043 C 
BRANCH   5   6
ATOM      6  C   UNL     1       7.308  -0.704   0.500  1.00  0.00    -0.044 A 
ATOM      7  C   UNL     1       7.189  -0.396  -0.860  1.00  0.00     0.008 A 
ATOM      8  C   UNL     1       7.834  -1.925   0.857  1.00  0.00     0.054 A 
ATOM      9  C   UNL     1       7.599  -1.325  -1.798  1.00  0.00     0.051 A 
ATOM     10  C   UNL     1       8.249  -2.862  -0.095  1.00  0.00     0.166 A 
ATOM     11  C   UNL     1       8.130  -2.559  -1.433  1.00  0.00     0.165 A 
ATOM     12  O   UNL     1       8.794  -4.124   0.004  1.00  0.00    -0.454 OA
ATOM     13  O   UNL     1       8.611  -3.653  -2.136  1.00  0.00    -0.454 OA
ATOM     14  C   UNL     1       9.126  -4.631  -1.264  1.00  0.00     0.468 C 
ENDBRANCH   5   6
ENDBRANCH   1   5
TORSDOF 3
ENDMDL
MODEL 3
REMARK VINA RESULT:      -7.1      1.844      2.255
REMARK SMILES CC(=O)CCc1ccc2c(c1)OCO2
REMARK SMILES IDX 4 1 2 2 1 3 3 4 5 5 6 6 7 7 11 8 8 9 10 10 9 11 12 12 14 13
REMARK SMILES IDX 13 14
REMARK H PARENT
REMARK Flexibility Score: inf
ROOT
ATOM      1  C   UNL     1       5.520   1.238  -0.027  1.00  0.00     0.080 C 
ENDROOT
BRANCH   1   2
ATOM      2  C   UNL     1       5.038   1.068   1.372  1.00  0.00     0.130 C 
ATOM      3  C   UNL     1       5.693   0.121   2.314  1.00  0.00     0.087 C 
ATOM      4  O   UNL     1       4.084   1.706   1.789  1.00  0.00    -0.300 OA
ENDBRANCH   1   2
BRANCH   1   5
ATOM      5  C   UNL     1       7.029   1.119  -0.108  1.00  0.00     0.043 C 
BRANCH   5   6
ATOM      6  C   UNL     1       7.443  -0.137  -0.758  1.00  0.00    -0.044 A 
ATOM      7  C   UNL     1       7.507  -0.255  -2.152  1.00  0.00     0.008 A 
ATOM      8  C   UNL     1       7.780  -1.226   0.013  1.00  0.00     0.054 A 
ATOM      9  C   UNL     1       7.904  -1.459  -2.706  1.00  0.00     0.051 A 
ATOM     10  C   UNL     1       8.181  -2.440  -0.552  1.00  0.00     0.166 A 
ATOM     11  C   UNL     1       8.243  -2.558  -1.922  1.00  0.00     0.165 A 
ATOM     12  O   UNL     1       8.560  -3.650  -0.009  1.00  0.00    -0.454 OA
ATOM     13  O   UNL     1       8.664  -3.850  -2.196  1.00  0.00    -0.454 OA
ATOM     14  C   UNL     1       8.964  -4.548  -1.010  1.00  0.00     0.468 C 
ENDBRANCH   5   6
ENDBRANCH   1   5
TORSDOF 3
ENDMDL
MODEL 4
REMARK VINA RESULT:      -7.1      1.248      1.464
REMARK SMILES CC(=O)CCc1ccc2c(c1)OCO2
REMARK SMILES IDX 4 1 2 2 1 3 3 4 5 5 6 6 7 7 11 8 8 9 10 10 9 11 12 12 14 13
REMARK SMILES IDX 13 14
REMARK H PARENT
REMARK Flexibility Score: inf
ROOT
ATOM      1  C   UNL     1       6.376   1.230   0.871  1.00  0.00     0.080 C 
ENDROOT
BRANCH   1   2
ATOM      2  C   UNL     1       5.668   0.426   1.905  1.00  0.00     0.130 C 
ATOM      3  C   UNL     1       6.278  -0.794   2.499  1.00  0.00     0.087 C 
ATOM      4  O   UNL     1       4.557   0.746   2.297  1.00  0.00    -0.300 OA
ENDBRANCH   1   2
BRANCH   1   5
ATOM      5  C   UNL     1       5.866   0.911  -0.520  1.00  0.00     0.043 C 
BRANCH   5   6
ATOM      6  C   UNL     1       6.826   0.088  -1.278  1.00  0.00    -0.044 A 
ATOM      7  C   UNL     1       7.535   0.607  -2.368  1.00  0.00     0.008 A 
ATOM      8  C   UNL     1       7.039  -1.222  -0.914  1.00  0.00     0.054 A 
ATOM      9  C   UNL     1       8.424  -0.212  -3.041  1.00  0.00     0.051 A 
ATOM     10  C   UNL     1       7.939  -2.045  -1.597  1.00  0.00     0.166 A 
ATOM     11  C   UNL     1       8.636  -1.536  -2.670  1.00  0.00     0.165 A 
ATOM     12  O   UNL     1       8.321  -3.359  -1.433  1.00  0.00    -0.454 OA
ATOM     13  O   UNL     1       9.442  -2.559  -3.146  1.00  0.00    -0.454 OA
ATOM     14  C   UNL     1       9.340  -3.705  -2.335  1.00  0.00     0.468 C 
ENDBRANCH   5   6
ENDBRANCH   1   5
TORSDOF 3
ENDMDL
MODEL 5
REMARK VINA RESULT:      -7.0      1.958      2.631
REMARK SMILES CC(=O)CCc1ccc2c(c1)OCO2
REMARK SMILES IDX 4 1 2 2 1 3 3 4 5 5 6 6 7 7 11 8 8 9 10 10 9 11 12 12 14 13
REMARK SMILES IDX 13 14
REMARK H PARENT
REMARK Flexibility Score: inf
ROOT
ATOM      1  C   UNL     1       6.786   1.144   1.041  1.00  0.00     0.080 C 
ENDROOT
BRANCH   1   2
ATOM      2  C   UNL     1       5.433   1.702   0.767  1.00  0.00     0.130 C 
ATOM      3  C   UNL     1       5.032   2.148  -0.594  1.00  0.00     0.087 C 
ATOM      4  O   UNL     1       4.608   1.811   1.660  1.00  0.00    -0.300 OA
ENDBRANCH   1   2
BRANCH   1   5
ATOM      5  C   UNL     1       7.678   1.240  -0.181  1.00  0.00     0.043 C 
BRANCH   5   6
ATOM      6  C   UNL     1       7.931  -0.083  -0.779  1.00  0.00    -0.044 A 
ATOM      7  C   UNL     1       7.978  -0.265  -2.166  1.00  0.00     0.008 A 
ATOM      8  C   UNL     1       8.131  -1.173   0.038  1.00  0.00     0.054 A 
ATOM      9  C   UNL     1       8.220  -1.530  -2.669  1.00  0.00     0.051 A 
ATOM     10  C   UNL     1       8.376  -2.450  -0.476  1.00  0.00     0.166 A 
ATOM     11  C   UNL     1       8.421  -2.630  -1.841  1.00  0.00     0.165 A 
ATOM     12  O   UNL     1       8.602  -3.674   0.117  1.00  0.00    -0.454 OA
ATOM     13  O   UNL     1       8.677  -3.975  -2.059  1.00  0.00    -0.454 OA
ATOM     14  C   UNL     1       8.889  -4.656  -0.846  1.00  0.00     0.468 C 
ENDBRANCH   5   6
ENDBRANCH   1   5
TORSDOF 3
ENDMDL
