@<TRIPOS>MOLECULE
/home/cewinharhar/GITHUB/reincatalyze/data/processed/docking_pred/2023-May-23-1437_sub9_nm5_bs15_s42_ex16_mel10_mts10000_k50_ec02_g099_lra3e-4_lrc1e-3/4fd116288ae20ad94bf91d23a53b6bc9c92e4cae_ligand_9.pdbqt
 14 15 0 0 0
SMALL
GASTEIGER

@<TRIPOS>ATOM
      1  C          6.7860    1.1440    1.0410 C.3     1  UNL1        0.0800
      2  C          5.4330    1.7020    0.7670 C.2     1  UNL1        0.1300
      3  C          5.0320    2.1480   -0.5940 C.3     1  UNL1        0.0870
      4  O          4.6080    1.8110    1.6600 O.2     1  UNL1       -0.3000
      5  C          7.6780    1.2400   -0.1810 C.3     1  UNL1        0.0430
      6  C          7.9310   -0.0830   -0.7790 C.2     1  UNL1       -0.0440
      7  C          7.9780   -0.2650   -2.1660 C.2     1  UNL1        0.0080
      8  C          8.1310   -1.1730    0.0380 C.2     1  UNL1        0.0540
      9  C          8.2200   -1.5300   -2.6690 C.2     1  UNL1        0.0510
     10  C          8.3760   -2.4500   -0.4760 C.2     1  UNL1        0.1660
     11  C          8.4210   -2.6300   -1.8410 C.2     1  UNL1        0.1650
     12  O          8.6020   -3.6740    0.1170 O.2     1  UNL1       -0.4540
     13  O          8.6770   -3.9750   -2.0590 O.2     1  UNL1       -0.4540
     14  C          8.8890   -4.6560   -0.8460 C.3     1  UNL1        0.4680
@<TRIPOS>BOND
     1     9     7    1
     2     9    11    2
     3     7     6    2
     4    13    11    1
     5    13    14    1
     6    11    10    1
     7    14    12    1
     8     6     5    1
     9     6     8    1
    10     3     2    1
    11    10     8    2
    12    10    12    1
    13     5     1    1
    14     2     1    1
    15     2     4    2
