@<TRIPOS>MOLECULE
/home/cewinharhar/GITHUB/reincatalyze/data/processed/docking_pred/2023-May-23-1437_sub9_nm5_bs15_s42_ex16_mel10_mts10000_k50_ec02_g099_lra3e-4_lrc1e-3/4fd116288ae20ad94bf91d23a53b6bc9c92e4cae_ligand_9.pdbqt
 14 15 0 0 0
SMALL
GASTEIGER

@<TRIPOS>ATOM
      1  C          5.5200    1.2380   -0.0270 C.3     1  UNL1        0.0800
      2  C          5.0380    1.0680    1.3720 C.2     1  UNL1        0.1300
      3  C          5.6930    0.1210    2.3140 C.3     1  UNL1        0.0870
      4  O          4.0840    1.7060    1.7890 O.2     1  UNL1       -0.3000
      5  C          7.0290    1.1190   -0.1080 C.3     1  UNL1        0.0430
      6  C          7.4430   -0.1370   -0.7580 C.2     1  UNL1       -0.0440
      7  C          7.5070   -0.2550   -2.1520 C.2     1  UNL1        0.0080
      8  C          7.7800   -1.2260    0.0130 C.2     1  UNL1        0.0540
      9  C          7.9040   -1.4590   -2.7060 C.2     1  UNL1        0.0510
     10  C          8.1810   -2.4400   -0.5520 C.2     1  UNL1        0.1660
     11  C          8.2430   -2.5580   -1.9220 C.2     1  UNL1        0.1650
     12  O          8.5600   -3.6500   -0.0090 O.2     1  UNL1       -0.4540
     13  O          8.6640   -3.8500   -2.1960 O.2     1  UNL1       -0.4540
     14  C          8.9640   -4.5480   -1.0100 C.3     1  UNL1        0.4680
@<TRIPOS>BOND
     1     9     7    1
     2     9    11    2
     3    13    11    1
     4    13    14    1
     5     7     6    2
     6    11    10    1
     7    14    12    1
     8     6     5    1
     9     6     8    1
    10    10    12    1
    11    10     8    2
    12     5     1    1
    13     1     2    1
    14     2     4    2
    15     2     3    1
