@<TRIPOS>MOLECULE
/home/cewinharhar/GITHUB/reincatalyze/data/processed/docking_pred/2023-May-23-1437_sub9_nm5_bs15_s42_ex16_mel10_mts10000_k50_ec02_g099_lra3e-4_lrc1e-3/51cadb519a72bd0ce332fe372f57097c9ba117cb_ligand_9.pdbqt
 14 15 0 0 0
SMALL
GASTEIGER

@<TRIPOS>ATOM
      1  C          5.5180    0.0120    1.9530 C.3     1  UNL1        0.0800
      2  C          4.6420    1.1780    1.6490 C.2     1  UNL1        0.1300
      3  C          4.9640    2.1320    0.5550 C.3     1  UNL1        0.0870
      4  O          3.6280    1.3850    2.2960 O.2     1  UNL1       -0.3000
      5  C          6.9400    0.2570    1.4910 C.3     1  UNL1        0.0430
      6  C          7.3490   -0.7020    0.4490 C.2     1  UNL1       -0.0440
      7  C          7.2410   -0.3960   -0.9120 C.2     1  UNL1        0.0080
      8  C          7.8540   -1.9300    0.8120 C.2     1  UNL1        0.0540
      9  C          7.6410   -1.3350   -1.8450 C.2     1  UNL1        0.0510
     10  C          8.2580   -2.8760   -0.1350 C.2     1  UNL1        0.1660
     11  C          8.1500   -2.5760   -1.4750 C.2     1  UNL1        0.1650
     12  O          8.7830   -4.1470   -0.0290 O.2     1  UNL1       -0.4540
     13  O          8.6170   -3.6800   -2.1710 O.2     1  UNL1       -0.4540
     14  C          9.1120   -4.6630   -1.2930 C.3     1  UNL1        0.4680
@<TRIPOS>BOND
     1    13    11    1
     2    13    14    1
     3     9    11    2
     4     9     7    1
     5    11    10    1
     6    14    12    1
     7     7     6    2
     8    10    12    1
     9    10     8    2
    10     6     8    1
    11     6     5    1
    12     3     2    1
    13     5     1    1
    14     2     1    1
    15     2     4    2
