MODEL 1
REMARK VINA RESULT:      -7.6      0.000      0.000
REMARK SMILES CC(=O)CCc1ccc2c(c1)OCO2
REMARK SMILES IDX 4 1 2 2 1 3 3 4 5 5 6 6 7 7 11 8 8 9 10 10 9 11 12 12 14 13
REMARK SMILES IDX 13 14
REMARK H PARENT
REMARK Flexibility Score: inf
ROOT
ATOM      1  C   UNL     1       5.556   1.896   1.290  1.00  0.00     0.080 C 
ENDROOT
BRANCH   1   2
ATOM      2  C   UNL     1       5.122   0.674   2.023  1.00  0.00     0.130 C 
ATOM      3  C   UNL     1       6.023  -0.498   2.190  1.00  0.00     0.087 C 
ATOM      4  O   UNL     1       4.006   0.599   2.511  1.00  0.00    -0.300 OA
ENDBRANCH   1   2
BRANCH   1   5
ATOM      5  C   UNL     1       5.421   1.716  -0.209  1.00  0.00     0.043 C 
BRANCH   5   6
ATOM      6  C   UNL     1       6.584   1.017  -0.783  1.00  0.00    -0.044 A 
ATOM      7  C   UNL     1       7.893   1.451  -0.540  1.00  0.00     0.008 A 
ATOM      8  C   UNL     1       6.392  -0.091  -1.576  1.00  0.00     0.054 A 
ATOM      9  C   UNL     1       8.946   0.755  -1.105  1.00  0.00     0.051 A 
ATOM     10  C   UNL     1       7.460  -0.792  -2.144  1.00  0.00     0.166 A 
ATOM     11  C   UNL     1       8.747  -0.365  -1.907  1.00  0.00     0.165 A 
ATOM     12  O   UNL     1       7.528  -1.904  -2.956  1.00  0.00    -0.454 OA
ATOM     13  O   UNL     1       9.589  -1.234  -2.584  1.00  0.00    -0.454 OA
ATOM     14  C   UNL     1       8.862  -2.277  -3.188  1.00  0.00     0.468 C 
ENDBRANCH   5   6
ENDBRANCH   1   5
TORSDOF 3
ENDMDL
MODEL 2
REMARK VINA RESULT:      -7.4      1.918      2.342
REMARK SMILES CC(=O)CCc1ccc2c(c1)OCO2
REMARK SMILES IDX 4 1 2 2 1 3 3 4 5 5 6 6 7 7 11 8 8 9 10 10 9 11 12 12 14 13
REMARK SMILES IDX 13 14
REMARK H PARENT
REMARK Flexibility Score: inf
ROOT
ATOM      1  C   UNL     1       5.774   1.447  -0.193  1.00  0.00     0.080 C 
ENDROOT
BRANCH   1   2
ATOM      2  C   UNL     1       5.066   1.275   1.106  1.00  0.00     0.130 C 
ATOM      3  C   UNL     1       5.334   0.112   1.994  1.00  0.00     0.087 C 
ATOM      4  O   UNL     1       4.238   2.089   1.481  1.00  0.00    -0.300 OA
ENDBRANCH   1   2
BRANCH   1   5
ATOM      5  C   UNL     1       7.251   1.137  -0.060  1.00  0.00     0.043 C 
BRANCH   5   6
ATOM      6  C   UNL     1       7.604  -0.135  -0.716  1.00  0.00    -0.044 A 
ATOM      7  C   UNL     1       7.639  -0.257  -2.109  1.00  0.00     0.008 A 
ATOM      8  C   UNL     1       7.911  -1.236   0.052  1.00  0.00     0.054 A 
ATOM      9  C   UNL     1       7.978  -1.475  -2.669  1.00  0.00     0.051 A 
ATOM     10  C   UNL     1       8.253  -2.466  -0.519  1.00  0.00     0.166 A 
ATOM     11  C   UNL     1       8.287  -2.587  -1.890  1.00  0.00     0.165 A 
ATOM     12  O   UNL     1       8.593  -3.689   0.019  1.00  0.00    -0.454 OA
ATOM     13  O   UNL     1       8.651  -3.894  -2.169  1.00  0.00    -0.454 OA
ATOM     14  C   UNL     1       8.943  -4.603  -0.988  1.00  0.00     0.468 C 
ENDBRANCH   5   6
ENDBRANCH   1   5
TORSDOF 3
ENDMDL
MODEL 3
REMARK VINA RESULT:      -7.2      2.082      2.641
REMARK SMILES CC(=O)CCc1ccc2c(c1)OCO2
REMARK SMILES IDX 4 1 2 2 1 3 3 4 5 5 6 6 7 7 11 8 8 9 10 10 9 11 12 12 14 13
REMARK SMILES IDX 13 14
REMARK H PARENT
REMARK Flexibility Score: inf
ROOT
ATOM      1  C   UNL     1       5.491  -0.036   1.949  1.00  0.00     0.080 C 
ENDROOT
BRANCH   1   2
ATOM      2  C   UNL     1       4.654   1.161   1.656  1.00  0.00     0.130 C 
ATOM      3  C   UNL     1       5.026   2.133   0.594  1.00  0.00     0.087 C 
ATOM      4  O   UNL     1       3.631   1.379   2.285  1.00  0.00    -0.300 OA
ENDBRANCH   1   2
BRANCH   1   5
ATOM      5  C   UNL     1       6.932   0.185   1.532  1.00  0.00     0.043 C 
BRANCH   5   6
ATOM      6  C   UNL     1       7.345  -0.757   0.475  1.00  0.00    -0.044 A 
ATOM      7  C   UNL     1       7.217  -0.438  -0.881  1.00  0.00     0.008 A 
ATOM      8  C   UNL     1       7.873  -1.980   0.820  1.00  0.00     0.054 A 
ATOM      9  C   UNL     1       7.623  -1.361  -1.829  1.00  0.00     0.051 A 
ATOM     10  C   UNL     1       8.282  -2.909  -0.141  1.00  0.00     0.166 A 
ATOM     11  C   UNL     1       8.156  -2.597  -1.476  1.00  0.00     0.165 A 
ATOM     12  O   UNL     1       8.828  -4.172  -0.055  1.00  0.00    -0.454 OA
ATOM     13  O   UNL     1       8.633  -3.685  -2.190  1.00  0.00    -0.454 OA
ATOM     14  C   UNL     1       9.153  -4.669  -1.328  1.00  0.00     0.468 C 
ENDBRANCH   5   6
ENDBRANCH   1   5
TORSDOF 3
ENDMDL
MODEL 4
REMARK VINA RESULT:      -7.1      1.253      1.467
REMARK SMILES CC(=O)CCc1ccc2c(c1)OCO2
REMARK SMILES IDX 4 1 2 2 1 3 3 4 5 5 6 6 7 7 11 8 8 9 10 10 9 11 12 12 14 13
REMARK SMILES IDX 13 14
REMARK H PARENT
REMARK Flexibility Score: inf
ROOT
ATOM      1  C   UNL     1       6.412   1.194   0.938  1.00  0.00     0.080 C 
ENDROOT
BRANCH   1   2
ATOM      2  C   UNL     1       5.678   0.357   1.928  1.00  0.00     0.130 C 
ATOM      3  C   UNL     1       6.272  -0.883   2.495  1.00  0.00     0.087 C 
ATOM      4  O   UNL     1       4.559   0.668   2.304  1.00  0.00    -0.300 OA
ENDBRANCH   1   2
BRANCH   1   5
ATOM      5  C   UNL     1       5.907   0.951  -0.470  1.00  0.00     0.043 C 
BRANCH   5   6
ATOM      6  C   UNL     1       6.837   0.113  -1.247  1.00  0.00    -0.044 A 
ATOM      7  C   UNL     1       7.514   0.612  -2.366  1.00  0.00     0.008 A 
ATOM      8  C   UNL     1       7.055  -1.193  -0.871  1.00  0.00     0.054 A 
ATOM      9  C   UNL     1       8.376  -0.221  -3.056  1.00  0.00     0.051 A 
ATOM     10  C   UNL     1       7.928  -2.031  -1.572  1.00  0.00     0.166 A 
ATOM     11  C   UNL     1       8.593  -1.541  -2.673  1.00  0.00     0.165 A 
ATOM     12  O   UNL     1       8.308  -3.345  -1.402  1.00  0.00    -0.454 OA
ATOM     13  O   UNL     1       9.377  -2.575  -3.161  1.00  0.00    -0.454 OA
ATOM     14  C   UNL     1       9.296  -3.709  -2.331  1.00  0.00     0.468 C 
ENDBRANCH   5   6
ENDBRANCH   1   5
TORSDOF 3
ENDMDL
MODEL 5
REMARK VINA RESULT:      -6.9      2.011      2.655
REMARK SMILES CC(=O)CCc1ccc2c(c1)OCO2
REMARK SMILES IDX 4 1 2 2 1 3 3 4 5 5 6 6 7 7 11 8 8 9 10 10 9 11 12 12 14 13
REMARK SMILES IDX 13 14
REMARK H PARENT
REMARK Flexibility Score: inf
ROOT
ATOM      1  C   UNL     1       6.688   0.476   1.078  1.00  0.00     0.080 C 
ENDROOT
BRANCH   1   2
ATOM      2  C   UNL     1       5.361   1.047   1.442  1.00  0.00     0.130 C 
ATOM      3  C   UNL     1       4.744   2.148   0.656  1.00  0.00     0.087 C 
ATOM      4  O   UNL     1       4.739   0.625   2.403  1.00  0.00    -0.300 OA
ENDBRANCH   1   2
BRANCH   1   5
ATOM      5  C   UNL     1       6.961   0.619  -0.406  1.00  0.00     0.043 C 
BRANCH   5   6
ATOM      6  C   UNL     1       7.513  -0.620  -0.982  1.00  0.00    -0.044 A 
ATOM      7  C   UNL     1       7.754  -0.746  -2.355  1.00  0.00     0.008 A 
ATOM      8  C   UNL     1       7.804  -1.684  -0.160  1.00  0.00     0.054 A 
ATOM      9  C   UNL     1       8.274  -1.932  -2.839  1.00  0.00     0.051 A 
ATOM     10  C   UNL     1       8.330  -2.881  -0.654  1.00  0.00     0.166 A 
ATOM     11  C   UNL     1       8.567  -3.007  -2.005  1.00  0.00     0.165 A 
ATOM     12  O   UNL     1       8.697  -4.066  -0.051  1.00  0.00    -0.454 OA
ATOM     13  O   UNL     1       9.080  -4.278  -2.206  1.00  0.00    -0.454 OA
ATOM     14  C   UNL     1       9.265  -4.951  -0.983  1.00  0.00     0.468 C 
ENDBRANCH   5   6
ENDBRANCH   1   5
TORSDOF 3
ENDMDL
