@<TRIPOS>MOLECULE
/home/cewinharhar/GITHUB/reincatalyze/data/processed/docking_pred/2023-May-23-1437_sub9_nm5_bs15_s42_ex16_mel10_mts10000_k50_ec02_g099_lra3e-4_lrc1e-3/54a2e3ceee1b2a6ac8591f20fd198e2f201bb612_ligand_9.pdbqt
 14 15 0 0 0
SMALL
GASTEIGER

@<TRIPOS>ATOM
      1  C          5.5640    1.9010    1.2940 C.3     1  UNL1        0.0800
      2  C          5.1150    0.6840    2.0250 C.2     1  UNL1        0.1300
      3  C          6.0040   -0.4970    2.1960 C.3     1  UNL1        0.0870
      4  O          3.9960    0.6200    2.5080 O.2     1  UNL1       -0.3000
      5  C          5.4270    1.7240   -0.2060 C.3     1  UNL1        0.0430
      6  C          6.5890    1.0230   -0.7810 C.2     1  UNL1       -0.0440
      7  C          7.8980    1.4560   -0.5450 C.2     1  UNL1        0.0080
      8  C          6.3930   -0.0880   -1.5690 C.2     1  UNL1        0.0540
      9  C          8.9490    0.7580   -1.1100 C.2     1  UNL1        0.0510
     10  C          7.4580   -0.7920   -2.1380 C.2     1  UNL1        0.1660
     11  C          8.7470   -0.3650   -1.9070 C.2     1  UNL1        0.1650
     12  O          7.5230   -1.9070   -2.9460 O.2     1  UNL1       -0.4540
     13  O          9.5860   -1.2370   -2.5840 O.2     1  UNL1       -0.4540
     14  C          8.8560   -2.2830   -3.1810 C.3     1  UNL1        0.4680
@<TRIPOS>BOND
     1    14    12    1
     2    14    13    1
     3    12    10    1
     4    13    11    1
     5    10    11    2
     6    10     8    1
     7    11     9    1
     8     8     6    2
     9     9     7    2
    10     6     7    1
    11     6     5    1
    12     5     1    1
    13     1     2    1
    14     2     3    1
    15     2     4    2
