@<TRIPOS>MOLECULE
/home/cewinharhar/GITHUB/reincatalyze/data/processed/docking_pred/2023-May-23-1437_sub9_nm5_bs15_s42_ex16_mel10_mts10000_k50_ec02_g099_lra3e-4_lrc1e-3/54a2e3ceee1b2a6ac8591f20fd198e2f201bb612_ligand_9.pdbqt
 14 15 0 0 0
SMALL
GASTEIGER

@<TRIPOS>ATOM
      1  C          6.3690    1.2250    0.9470 C.3     1  UNL1        0.0800
      2  C          5.6520    0.3740    1.9370 C.2     1  UNL1        0.1300
      3  C          6.2720   -0.8530    2.5060 C.3     1  UNL1        0.0870
      4  O          4.5260    0.6600    2.3110 O.2     1  UNL1       -0.3000
      5  C          5.8680    0.9720   -0.4610 C.3     1  UNL1        0.0430
      6  C          6.8080    0.1410   -1.2340 C.2     1  UNL1       -0.0440
      7  C          7.4980    0.6490   -2.3410 C.2     1  UNL1        0.0080
      8  C          7.0230   -1.1680   -0.8660 C.2     1  UNL1        0.0540
      9  C          8.3680   -0.1780   -3.0270 C.2     1  UNL1        0.0510
     10  C          7.9040   -2.0000   -1.5630 C.2     1  UNL1        0.1660
     11  C          8.5820   -1.5010   -2.6530 C.2     1  UNL1        0.1650
     12  O          8.2830   -3.3160   -1.3990 O.2     1  UNL1       -0.4540
     13  O          9.3720   -2.5300   -3.1400 O.2     1  UNL1       -0.4540
     14  C          9.2820   -3.6710   -2.3200 C.3     1  UNL1        0.4680
@<TRIPOS>BOND
     1    13    11    1
     2    13    14    1
     3     9    11    2
     4     9     7    1
     5    11    10    1
     6     7     6    2
     7    14    12    1
     8    10    12    1
     9    10     8    2
    10     6     8    1
    11     6     5    1
    12     5     1    1
    13     1     2    1
    14     2     4    2
    15     2     3    1
