MODEL 1
REMARK VINA RESULT:      -7.6      0.000      0.000
REMARK SMILES CC(=O)CCc1ccc2c(c1)OCO2
REMARK SMILES IDX 4 1 2 2 1 3 3 4 5 5 6 6 7 7 11 8 8 9 10 10 9 11 12 12 14 13
REMARK SMILES IDX 13 14
REMARK H PARENT
REMARK Flexibility Score: inf
ROOT
ATOM      1  C   UNL     1       5.535   1.920   1.269  1.00  0.00     0.080 C 
ENDROOT
BRANCH   1   2
ATOM      2  C   UNL     1       5.096   0.701   2.004  1.00  0.00     0.130 C 
ATOM      3  C   UNL     1       5.997  -0.469   2.183  1.00  0.00     0.087 C 
ATOM      4  O   UNL     1       3.976   0.627   2.482  1.00  0.00    -0.300 OA
ENDBRANCH   1   2
BRANCH   1   5
ATOM      5  C   UNL     1       5.407   1.736  -0.230  1.00  0.00     0.043 C 
BRANCH   5   6
ATOM      6  C   UNL     1       6.573   1.034  -0.796  1.00  0.00    -0.044 A 
ATOM      7  C   UNL     1       7.880   1.471  -0.553  1.00  0.00     0.008 A 
ATOM      8  C   UNL     1       6.384  -0.080  -1.581  1.00  0.00     0.054 A 
ATOM      9  C   UNL     1       8.936   0.773  -1.110  1.00  0.00     0.051 A 
ATOM     10  C   UNL     1       7.454  -0.783  -2.142  1.00  0.00     0.166 A 
ATOM     11  C   UNL     1       8.741  -0.353  -1.905  1.00  0.00     0.165 A 
ATOM     12  O   UNL     1       7.526  -1.901  -2.945  1.00  0.00    -0.454 OA
ATOM     13  O   UNL     1       9.585  -1.226  -2.573  1.00  0.00    -0.454 OA
ATOM     14  C   UNL     1       8.861  -2.275  -3.171  1.00  0.00     0.468 C 
ENDBRANCH   5   6
ENDBRANCH   1   5
TORSDOF 3
ENDMDL
MODEL 2
REMARK VINA RESULT:      -7.5      1.919      2.371
REMARK SMILES CC(=O)CCc1ccc2c(c1)OCO2
REMARK SMILES IDX 4 1 2 2 1 3 3 4 5 5 6 6 7 7 11 8 8 9 10 10 9 11 12 12 14 13
REMARK SMILES IDX 13 14
REMARK H PARENT
REMARK Flexibility Score: inf
ROOT
ATOM      1  C   UNL     1       5.732   1.396  -0.272  1.00  0.00     0.080 C 
ENDROOT
BRANCH   1   2
ATOM      2  C   UNL     1       5.109   1.283   1.076  1.00  0.00     0.130 C 
ATOM      3  C   UNL     1       5.416   0.146   1.985  1.00  0.00     0.087 C 
ATOM      4  O   UNL     1       4.324   2.127   1.477  1.00  0.00    -0.300 OA
ENDBRANCH   1   2
BRANCH   1   5
ATOM      5  C   UNL     1       7.226   1.145  -0.212  1.00  0.00     0.043 C 
BRANCH   5   6
ATOM      6  C   UNL     1       7.587  -0.147  -0.821  1.00  0.00    -0.044 A 
ATOM      7  C   UNL     1       7.625  -0.318  -2.210  1.00  0.00     0.008 A 
ATOM      8  C   UNL     1       7.900  -1.218  -0.015  1.00  0.00     0.054 A 
ATOM      9  C   UNL     1       7.972  -1.554  -2.725  1.00  0.00     0.051 A 
ATOM     10  C   UNL     1       8.251  -2.465  -0.540  1.00  0.00     0.166 A 
ATOM     11  C   UNL     1       8.287  -2.634  -1.907  1.00  0.00     0.165 A 
ATOM     12  O   UNL     1       8.598  -3.666   0.041  1.00  0.00    -0.454 OA
ATOM     13  O   UNL     1       8.661  -3.949  -2.138  1.00  0.00    -0.454 OA
ATOM     14  C   UNL     1       8.956  -4.613  -0.932  1.00  0.00     0.468 C 
ENDBRANCH   5   6
ENDBRANCH   1   5
TORSDOF 3
ENDMDL
MODEL 3
REMARK VINA RESULT:      -7.1      2.095      2.653
REMARK SMILES CC(=O)CCc1ccc2c(c1)OCO2
REMARK SMILES IDX 4 1 2 2 1 3 3 4 5 5 6 6 7 7 11 8 8 9 10 10 9 11 12 12 14 13
REMARK SMILES IDX 13 14
REMARK H PARENT
REMARK Flexibility Score: inf
ROOT
ATOM      1  C   UNL     1       5.605  -0.054   1.998  1.00  0.00     0.080 C 
ENDROOT
BRANCH   1   2
ATOM      2  C   UNL     1       4.704   1.096   1.704  1.00  0.00     0.130 C 
ATOM      3  C   UNL     1       5.025   2.088   0.644  1.00  0.00     0.087 C 
ATOM      4  O   UNL     1       3.669   1.257   2.330  1.00  0.00    -0.300 OA
ENDBRANCH   1   2
BRANCH   1   5
ATOM      5  C   UNL     1       7.010   0.206   1.494  1.00  0.00     0.043 C 
BRANCH   5   6
ATOM      6  C   UNL     1       7.401  -0.755   0.447  1.00  0.00    -0.044 A 
ATOM      7  C   UNL     1       7.264  -0.454  -0.913  1.00  0.00     0.008 A 
ATOM      8  C   UNL     1       7.917  -1.980   0.804  1.00  0.00     0.054 A 
ATOM      9  C   UNL     1       7.648  -1.395  -1.850  1.00  0.00     0.051 A 
ATOM     10  C   UNL     1       8.305  -2.928  -0.148  1.00  0.00     0.166 A 
ATOM     11  C   UNL     1       8.169  -2.633  -1.486  1.00  0.00     0.165 A 
ATOM     12  O   UNL     1       8.836  -4.196  -0.049  1.00  0.00    -0.454 OA
ATOM     13  O   UNL     1       8.625  -3.738  -2.188  1.00  0.00    -0.454 OA
ATOM     14  C   UNL     1       9.142  -4.716  -1.317  1.00  0.00     0.468 C 
ENDBRANCH   5   6
ENDBRANCH   1   5
TORSDOF 3
ENDMDL
MODEL 4
REMARK VINA RESULT:      -7.1      1.249      1.450
REMARK SMILES CC(=O)CCc1ccc2c(c1)OCO2
REMARK SMILES IDX 4 1 2 2 1 3 3 4 5 5 6 6 7 7 11 8 8 9 10 10 9 11 12 12 14 13
REMARK SMILES IDX 13 14
REMARK H PARENT
REMARK Flexibility Score: inf
ROOT
ATOM      1  C   UNL     1       6.379   1.176   0.972  1.00  0.00     0.080 C 
ENDROOT
BRANCH   1   2
ATOM      2  C   UNL     1       5.655   0.338   1.969  1.00  0.00     0.130 C 
ATOM      3  C   UNL     1       6.262  -0.892   2.543  1.00  0.00     0.087 C 
ATOM      4  O   UNL     1       4.534   0.640   2.345  1.00  0.00    -0.300 OA
ENDBRANCH   1   2
BRANCH   1   5
ATOM      5  C   UNL     1       5.871   0.922  -0.433  1.00  0.00     0.043 C 
BRANCH   5   6
ATOM      6  C   UNL     1       6.817   0.107  -1.217  1.00  0.00    -0.044 A 
ATOM      7  C   UNL     1       7.499   0.634  -2.319  1.00  0.00     0.008 A 
ATOM      8  C   UNL     1       7.044  -1.204  -0.863  1.00  0.00     0.054 A 
ATOM      9  C   UNL     1       8.376  -0.178  -3.016  1.00  0.00     0.051 A 
ATOM     10  C   UNL     1       7.932  -2.020  -1.571  1.00  0.00     0.166 A 
ATOM     11  C   UNL     1       8.603  -1.503  -2.656  1.00  0.00     0.165 A 
ATOM     12  O   UNL     1       8.323  -3.333  -1.421  1.00  0.00    -0.454 OA
ATOM     13  O   UNL     1       9.401  -2.519  -3.156  1.00  0.00    -0.454 OA
ATOM     14  C   UNL     1       9.323  -3.670  -2.348  1.00  0.00     0.468 C 
ENDBRANCH   5   6
ENDBRANCH   1   5
TORSDOF 3
ENDMDL
MODEL 5
REMARK VINA RESULT:      -6.8      1.264      1.753
REMARK SMILES CC(=O)CCc1ccc2c(c1)OCO2
REMARK SMILES IDX 4 1 2 2 1 3 3 4 5 5 6 6 7 7 11 8 8 9 10 10 9 11 12 12 14 13
REMARK SMILES IDX 13 14
REMARK H PARENT
REMARK Flexibility Score: inf
ROOT
ATOM      1  C   UNL     1       5.335  -0.070   1.974  1.00  0.00     0.080 C 
ENDROOT
BRANCH   1   2
ATOM      2  C   UNL     1       4.446   1.112   1.791  1.00  0.00     0.130 C 
ATOM      3  C   UNL     1       4.721   2.143   0.756  1.00  0.00     0.087 C 
ATOM      4  O   UNL     1       3.459   1.268   2.492  1.00  0.00    -0.300 OA
ENDBRANCH   1   2
BRANCH   1   5
ATOM      5  C   UNL     1       6.796   0.325   1.904  1.00  0.00     0.043 C 
BRANCH   5   6
ATOM      6  C   UNL     1       7.398  -0.035   0.608  1.00  0.00    -0.044 A 
ATOM      7  C   UNL     1       7.895   0.939  -0.266  1.00  0.00     0.008 A 
ATOM      8  C   UNL     1       7.481  -1.358   0.239  1.00  0.00     0.054 A 
ATOM      9  C   UNL     1       8.450   0.541  -1.468  1.00  0.00     0.051 A 
ATOM     10  C   UNL     1       8.044  -1.755  -0.978  1.00  0.00     0.166 A 
ATOM     11  C   UNL     1       8.532  -0.798  -1.839  1.00  0.00     0.165 A 
ATOM     12  O   UNL     1       8.238  -2.987  -1.566  1.00  0.00    -0.454 OA
ATOM     13  O   UNL     1       9.022  -1.468  -2.948  1.00  0.00    -0.454 OA
ATOM     14  C   UNL     1       8.939  -2.863  -2.777  1.00  0.00     0.468 C 
ENDBRANCH   5   6
ENDBRANCH   1   5
TORSDOF 3
ENDMDL
