@<TRIPOS>MOLECULE
/home/cewinharhar/GITHUB/reincatalyze/data/processed/docking_pred/2023-May-23-1437_sub9_nm5_bs15_s42_ex16_mel10_mts10000_k50_ec02_g099_lra3e-4_lrc1e-3/551e6d8a024554ec32308953f7464105b503c37a_ligand_9.pdbqt
 14 15 0 0 0
SMALL
GASTEIGER

@<TRIPOS>ATOM
      1  C          5.5350    1.9200    1.2690 C.3     1  UNL1        0.0800
      2  C          5.0960    0.7010    2.0040 C.2     1  UNL1        0.1300
      3  C          5.9970   -0.4690    2.1830 C.3     1  UNL1        0.0870
      4  O          3.9760    0.6270    2.4820 O.2     1  UNL1       -0.3000
      5  C          5.4070    1.7360   -0.2300 C.3     1  UNL1        0.0430
      6  C          6.5730    1.0340   -0.7960 C.2     1  UNL1       -0.0440
      7  C          7.8800    1.4710   -0.5530 C.2     1  UNL1        0.0080
      8  C          6.3840   -0.0800   -1.5810 C.2     1  UNL1        0.0540
      9  C          8.9360    0.7730   -1.1100 C.2     1  UNL1        0.0510
     10  C          7.4540   -0.7830   -2.1420 C.2     1  UNL1        0.1660
     11  C          8.7410   -0.3530   -1.9050 C.2     1  UNL1        0.1650
     12  O          7.5260   -1.9010   -2.9450 O.2     1  UNL1       -0.4540
     13  O          9.5850   -1.2260   -2.5730 O.2     1  UNL1       -0.4540
     14  C          8.8610   -2.2750   -3.1710 C.3     1  UNL1        0.4680
@<TRIPOS>BOND
     1    14    12    1
     2    14    13    1
     3    12    10    1
     4    13    11    1
     5    10    11    2
     6    10     8    1
     7    11     9    1
     8     8     6    2
     9     9     7    2
    10     6     7    1
    11     6     5    1
    12     5     1    1
    13     1     2    1
    14     2     3    1
    15     2     4    2
