@<TRIPOS>MOLECULE
/home/cewinharhar/GITHUB/reincatalyze/data/processed/docking_pred/2023-May-23-1437_sub9_nm5_bs15_s42_ex16_mel10_mts10000_k50_ec02_g099_lra3e-4_lrc1e-3/551e6d8a024554ec32308953f7464105b503c37a_ligand_9.pdbqt
 14 15 0 0 0
SMALL
GASTEIGER

@<TRIPOS>ATOM
      1  C          5.7320    1.3960   -0.2720 C.3     1  UNL1        0.0800
      2  C          5.1090    1.2830    1.0760 C.2     1  UNL1        0.1300
      3  C          5.4160    0.1460    1.9850 C.3     1  UNL1        0.0870
      4  O          4.3240    2.1270    1.4770 O.2     1  UNL1       -0.3000
      5  C          7.2260    1.1450   -0.2120 C.3     1  UNL1        0.0430
      6  C          7.5870   -0.1470   -0.8210 C.2     1  UNL1       -0.0440
      7  C          7.6250   -0.3180   -2.2100 C.2     1  UNL1        0.0080
      8  C          7.9000   -1.2180   -0.0150 C.2     1  UNL1        0.0540
      9  C          7.9720   -1.5540   -2.7250 C.2     1  UNL1        0.0510
     10  C          8.2510   -2.4650   -0.5400 C.2     1  UNL1        0.1660
     11  C          8.2870   -2.6340   -1.9070 C.2     1  UNL1        0.1650
     12  O          8.5980   -3.6660    0.0410 O.2     1  UNL1       -0.4540
     13  O          8.6610   -3.9490   -2.1380 O.2     1  UNL1       -0.4540
     14  C          8.9560   -4.6130   -0.9320 C.3     1  UNL1        0.4680
@<TRIPOS>BOND
     1     9     7    1
     2     9    11    2
     3     7     6    2
     4    13    11    1
     5    13    14    1
     6    11    10    1
     7    14    12    1
     8     6     5    1
     9     6     8    1
    10    10     8    2
    11    10    12    1
    12     1     5    1
    13     1     2    1
    14     2     4    2
    15     2     3    1
