MODEL 1
REMARK VINA RESULT:      -7.7      0.000      0.000
REMARK SMILES CC(=O)CCc1ccc2c(c1)OCO2
REMARK SMILES IDX 4 1 2 2 1 3 3 4 5 5 6 6 7 7 11 8 8 9 10 10 9 11 12 12 14 13
REMARK SMILES IDX 13 14
REMARK H PARENT
REMARK Flexibility Score: inf
ROOT
ATOM      1  C   UNL     1       5.500   1.913   1.246  1.00  0.00     0.080 C 
ENDROOT
BRANCH   1   2
ATOM      2  C   UNL     1       5.051   0.707   1.996  1.00  0.00     0.130 C 
ATOM      3  C   UNL     1       5.921  -0.490   2.144  1.00  0.00     0.087 C 
ATOM      4  O   UNL     1       3.948   0.667   2.516  1.00  0.00    -0.300 OA
ENDBRANCH   1   2
BRANCH   1   5
ATOM      5  C   UNL     1       5.374   1.708  -0.251  1.00  0.00     0.043 C 
BRANCH   5   6
ATOM      6  C   UNL     1       6.551   1.017  -0.809  1.00  0.00    -0.044 A 
ATOM      7  C   UNL     1       7.852   1.470  -0.564  1.00  0.00     0.008 A 
ATOM      8  C   UNL     1       6.377  -0.105  -1.588  1.00  0.00     0.054 A 
ATOM      9  C   UNL     1       8.917   0.781  -1.113  1.00  0.00     0.051 A 
ATOM     10  C   UNL     1       7.458  -0.799  -2.140  1.00  0.00     0.166 A 
ATOM     11  C   UNL     1       8.738  -0.352  -1.901  1.00  0.00     0.165 A 
ATOM     12  O   UNL     1       7.546  -1.921  -2.937  1.00  0.00    -0.454 OA
ATOM     13  O   UNL     1       9.595  -1.219  -2.562  1.00  0.00    -0.454 OA
ATOM     14  C   UNL     1       8.886  -2.280  -3.156  1.00  0.00     0.468 C 
ENDBRANCH   5   6
ENDBRANCH   1   5
TORSDOF 3
ENDMDL
MODEL 2
REMARK VINA RESULT:      -7.4      1.920      2.407
REMARK SMILES CC(=O)CCc1ccc2c(c1)OCO2
REMARK SMILES IDX 4 1 2 2 1 3 3 4 5 5 6 6 7 7 11 8 8 9 10 10 9 11 12 12 14 13
REMARK SMILES IDX 13 14
REMARK H PARENT
REMARK Flexibility Score: inf
ROOT
ATOM      1  C   UNL     1       5.739   1.327  -0.318  1.00  0.00     0.080 C 
ENDROOT
BRANCH   1   2
ATOM      2  C   UNL     1       5.112   1.279   1.033  1.00  0.00     0.130 C 
ATOM      3  C   UNL     1       5.402   0.177   1.989  1.00  0.00     0.087 C 
ATOM      4  O   UNL     1       4.337   2.149   1.395  1.00  0.00    -0.300 OA
ENDBRANCH   1   2
BRANCH   1   5
ATOM      5  C   UNL     1       7.230   1.062  -0.243  1.00  0.00     0.043 C 
BRANCH   5   6
ATOM      6  C   UNL     1       7.587  -0.228  -0.859  1.00  0.00    -0.044 A 
ATOM      7  C   UNL     1       7.618  -0.393  -2.249  1.00  0.00     0.008 A 
ATOM      8  C   UNL     1       7.902  -1.303  -0.059  1.00  0.00     0.054 A 
ATOM      9  C   UNL     1       7.961  -1.627  -2.770  1.00  0.00     0.051 A 
ATOM     10  C   UNL     1       8.249  -2.548  -0.591  1.00  0.00     0.166 A 
ATOM     11  C   UNL     1       8.278  -2.711  -1.958  1.00  0.00     0.165 A 
ATOM     12  O   UNL     1       8.597  -3.752  -0.016  1.00  0.00    -0.454 OA
ATOM     13  O   UNL     1       8.649  -4.026  -2.197  1.00  0.00    -0.454 OA
ATOM     14  C   UNL     1       8.948  -4.695  -0.995  1.00  0.00     0.468 C 
ENDBRANCH   5   6
ENDBRANCH   1   5
TORSDOF 3
ENDMDL
MODEL 3
REMARK VINA RESULT:      -7.2      2.044      2.610
REMARK SMILES CC(=O)CCc1ccc2c(c1)OCO2
REMARK SMILES IDX 4 1 2 2 1 3 3 4 5 5 6 6 7 7 11 8 8 9 10 10 9 11 12 12 14 13
REMARK SMILES IDX 13 14
REMARK H PARENT
REMARK Flexibility Score: inf
ROOT
ATOM      1  C   UNL     1       5.447  -0.029   2.016  1.00  0.00     0.080 C 
ENDROOT
BRANCH   1   2
ATOM      2  C   UNL     1       4.574   1.153   1.771  1.00  0.00     0.130 C 
ATOM      3  C   UNL     1       4.886   2.148   0.710  1.00  0.00     0.087 C 
ATOM      4  O   UNL     1       3.571   1.341   2.441  1.00  0.00    -0.300 OA
ENDBRANCH   1   2
BRANCH   1   5
ATOM      5  C   UNL     1       6.870   0.235   1.566  1.00  0.00     0.043 C 
BRANCH   5   6
ATOM      6  C   UNL     1       7.292  -0.702   0.509  1.00  0.00    -0.044 A 
ATOM      7  C   UNL     1       7.165  -0.382  -0.848  1.00  0.00     0.008 A 
ATOM      8  C   UNL     1       7.827  -1.922   0.854  1.00  0.00     0.054 A 
ATOM      9  C   UNL     1       7.579  -1.301  -1.795  1.00  0.00     0.051 A 
ATOM     10  C   UNL     1       8.244  -2.847  -0.108  1.00  0.00     0.166 A 
ATOM     11  C   UNL     1       8.119  -2.534  -1.443  1.00  0.00     0.165 A 
ATOM     12  O   UNL     1       8.798  -4.107  -0.022  1.00  0.00    -0.454 OA
ATOM     13  O   UNL     1       8.604  -3.619  -2.157  1.00  0.00    -0.454 OA
ATOM     14  C   UNL     1       9.128  -4.601  -1.295  1.00  0.00     0.468 C 
ENDBRANCH   5   6
ENDBRANCH   1   5
TORSDOF 3
ENDMDL
MODEL 4
REMARK VINA RESULT:      -7.1      1.254      1.467
REMARK SMILES CC(=O)CCc1ccc2c(c1)OCO2
REMARK SMILES IDX 4 1 2 2 1 3 3 4 5 5 6 6 7 7 11 8 8 9 10 10 9 11 12 12 14 13
REMARK SMILES IDX 13 14
REMARK H PARENT
REMARK Flexibility Score: inf
ROOT
ATOM      1  C   UNL     1       6.376   1.181   0.923  1.00  0.00     0.080 C 
ENDROOT
BRANCH   1   2
ATOM      2  C   UNL     1       5.659   0.373   1.949  1.00  0.00     0.130 C 
ATOM      3  C   UNL     1       6.255  -0.862   2.527  1.00  0.00     0.087 C 
ATOM      4  O   UNL     1       4.554   0.703   2.347  1.00  0.00    -0.300 OA
ENDBRANCH   1   2
BRANCH   1   5
ATOM      5  C   UNL     1       5.860   0.883  -0.470  1.00  0.00     0.043 C 
BRANCH   5   6
ATOM      6  C   UNL     1       6.815   0.072  -1.246  1.00  0.00    -0.044 A 
ATOM      7  C   UNL     1       7.501   0.599  -2.346  1.00  0.00     0.008 A 
ATOM      8  C   UNL     1       7.048  -1.236  -0.886  1.00  0.00     0.054 A 
ATOM      9  C   UNL     1       8.386  -0.210  -3.035  1.00  0.00     0.051 A 
ATOM     10  C   UNL     1       7.945  -2.049  -1.586  1.00  0.00     0.166 A 
ATOM     11  C   UNL     1       8.619  -1.532  -2.669  1.00  0.00     0.165 A 
ATOM     12  O   UNL     1       8.343  -3.360  -1.429  1.00  0.00    -0.454 OA
ATOM     13  O   UNL     1       9.427  -2.546  -3.160  1.00  0.00    -0.454 OA
ATOM     14  C   UNL     1       9.351  -3.694  -2.349  1.00  0.00     0.468 C 
ENDBRANCH   5   6
ENDBRANCH   1   5
TORSDOF 3
ENDMDL
MODEL 5
REMARK VINA RESULT:      -6.9      1.942      2.483
REMARK SMILES CC(=O)CCc1ccc2c(c1)OCO2
REMARK SMILES IDX 4 1 2 2 1 3 3 4 5 5 6 6 7 7 11 8 8 9 10 10 9 11 12 12 14 13
REMARK SMILES IDX 13 14
REMARK H PARENT
REMARK Flexibility Score: inf
ROOT
ATOM      1  C   UNL     1       6.978   1.118   1.188  1.00  0.00     0.080 C 
ENDROOT
BRANCH   1   2
ATOM      2  C   UNL     1       5.504   1.189   1.386  1.00  0.00     0.130 C 
ATOM      3  C   UNL     1       4.659   2.149   0.627  1.00  0.00     0.087 C 
ATOM      4  O   UNL     1       4.943   0.455   2.183  1.00  0.00    -0.300 OA
ENDBRANCH   1   2
BRANCH   1   5
ATOM      5  C   UNL     1       7.342   1.224  -0.280  1.00  0.00     0.043 C 
BRANCH   5   6
ATOM      6  C   UNL     1       7.685  -0.089  -0.854  1.00  0.00    -0.044 A 
ATOM      7  C   UNL     1       7.783  -0.282  -2.237  1.00  0.00     0.008 A 
ATOM      8  C   UNL     1       7.920  -1.158  -0.019  1.00  0.00     0.054 A 
ATOM      9  C   UNL     1       8.109  -1.537  -2.718  1.00  0.00     0.051 A 
ATOM     10  C   UNL     1       8.250  -2.425  -0.511  1.00  0.00     0.166 A 
ATOM     11  C   UNL     1       8.345  -2.616  -1.871  1.00  0.00     0.165 A 
ATOM     12  O   UNL     1       8.525  -3.629   0.103  1.00  0.00    -0.454 OA
ATOM     13  O   UNL     1       8.681  -3.946  -2.067  1.00  0.00    -0.454 OA
ATOM     14  C   UNL     1       8.894  -4.603  -0.839  1.00  0.00     0.468 C 
ENDBRANCH   5   6
ENDBRANCH   1   5
TORSDOF 3
ENDMDL
