@<TRIPOS>MOLECULE
/home/cewinharhar/GITHUB/reincatalyze/data/processed/docking_pred/2023-May-23-1437_sub9_nm5_bs15_s42_ex16_mel10_mts10000_k50_ec02_g099_lra3e-4_lrc1e-3/55f9a48c22e019202c812c896c561d7470c53219_ligand_9.pdbqt
 14 15 0 0 0
SMALL
GASTEIGER

@<TRIPOS>ATOM
      1  C          6.9780    1.1180    1.1880 C.3     1  UNL1        0.0800
      2  C          5.5040    1.1890    1.3860 C.2     1  UNL1        0.1300
      3  C          4.6590    2.1490    0.6270 C.3     1  UNL1        0.0870
      4  O          4.9430    0.4550    2.1830 O.2     1  UNL1       -0.3000
      5  C          7.3420    1.2240   -0.2800 C.3     1  UNL1        0.0430
      6  C          7.6850   -0.0890   -0.8540 C.2     1  UNL1       -0.0440
      7  C          7.7830   -0.2820   -2.2370 C.2     1  UNL1        0.0080
      8  C          7.9200   -1.1580   -0.0190 C.2     1  UNL1        0.0540
      9  C          8.1090   -1.5370   -2.7180 C.2     1  UNL1        0.0510
     10  C          8.2500   -2.4250   -0.5110 C.2     1  UNL1        0.1660
     11  C          8.3450   -2.6160   -1.8710 C.2     1  UNL1        0.1650
     12  O          8.5250   -3.6290    0.1030 O.2     1  UNL1       -0.4540
     13  O          8.6810   -3.9460   -2.0670 O.2     1  UNL1       -0.4540
     14  C          8.8940   -4.6030   -0.8390 C.3     1  UNL1        0.4680
@<TRIPOS>BOND
     1     9     7    1
     2     9    11    2
     3     7     6    2
     4    13    11    1
     5    13    14    1
     6    11    10    1
     7     6     5    1
     8     6     8    1
     9    14    12    1
    10    10     8    2
    11    10    12    1
    12     5     1    1
    13     3     2    1
    14     1     2    1
    15     2     4    2
