MODEL 1
REMARK VINA RESULT:      -7.7      0.000      0.000
REMARK SMILES CC(=O)CCc1ccc2c(c1)OCO2
REMARK SMILES IDX 4 1 2 2 1 3 3 4 5 5 6 6 7 7 11 8 8 9 10 10 9 11 12 12 14 13
REMARK SMILES IDX 13 14
REMARK H PARENT
REMARK Flexibility Score: inf
ROOT
ATOM      1  C   UNL     1       5.512   1.914   1.269  1.00  0.00     0.080 C 
ENDROOT
BRANCH   1   2
ATOM      2  C   UNL     1       5.064   0.699   2.005  1.00  0.00     0.130 C 
ATOM      3  C   UNL     1       5.944  -0.489   2.160  1.00  0.00     0.087 C 
ATOM      4  O   UNL     1       3.952   0.645   2.505  1.00  0.00    -0.300 OA
ENDBRANCH   1   2
BRANCH   1   5
ATOM      5  C   UNL     1       5.386   1.728  -0.230  1.00  0.00     0.043 C 
BRANCH   5   6
ATOM      6  C   UNL     1       6.555   1.029  -0.794  1.00  0.00    -0.044 A 
ATOM      7  C   UNL     1       7.861   1.468  -0.548  1.00  0.00     0.008 A 
ATOM      8  C   UNL     1       6.369  -0.086  -1.580  1.00  0.00     0.054 A 
ATOM      9  C   UNL     1       8.919   0.772  -1.103  1.00  0.00     0.051 A 
ATOM     10  C   UNL     1       7.443  -0.787  -2.138  1.00  0.00     0.166 A 
ATOM     11  C   UNL     1       8.728  -0.354  -1.898  1.00  0.00     0.165 A 
ATOM     12  O   UNL     1       7.519  -1.904  -2.942  1.00  0.00    -0.454 OA
ATOM     13  O   UNL     1       9.575  -1.225  -2.565  1.00  0.00    -0.454 OA
ATOM     14  C   UNL     1       8.855  -2.275  -3.165  1.00  0.00     0.468 C 
ENDBRANCH   5   6
ENDBRANCH   1   5
TORSDOF 3
ENDMDL
MODEL 2
REMARK VINA RESULT:      -7.5      1.915      2.385
REMARK SMILES CC(=O)CCc1ccc2c(c1)OCO2
REMARK SMILES IDX 4 1 2 2 1 3 3 4 5 5 6 6 7 7 11 8 8 9 10 10 9 11 12 12 14 13
REMARK SMILES IDX 13 14
REMARK H PARENT
REMARK Flexibility Score: inf
ROOT
ATOM      1  C   UNL     1       5.695   1.267  -0.307  1.00  0.00     0.080 C 
ENDROOT
BRANCH   1   2
ATOM      2  C   UNL     1       5.131   1.237   1.072  1.00  0.00     0.130 C 
ATOM      3  C   UNL     1       5.391   0.101   1.996  1.00  0.00     0.087 C 
ATOM      4  O   UNL     1       4.435   2.150   1.484  1.00  0.00    -0.300 OA
ENDBRANCH   1   2
BRANCH   1   5
ATOM      5  C   UNL     1       7.199   1.078  -0.291  1.00  0.00     0.043 C 
BRANCH   5   6
ATOM      6  C   UNL     1       7.594  -0.206  -0.896  1.00  0.00    -0.044 A 
ATOM      7  C   UNL     1       7.692  -0.364  -2.283  1.00  0.00     0.008 A 
ATOM      8  C   UNL     1       7.880  -1.282  -0.087  1.00  0.00     0.054 A 
ATOM      9  C   UNL     1       8.069  -1.592  -2.794  1.00  0.00     0.051 A 
ATOM     10  C   UNL     1       8.261  -2.522  -0.608  1.00  0.00     0.166 A 
ATOM     11  C   UNL     1       8.356  -2.679  -1.973  1.00  0.00     0.165 A 
ATOM     12  O   UNL     1       8.591  -3.726  -0.023  1.00  0.00    -0.454 OA
ATOM     13  O   UNL     1       8.747  -3.989  -2.201  1.00  0.00    -0.454 OA
ATOM     14  C   UNL     1       8.995  -4.662  -0.990  1.00  0.00     0.468 C 
ENDBRANCH   5   6
ENDBRANCH   1   5
TORSDOF 3
ENDMDL
MODEL 3
REMARK VINA RESULT:      -7.2      2.046      2.630
REMARK SMILES CC(=O)CCc1ccc2c(c1)OCO2
REMARK SMILES IDX 4 1 2 2 1 3 3 4 5 5 6 6 7 7 11 8 8 9 10 10 9 11 12 12 14 13
REMARK SMILES IDX 13 14
REMARK H PARENT
REMARK Flexibility Score: inf
ROOT
ATOM      1  C   UNL     1       5.374  -0.073   2.041  1.00  0.00     0.080 C 
ENDROOT
BRANCH   1   2
ATOM      2  C   UNL     1       4.545   1.137   1.778  1.00  0.00     0.130 C 
ATOM      3  C   UNL     1       4.910   2.120   0.723  1.00  0.00     0.087 C 
ATOM      4  O   UNL     1       3.535   1.358   2.428  1.00  0.00    -0.300 OA
ENDBRANCH   1   2
BRANCH   1   5
ATOM      5  C   UNL     1       6.822   0.159   1.659  1.00  0.00     0.043 C 
BRANCH   5   6
ATOM      6  C   UNL     1       7.255  -0.748   0.582  1.00  0.00    -0.044 A 
ATOM      7  C   UNL     1       7.128  -0.399  -0.767  1.00  0.00     0.008 A 
ATOM      8  C   UNL     1       7.802  -1.971   0.899  1.00  0.00     0.054 A 
ATOM      9  C   UNL     1       7.553  -1.291  -1.735  1.00  0.00     0.051 A 
ATOM     10  C   UNL     1       8.231  -2.869  -0.083  1.00  0.00     0.166 A 
ATOM     11  C   UNL     1       8.105  -2.526  -1.411  1.00  0.00     0.165 A 
ATOM     12  O   UNL     1       8.797  -4.125  -0.025  1.00  0.00    -0.454 OA
ATOM     13  O   UNL     1       8.603  -3.589  -2.148  1.00  0.00    -0.454 OA
ATOM     14  C   UNL     1       9.135  -4.585  -1.308  1.00  0.00     0.468 C 
ENDBRANCH   5   6
ENDBRANCH   1   5
TORSDOF 3
ENDMDL
MODEL 4
REMARK VINA RESULT:      -7.1      1.268      1.486
REMARK SMILES CC(=O)CCc1ccc2c(c1)OCO2
REMARK SMILES IDX 4 1 2 2 1 3 3 4 5 5 6 6 7 7 11 8 8 9 10 10 9 11 12 12 14 13
REMARK SMILES IDX 13 14
REMARK H PARENT
REMARK Flexibility Score: inf
ROOT
ATOM      1  C   UNL     1       6.392   1.169   0.963  1.00  0.00     0.080 C 
ENDROOT
BRANCH   1   2
ATOM      2  C   UNL     1       5.645   0.343   1.952  1.00  0.00     0.130 C 
ATOM      3  C   UNL     1       6.234  -0.886   2.547  1.00  0.00     0.087 C 
ATOM      4  O   UNL     1       4.518   0.654   2.304  1.00  0.00    -0.300 OA
ENDBRANCH   1   2
BRANCH   1   5
ATOM      5  C   UNL     1       5.893   0.926  -0.447  1.00  0.00     0.043 C 
BRANCH   5   6
ATOM      6  C   UNL     1       6.830   0.093  -1.223  1.00  0.00    -0.044 A 
ATOM      7  C   UNL     1       7.494   0.592  -2.349  1.00  0.00     0.008 A 
ATOM      8  C   UNL     1       7.066  -1.207  -0.838  1.00  0.00     0.054 A 
ATOM      9  C   UNL     1       8.363  -0.235  -3.037  1.00  0.00     0.051 A 
ATOM     10  C   UNL     1       7.946  -2.039  -1.536  1.00  0.00     0.166 A 
ATOM     11  C   UNL     1       8.599  -1.549  -2.645  1.00  0.00     0.165 A 
ATOM     12  O   UNL     1       8.344  -3.347  -1.358  1.00  0.00    -0.454 OA
ATOM     13  O   UNL     1       9.394  -2.577  -3.129  1.00  0.00    -0.454 OA
ATOM     14  C   UNL     1       9.331  -3.706  -2.290  1.00  0.00     0.468 C 
ENDBRANCH   5   6
ENDBRANCH   1   5
TORSDOF 3
ENDMDL
MODEL 5
REMARK VINA RESULT:      -7.0      1.963      2.504
REMARK SMILES CC(=O)CCc1ccc2c(c1)OCO2
REMARK SMILES IDX 4 1 2 2 1 3 3 4 5 5 6 6 7 7 11 8 8 9 10 10 9 11 12 12 14 13
REMARK SMILES IDX 13 14
REMARK H PARENT
REMARK Flexibility Score: inf
ROOT
ATOM      1  C   UNL     1       6.883   0.942   1.360  1.00  0.00     0.080 C 
ENDROOT
BRANCH   1   2
ATOM      2  C   UNL     1       5.411   1.158   1.450  1.00  0.00     0.130 C 
ATOM      3  C   UNL     1       4.714   2.149   0.589  1.00  0.00     0.087 C 
ATOM      4  O   UNL     1       4.732   0.522   2.239  1.00  0.00    -0.300 OA
ENDBRANCH   1   2
BRANCH   1   5
ATOM      5  C   UNL     1       7.380   1.127  -0.060  1.00  0.00     0.043 C 
BRANCH   5   6
ATOM      6  C   UNL     1       7.687  -0.163  -0.704  1.00  0.00    -0.044 A 
ATOM      7  C   UNL     1       7.691  -0.304  -2.096  1.00  0.00     0.008 A 
ATOM      8  C   UNL     1       7.980  -1.260   0.073  1.00  0.00     0.054 A 
ATOM      9  C   UNL     1       7.987  -1.539  -2.644  1.00  0.00     0.051 A 
ATOM     10  C   UNL     1       8.279  -2.506  -0.486  1.00  0.00     0.166 A 
ATOM     11  C   UNL     1       8.282  -2.647  -1.856  1.00  0.00     0.165 A 
ATOM     12  O   UNL     1       8.598  -3.730   0.063  1.00  0.00    -0.454 OA
ATOM     13  O   UNL     1       8.607  -3.967  -2.123  1.00  0.00    -0.454 OA
ATOM     14  C   UNL     1       8.904  -4.667  -0.938  1.00  0.00     0.468 C 
ENDBRANCH   5   6
ENDBRANCH   1   5
TORSDOF 3
ENDMDL
