@<TRIPOS>MOLECULE
/home/cewinharhar/GITHUB/reincatalyze/data/processed/docking_pred/2023-May-23-1437_sub9_nm5_bs15_s42_ex16_mel10_mts10000_k50_ec02_g099_lra3e-4_lrc1e-3/5b0b3c1ad7e51cc604e9d3ba3e9be04905eaec91_ligand_9.pdbqt
 14 15 0 0 0
SMALL
GASTEIGER

@<TRIPOS>ATOM
      1  C          5.7840    1.2860   -0.3140 C.3     1  UNL1        0.0800
      2  C          5.2000    1.2310    1.0550 C.2     1  UNL1        0.1300
      3  C          5.4180    0.0640    1.9510 C.3     1  UNL1        0.0870
      4  O          4.5210    2.1500    1.4840 O.2     1  UNL1       -0.3000
      5  C          7.2830    1.0650   -0.2830 C.3     1  UNL1        0.0430
      6  C          7.6580   -0.2270   -0.8850 C.2     1  UNL1       -0.0440
      7  C          7.7340   -0.3950   -2.2720 C.2     1  UNL1        0.0080
      8  C          7.9440   -1.3010   -0.0720 C.2     1  UNL1        0.0540
      9  C          8.0910   -1.6310   -2.7800 C.2     1  UNL1        0.0510
     10  C          8.3050   -2.5480   -0.5900 C.2     1  UNL1        0.1660
     11  C          8.3790   -2.7140   -1.9550 C.2     1  UNL1        0.1650
     12  O          8.6320   -3.7510   -0.0020 O.2     1  UNL1       -0.4540
     13  O          8.7550   -4.0290   -2.1790 O.2     1  UNL1       -0.4540
     14  C          9.0130   -4.6970   -0.9670 C.3     1  UNL1        0.4680
@<TRIPOS>BOND
     1     9     7    1
     2     9    11    2
     3     7     6    2
     4    13    11    1
     5    13    14    1
     6    11    10    1
     7    14    12    1
     8     6     5    1
     9     6     8    1
    10    10     8    2
    11    10    12    1
    12     1     5    1
    13     1     2    1
    14     2     4    2
    15     2     3    1
