@<TRIPOS>MOLECULE
/home/cewinharhar/GITHUB/reincatalyze/data/processed/docking_pred/2023-May-23-1437_sub9_nm5_bs15_s42_ex16_mel10_mts10000_k50_ec02_g099_lra3e-4_lrc1e-3/5b0b3c1ad7e51cc604e9d3ba3e9be04905eaec91_ligand_9.pdbqt
 14 15 0 0 0
SMALL
GASTEIGER

@<TRIPOS>ATOM
      1  C          8.3610    0.2240   -2.5850 C.3     1  UNL1        0.0800
      2  C          8.0520   -1.2290   -2.6890 C.2     1  UNL1        0.1300
      3  C          9.1090   -2.2330   -2.9850 C.3     1  UNL1        0.0870
      4  O          6.9130   -1.6400   -2.5350 O.2     1  UNL1       -0.3000
      5  C          8.8720    0.5800   -1.2020 C.3     1  UNL1        0.0430
      6  C          7.8210    0.4390   -0.1790 C.2     1  UNL1       -0.0440
      7  C          7.9120   -0.5170    0.8390 C.2     1  UNL1        0.0080
      8  C          6.7200    1.2650   -0.2130 C.2     1  UNL1        0.0540
      9  C          6.8960   -0.6020    1.7730 C.2     1  UNL1        0.0510
     10  C          5.6950    1.1750    0.7340 C.2     1  UNL1        0.1660
     11  C          5.7840    0.2340    1.7350 C.2     1  UNL1        0.1650
     12  O          4.5170    1.8690    0.9120 O.2     1  UNL1       -0.4540
     13  O          4.6470    0.3710    2.5160 O.2     1  UNL1       -0.4540
     14  C          3.8610    1.4560    2.0830 C.3     1  UNL1        0.4680
@<TRIPOS>BOND
     1     3     2    1
     2     2     1    1
     3     2     4    2
     4     1     5    1
     5     5     6    1
     6     8     6    2
     7     8    10    1
     8     6     7    1
     9    10    12    1
    10    10    11    2
    11     7     9    2
    12    12    14    1
    13    11     9    1
    14    11    13    1
    15    14    13    1
