@<TRIPOS>MOLECULE
/home/cewinharhar/GITHUB/reincatalyze/data/processed/docking_pred/2023-May-23-1437_sub9_nm5_bs15_s42_ex16_mel10_mts10000_k50_ec02_g099_lra3e-4_lrc1e-3/5b0b3c1ad7e51cc604e9d3ba3e9be04905eaec91_ligand_9.pdbqt
 14 15 0 0 0
SMALL
GASTEIGER

@<TRIPOS>ATOM
      1  C          5.5560    1.8740    1.2830 C.3     1  UNL1        0.0800
      2  C          5.1000    0.6570    2.0110 C.2     1  UNL1        0.1300
      3  C          5.9810   -0.5300    2.1760 C.3     1  UNL1        0.0870
      4  O          3.9810    0.5990    2.4950 O.2     1  UNL1       -0.3000
      5  C          5.4210    1.7010   -0.2170 C.3     1  UNL1        0.0430
      6  C          6.5840    1.0030   -0.7930 C.2     1  UNL1       -0.0440
      7  C          7.8920    1.4450   -0.5640 C.2     1  UNL1        0.0080
      8  C          6.3910   -0.1140   -1.5740 C.2     1  UNL1        0.0540
      9  C          8.9450    0.7490   -1.1300 C.2     1  UNL1        0.0510
     10  C          7.4590   -0.8150   -2.1430 C.2     1  UNL1        0.1660
     11  C          8.7460   -0.3800   -1.9200 C.2     1  UNL1        0.1650
     12  O          7.5270   -1.9350   -2.9450 O.2     1  UNL1       -0.4540
     13  O          9.5860   -1.2510   -2.5950 O.2     1  UNL1       -0.4540
     14  C          8.8610   -2.3040   -3.1830 C.3     1  UNL1        0.4680
@<TRIPOS>BOND
     1    14    12    1
     2    14    13    1
     3    12    10    1
     4    13    11    1
     5    10    11    2
     6    10     8    1
     7    11     9    1
     8     8     6    2
     9     9     7    2
    10     6     7    1
    11     6     5    1
    12     5     1    1
    13     1     2    1
    14     2     3    1
    15     2     4    2
