@<TRIPOS>MOLECULE
/home/cewinharhar/GITHUB/reincatalyze/data/processed/docking_pred/2023-May-23-1437_sub9_nm5_bs15_s42_ex16_mel10_mts10000_k50_ec02_g099_lra3e-4_lrc1e-3/5ba5439e64352188cd964ddb86dd28d806e95272_ligand_9.pdbqt
 14 15 0 0 0
SMALL
GASTEIGER

@<TRIPOS>ATOM
      1  C          5.3490   -0.0540    1.9300 C.3     1  UNL1        0.0800
      2  C          4.4410    1.1140    1.7570 C.2     1  UNL1        0.1300
      3  C          4.6900    2.1500    0.7200 C.3     1  UNL1        0.0870
      4  O          3.4590    1.2550    2.4690 O.2     1  UNL1       -0.3000
      5  C          6.8040    0.3630    1.8490 C.3     1  UNL1        0.0430
      6  C          7.4110   -0.0160    0.5600 C.2     1  UNL1       -0.0440
      7  C          7.9210    0.9450   -0.3200 C.2     1  UNL1        0.0080
      8  C          7.4840   -1.3440    0.2050 C.2     1  UNL1        0.0540
      9  C          8.4800    0.5300   -1.5160 C.2     1  UNL1        0.0510
     10  C          8.0500   -1.7580   -1.0040 C.2     1  UNL1        0.1660
     11  C          8.5520   -0.8140   -1.8720 C.2     1  UNL1        0.1650
     12  O          8.2370   -2.9980   -1.5780 O.2     1  UNL1       -0.4540
     13  O          9.0430   -1.5000   -2.9710 O.2     1  UNL1       -0.4540
     14  C          8.9460   -2.8920   -2.7860 C.3     1  UNL1        0.4680
@<TRIPOS>BOND
     1    13    14    1
     2    13    11    1
     3    14    12    1
     4    11     9    2
     5    11    10    1
     6    12    10    1
     7     9     7    1
     8    10     8    2
     9     7     6    2
    10     8     6    1
    11     6     5    1
    12     3     2    1
    13     2     1    1
    14     2     4    2
    15     5     1    1
