@<TRIPOS>MOLECULE
/home/cewinharhar/GITHUB/reincatalyze/data/processed/docking_pred/2023-May-23-1437_sub9_nm5_bs15_s42_ex16_mel10_mts10000_k50_ec02_g099_lra3e-4_lrc1e-3/5ba5439e64352188cd964ddb86dd28d806e95272_ligand_9.pdbqt
 14 15 0 0 0
SMALL
GASTEIGER

@<TRIPOS>ATOM
      1  C          5.5380    1.9170    1.2150 C.3     1  UNL1        0.0800
      2  C          5.0540    0.7120    1.9430 C.2     1  UNL1        0.1300
      3  C          5.9370   -0.4590    2.1900 C.3     1  UNL1        0.0870
      4  O          3.9090    0.6510    2.3610 O.2     1  UNL1       -0.3000
      5  C          5.4300    1.7340   -0.2860 C.3     1  UNL1        0.0430
      6  C          6.5940    1.0130   -0.8330 C.2     1  UNL1       -0.0440
      7  C          7.9030    1.4500   -0.6000 C.2     1  UNL1        0.0080
      8  C          6.4000   -0.1190   -1.5910 C.2     1  UNL1        0.0540
      9  C          8.9550    0.7330   -1.1390 C.2     1  UNL1        0.0510
     10  C          7.4670   -0.8410   -2.1330 C.2     1  UNL1        0.1660
     11  C          8.7560   -0.4110   -1.9050 C.2     1  UNL1        0.1650
     12  O          7.5350   -1.9790   -2.9090 O.2     1  UNL1       -0.4540
     13  O          9.5960   -1.3040   -2.5520 O.2     1  UNL1       -0.4540
     14  C          8.8680   -2.3640   -3.1240 C.3     1  UNL1        0.4680
@<TRIPOS>BOND
     1    14    12    1
     2    14    13    1
     3    12    10    1
     4    13    11    1
     5    10    11    2
     6    10     8    1
     7    11     9    1
     8     8     6    2
     9     9     7    2
    10     6     7    1
    11     6     5    1
    12     5     1    1
    13     1     2    1
    14     2     3    1
    15     2     4    2
