MODEL 1
REMARK VINA RESULT:      -7.7      0.000      0.000
REMARK SMILES CC(=O)CCc1ccc2c(c1)OCO2
REMARK SMILES IDX 4 1 2 2 1 3 3 4 5 5 6 6 7 7 11 8 8 9 10 10 9 11 12 12 14 13
REMARK SMILES IDX 13 14
REMARK H PARENT
REMARK Flexibility Score: inf
ROOT
ATOM      1  C   UNL     1       5.551   1.905   1.295  1.00  0.00     0.080 C 
ENDROOT
BRANCH   1   2
ATOM      2  C   UNL     1       5.106   0.685   2.025  1.00  0.00     0.130 C 
ATOM      3  C   UNL     1       5.996  -0.495   2.188  1.00  0.00     0.087 C 
ATOM      4  O   UNL     1       3.989   0.620   2.512  1.00  0.00    -0.300 OA
ENDBRANCH   1   2
BRANCH   1   5
ATOM      5  C   UNL     1       5.419   1.728  -0.205  1.00  0.00     0.043 C 
BRANCH   5   6
ATOM      6  C   UNL     1       6.584   1.029  -0.777  1.00  0.00    -0.044 A 
ATOM      7  C   UNL     1       7.892   1.468  -0.540  1.00  0.00     0.008 A 
ATOM      8  C   UNL     1       6.392  -0.084  -1.563  1.00  0.00     0.054 A 
ATOM      9  C   UNL     1       8.945   0.771  -1.103  1.00  0.00     0.051 A 
ATOM     10  C   UNL     1       7.461  -0.786  -2.129  1.00  0.00     0.166 A 
ATOM     11  C   UNL     1       8.748  -0.354  -1.898  1.00  0.00     0.165 A 
ATOM     12  O   UNL     1       7.530  -1.903  -2.934  1.00  0.00    -0.454 OA
ATOM     13  O   UNL     1       9.590  -1.225  -2.572  1.00  0.00    -0.454 OA
ATOM     14  C   UNL     1       8.865  -2.274  -3.167  1.00  0.00     0.468 C 
ENDBRANCH   5   6
ENDBRANCH   1   5
TORSDOF 3
ENDMDL
MODEL 2
REMARK VINA RESULT:      -7.5      1.916      2.367
REMARK SMILES CC(=O)CCc1ccc2c(c1)OCO2
REMARK SMILES IDX 4 1 2 2 1 3 3 4 5 5 6 6 7 7 11 8 8 9 10 10 9 11 12 12 14 13
REMARK SMILES IDX 13 14
REMARK H PARENT
REMARK Flexibility Score: inf
ROOT
ATOM      1  C   UNL     1       5.704   1.335  -0.249  1.00  0.00     0.080 C 
ENDROOT
BRANCH   1   2
ATOM      2  C   UNL     1       5.101   1.246   1.110  1.00  0.00     0.130 C 
ATOM      3  C   UNL     1       5.397   0.110   2.023  1.00  0.00     0.087 C 
ATOM      4  O   UNL     1       4.340   2.110   1.515  1.00  0.00    -0.300 OA
ENDBRANCH   1   2
BRANCH   1   5
ATOM      5  C   UNL     1       7.202   1.107  -0.202  1.00  0.00     0.043 C 
BRANCH   5   6
ATOM      6  C   UNL     1       7.580  -0.176  -0.821  1.00  0.00    -0.044 A 
ATOM      7  C   UNL     1       7.644  -0.330  -2.210  1.00  0.00     0.008 A 
ATOM      8  C   UNL     1       7.881  -1.256  -0.022  1.00  0.00     0.054 A 
ATOM      9  C   UNL     1       8.005  -1.558  -2.734  1.00  0.00     0.051 A 
ATOM     10  C   UNL     1       8.246  -2.495  -0.556  1.00  0.00     0.166 A 
ATOM     11  C   UNL     1       8.308  -2.647  -1.923  1.00  0.00     0.165 A 
ATOM     12  O   UNL     1       8.586  -3.702   0.017  1.00  0.00    -0.454 OA
ATOM     13  O   UNL     1       8.690  -3.958  -2.163  1.00  0.00    -0.454 OA
ATOM     14  C   UNL     1       8.965  -4.636  -0.961  1.00  0.00     0.468 C 
ENDBRANCH   5   6
ENDBRANCH   1   5
TORSDOF 3
ENDMDL
MODEL 3
REMARK VINA RESULT:      -7.2      2.060      2.633
REMARK SMILES CC(=O)CCc1ccc2c(c1)OCO2
REMARK SMILES IDX 4 1 2 2 1 3 3 4 5 5 6 6 7 7 11 8 8 9 10 10 9 11 12 12 14 13
REMARK SMILES IDX 13 14
REMARK H PARENT
REMARK Flexibility Score: inf
ROOT
ATOM      1  C   UNL     1       5.419  -0.056   2.006  1.00  0.00     0.080 C 
ENDROOT
BRANCH   1   2
ATOM      2  C   UNL     1       4.576   1.148   1.762  1.00  0.00     0.130 C 
ATOM      3  C   UNL     1       4.912   2.134   0.699  1.00  0.00     0.087 C 
ATOM      4  O   UNL     1       3.579   1.362   2.432  1.00  0.00    -0.300 OA
ENDBRANCH   1   2
BRANCH   1   5
ATOM      5  C   UNL     1       6.858   0.187   1.596  1.00  0.00     0.043 C 
BRANCH   5   6
ATOM      6  C   UNL     1       7.288  -0.740   0.535  1.00  0.00    -0.044 A 
ATOM      7  C   UNL     1       7.167  -0.411  -0.820  1.00  0.00     0.008 A 
ATOM      8  C   UNL     1       7.825  -1.962   0.872  1.00  0.00     0.054 A 
ATOM      9  C   UNL     1       7.588  -1.321  -1.773  1.00  0.00     0.051 A 
ATOM     10  C   UNL     1       8.249  -2.879  -0.094  1.00  0.00     0.166 A 
ATOM     11  C   UNL     1       8.129  -2.555  -1.428  1.00  0.00     0.165 A 
ATOM     12  O   UNL     1       8.806  -4.137  -0.015  1.00  0.00    -0.454 OA
ATOM     13  O   UNL     1       8.622  -3.633  -2.147  1.00  0.00    -0.454 OA
ATOM     14  C   UNL     1       9.145  -4.620  -1.290  1.00  0.00     0.468 C 
ENDBRANCH   5   6
ENDBRANCH   1   5
TORSDOF 3
ENDMDL
MODEL 4
REMARK VINA RESULT:      -7.1      1.250      1.461
REMARK SMILES CC(=O)CCc1ccc2c(c1)OCO2
REMARK SMILES IDX 4 1 2 2 1 3 3 4 5 5 6 6 7 7 11 8 8 9 10 10 9 11 12 12 14 13
REMARK SMILES IDX 13 14
REMARK H PARENT
REMARK Flexibility Score: inf
ROOT
ATOM      1  C   UNL     1       6.382   1.200   0.951  1.00  0.00     0.080 C 
ENDROOT
BRANCH   1   2
ATOM      2  C   UNL     1       5.652   0.372   1.951  1.00  0.00     0.130 C 
ATOM      3  C   UNL     1       6.254  -0.854   2.539  1.00  0.00     0.087 C 
ATOM      4  O   UNL     1       4.529   0.679   2.319  1.00  0.00    -0.300 OA
ENDBRANCH   1   2
BRANCH   1   5
ATOM      5  C   UNL     1       5.876   0.939  -0.454  1.00  0.00     0.043 C 
BRANCH   5   6
ATOM      6  C   UNL     1       6.818   0.111  -1.229  1.00  0.00    -0.044 A 
ATOM      7  C   UNL     1       7.492   0.617  -2.346  1.00  0.00     0.008 A 
ATOM      8  C   UNL     1       7.049  -1.193  -0.852  1.00  0.00     0.054 A 
ATOM      9  C   UNL     1       8.364  -0.206  -3.034  1.00  0.00     0.051 A 
ATOM     10  C   UNL     1       7.933  -2.021  -1.550  1.00  0.00     0.166 A 
ATOM     11  C   UNL     1       8.595  -1.524  -2.650  1.00  0.00     0.165 A 
ATOM     12  O   UNL     1       8.327  -3.331  -1.379  1.00  0.00    -0.454 OA
ATOM     13  O   UNL     1       9.392  -2.549  -3.136  1.00  0.00    -0.454 OA
ATOM     14  C   UNL     1       9.321  -3.684  -2.306  1.00  0.00     0.468 C 
ENDBRANCH   5   6
ENDBRANCH   1   5
TORSDOF 3
ENDMDL
MODEL 5
REMARK VINA RESULT:      -6.8      1.193      5.210
REMARK SMILES CC(=O)CCc1ccc2c(c1)OCO2
REMARK SMILES IDX 4 1 2 2 1 3 3 4 5 5 6 6 7 7 11 8 8 9 10 10 9 11 12 12 14 13
REMARK SMILES IDX 13 14
REMARK H PARENT
REMARK Flexibility Score: inf
ROOT
ATOM      1  C   UNL     1       8.345   0.242  -2.519  1.00  0.00     0.080 C 
ENDROOT
BRANCH   1   2
ATOM      2  C   UNL     1       8.029  -1.202  -2.696  1.00  0.00     0.130 C 
ATOM      3  C   UNL     1       9.086  -2.199  -3.016  1.00  0.00     0.087 C 
ATOM      4  O   UNL     1       6.885  -1.612  -2.583  1.00  0.00    -0.300 OA
ENDBRANCH   1   2
BRANCH   1   5
ATOM      5  C   UNL     1       8.829   0.532  -1.112  1.00  0.00     0.043 C 
BRANCH   5   6
ATOM      6  C   UNL     1       7.750   0.376  -0.120  1.00  0.00    -0.044 A 
ATOM      7  C   UNL     1       7.759  -0.665   0.815  1.00  0.00     0.008 A 
ATOM      8  C   UNL     1       6.705   1.271  -0.102  1.00  0.00     0.054 A 
ATOM      9  C   UNL     1       6.719  -0.761   1.722  1.00  0.00     0.051 A 
ATOM     10  C   UNL     1       5.657   1.171   0.817  1.00  0.00     0.166 A 
ATOM     11  C   UNL     1       5.664   0.146   1.737  1.00  0.00     0.165 A 
ATOM     12  O   UNL     1       4.522   1.923   1.035  1.00  0.00    -0.454 OA
ATOM     13  O   UNL     1       4.522   0.292   2.509  1.00  0.00    -0.454 OA
ATOM     14  C   UNL     1       3.816   1.458   2.156  1.00  0.00     0.468 C 
ENDBRANCH   5   6
ENDBRANCH   1   5
TORSDOF 3
ENDMDL
