@<TRIPOS>MOLECULE
/home/cewinharhar/GITHUB/reincatalyze/data/processed/docking_pred/2023-May-23-1437_sub9_nm5_bs15_s42_ex16_mel10_mts10000_k50_ec02_g099_lra3e-4_lrc1e-3/5bc5327b13dc485bffd01fc094e1dd3343f9f0d0_ligand_9.pdbqt
 14 15 0 0 0
SMALL
GASTEIGER

@<TRIPOS>ATOM
      1  C          5.4190   -0.0560    2.0060 C.3     1  UNL1        0.0800
      2  C          4.5760    1.1480    1.7620 C.2     1  UNL1        0.1300
      3  C          4.9120    2.1340    0.6990 C.3     1  UNL1        0.0870
      4  O          3.5790    1.3620    2.4320 O.2     1  UNL1       -0.3000
      5  C          6.8580    0.1870    1.5960 C.3     1  UNL1        0.0430
      6  C          7.2880   -0.7400    0.5350 C.2     1  UNL1       -0.0440
      7  C          7.1670   -0.4110   -0.8200 C.2     1  UNL1        0.0080
      8  C          7.8250   -1.9620    0.8720 C.2     1  UNL1        0.0540
      9  C          7.5880   -1.3210   -1.7730 C.2     1  UNL1        0.0510
     10  C          8.2490   -2.8790   -0.0940 C.2     1  UNL1        0.1660
     11  C          8.1290   -2.5550   -1.4280 C.2     1  UNL1        0.1650
     12  O          8.8060   -4.1370   -0.0150 O.2     1  UNL1       -0.4540
     13  O          8.6220   -3.6330   -2.1470 O.2     1  UNL1       -0.4540
     14  C          9.1450   -4.6200   -1.2900 C.3     1  UNL1        0.4680
@<TRIPOS>BOND
     1    13    11    1
     2    13    14    1
     3     9    11    2
     4     9     7    1
     5    11    10    1
     6    14    12    1
     7     7     6    2
     8    10    12    1
     9    10     8    2
    10     6     8    1
    11     6     5    1
    12     3     2    1
    13     5     1    1
    14     2     1    1
    15     2     4    2
