@<TRIPOS>MOLECULE
/home/cewinharhar/GITHUB/reincatalyze/data/processed/docking_pred/2023-May-23-1437_sub9_nm5_bs15_s42_ex16_mel10_mts10000_k50_ec02_g099_lra3e-4_lrc1e-3/5bc5327b13dc485bffd01fc094e1dd3343f9f0d0_ligand_9.pdbqt
 14 15 0 0 0
SMALL
GASTEIGER

@<TRIPOS>ATOM
      1  C          8.3450    0.2420   -2.5190 C.3     1  UNL1        0.0800
      2  C          8.0290   -1.2020   -2.6960 C.2     1  UNL1        0.1300
      3  C          9.0860   -2.1990   -3.0160 C.3     1  UNL1        0.0870
      4  O          6.8850   -1.6120   -2.5830 O.2     1  UNL1       -0.3000
      5  C          8.8290    0.5320   -1.1120 C.3     1  UNL1        0.0430
      6  C          7.7500    0.3760   -0.1200 C.2     1  UNL1       -0.0440
      7  C          7.7590   -0.6650    0.8150 C.2     1  UNL1        0.0080
      8  C          6.7050    1.2710   -0.1020 C.2     1  UNL1        0.0540
      9  C          6.7190   -0.7610    1.7220 C.2     1  UNL1        0.0510
     10  C          5.6570    1.1710    0.8170 C.2     1  UNL1        0.1660
     11  C          5.6640    0.1460    1.7370 C.2     1  UNL1        0.1650
     12  O          4.5220    1.9230    1.0350 O.2     1  UNL1       -0.4540
     13  O          4.5220    0.2920    2.5090 O.2     1  UNL1       -0.4540
     14  C          3.8160    1.4580    2.1560 C.3     1  UNL1        0.4680
@<TRIPOS>BOND
     1     3     2    1
     2     2     4    2
     3     2     1    1
     4     1     5    1
     5     5     6    1
     6     6     8    2
     7     6     7    1
     8     8    10    1
     9     7     9    2
    10    10    12    1
    11    10    11    2
    12    12    14    1
    13     9    11    1
    14    11    13    1
    15    14    13    1
