@<TRIPOS>MOLECULE
/home/cewinharhar/GITHUB/reincatalyze/data/processed/docking_pred/2023-May-23-1437_sub9_nm5_bs15_s42_ex16_mel10_mts10000_k50_ec02_g099_lra3e-4_lrc1e-3/5be73a077ea639c014f12358d863af943f9e92ef_ligand_9.pdbqt
 14 15 0 0 0
SMALL
GASTEIGER

@<TRIPOS>ATOM
      1  C          5.4620   -0.0610    1.9650 C.3     1  UNL1        0.0800
      2  C          4.6010    1.1270    1.7130 C.2     1  UNL1        0.1300
      3  C          4.8830    2.0760    0.6030 C.3     1  UNL1        0.0870
      4  O          3.6310    1.3580    2.4170 O.2     1  UNL1       -0.3000
      5  C          6.8920    0.1940    1.5300 C.3     1  UNL1        0.0430
      6  C          7.3180   -0.7430    0.4750 C.2     1  UNL1       -0.0440
      7  C          7.1990   -0.4220   -0.8820 C.2     1  UNL1        0.0080
      8  C          7.8500   -1.9640    0.8210 C.2     1  UNL1        0.0540
      9  C          7.6160   -1.3410   -1.8280 C.2     1  UNL1        0.0510
     10  C          8.2710   -2.8890   -0.1390 C.2     1  UNL1        0.1660
     11  C          8.1530   -2.5750   -1.4740 C.2     1  UNL1        0.1650
     12  O          8.8240   -4.1490   -0.0510 O.2     1  UNL1       -0.4540
     13  O          8.6410   -3.6590   -2.1860 O.2     1  UNL1       -0.4540
     14  C          9.1600   -4.6420   -1.3220 C.3     1  UNL1        0.4680
@<TRIPOS>BOND
     1    13    11    1
     2    13    14    1
     3     9    11    2
     4     9     7    1
     5    11    10    1
     6    14    12    1
     7     7     6    2
     8    10    12    1
     9    10     8    2
    10     6     8    1
    11     6     5    1
    12     3     2    1
    13     5     1    1
    14     2     1    1
    15     2     4    2
