@<TRIPOS>MOLECULE
/home/cewinharhar/GITHUB/reincatalyze/data/processed/docking_pred/2023-May-23-1437_sub9_nm5_bs15_s42_ex16_mel10_mts10000_k50_ec02_g099_lra3e-4_lrc1e-3/5be73a077ea639c014f12358d863af943f9e92ef_ligand_9.pdbqt
 14 15 0 0 0
SMALL
GASTEIGER

@<TRIPOS>ATOM
      1  C          8.3260    0.1930   -2.6750 C.3     1  UNL1        0.0800
      2  C          8.0400   -1.2660   -2.7580 C.2     1  UNL1        0.1300
      3  C          9.1150   -2.2600   -3.0190 C.3     1  UNL1        0.0870
      4  O          6.9050   -1.6910   -2.6130 O.2     1  UNL1       -0.3000
      5  C          8.8540    0.5740   -1.3060 C.3     1  UNL1        0.0430
      6  C          7.8230    0.4260   -0.2630 C.2     1  UNL1       -0.0440
      7  C          7.9340   -0.5360    0.7470 C.2     1  UNL1        0.0080
      8  C          6.7210    1.2520   -0.2710 C.2     1  UNL1        0.0540
      9  C          6.9350   -0.6270    1.7000 C.2     1  UNL1        0.0510
     10  C          5.7150    1.1560    0.6950 C.2     1  UNL1        0.1660
     11  C          5.8230    0.2080    1.6880 C.2     1  UNL1        0.1650
     12  O          4.5400    1.8480    0.9000 O.2     1  UNL1       -0.4540
     13  O          4.7010    0.3400    2.4910 O.2     1  UNL1       -0.4540
     14  C          3.9070    1.4280    2.0810 C.3     1  UNL1        0.4680
@<TRIPOS>BOND
     1     3     2    1
     2     2     1    1
     3     2     4    2
     4     1     5    1
     5     5     6    1
     6     8     6    2
     7     8    10    1
     8     6     7    1
     9    10    12    1
    10    10    11    2
    11     7     9    2
    12    12    14    1
    13    11     9    1
    14    11    13    1
    15    14    13    1
