@<TRIPOS>MOLECULE
/home/cewinharhar/GITHUB/reincatalyze/data/processed/docking_pred/2023-May-23-1437_sub9_nm5_bs15_s42_ex16_mel10_mts10000_k50_ec02_g099_lra3e-4_lrc1e-3/5be73a077ea639c014f12358d863af943f9e92ef_ligand_9.pdbqt
 14 15 0 0 0
SMALL
GASTEIGER

@<TRIPOS>ATOM
      1  C          5.7900    1.4310   -0.2620 C.3     1  UNL1        0.0800
      2  C          5.0600    1.2940    1.0290 C.2     1  UNL1        0.1300
      3  C          5.2600    0.1190    1.9190 C.3     1  UNL1        0.0870
      4  O          4.2700    2.1490    1.3960 O.2     1  UNL1       -0.3000
      5  C          7.2610    1.1040   -0.1000 C.3     1  UNL1        0.0430
      6  C          7.6150   -0.1650   -0.7600 C.2     1  UNL1       -0.0440
      7  C          7.6200   -0.2890   -2.1540 C.2     1  UNL1        0.0080
      8  C          7.9540   -1.2600    0.0020 C.2     1  UNL1        0.0540
      9  C          7.9620   -1.5040   -2.7180 C.2     1  UNL1        0.0510
     10  C          8.2990   -2.4860   -0.5730 C.2     1  UNL1        0.1660
     11  C          8.3030   -2.6090   -1.9450 C.2     1  UNL1        0.1650
     12  O          8.6670   -3.7030   -0.0400 O.2     1  UNL1       -0.4540
     13  O          8.6780   -3.9130   -2.2290 O.2     1  UNL1       -0.4540
     14  C          9.0060   -4.6150   -1.0540 C.3     1  UNL1        0.4680
@<TRIPOS>BOND
     1     9     7    1
     2     9    11    2
     3    13    11    1
     4    13    14    1
     5     7     6    2
     6    11    10    1
     7    14    12    1
     8     6     5    1
     9     6     8    1
    10    10    12    1
    11    10     8    2
    12     1     5    1
    13     1     2    1
    14     2     4    2
    15     2     3    1
