@<TRIPOS>MOLECULE
/home/cewinharhar/GITHUB/reincatalyze/data/processed/docking_pred/2023-May-23-1437_sub9_nm5_bs15_s42_ex16_mel10_mts10000_k50_ec02_g099_lra3e-4_lrc1e-3/5be73a077ea639c014f12358d863af943f9e92ef_ligand_9.pdbqt
 14 15 0 0 0
SMALL
GASTEIGER

@<TRIPOS>ATOM
      1  C          6.3630    1.2120    0.9240 C.3     1  UNL1        0.0800
      2  C          5.6670    0.3770    1.9430 C.2     1  UNL1        0.1300
      3  C          6.2770   -0.8680    2.4810 C.3     1  UNL1        0.0870
      4  O          4.5680    0.6940    2.3670 O.2     1  UNL1       -0.3000
      5  C          5.8440    0.9250   -0.4710 C.3     1  UNL1        0.0430
      6  C          6.7900    0.1050   -1.2490 C.2     1  UNL1       -0.0440
      7  C          7.4630    0.6200   -2.3620 C.2     1  UNL1        0.0080
      8  C          7.0270   -1.2000   -0.8780 C.2     1  UNL1        0.0540
      9  C          8.3400   -0.1960   -3.0530 C.2     1  UNL1        0.0510
     10  C          7.9150   -2.0210   -1.5790 C.2     1  UNL1        0.1660
     11  C          8.5770   -1.5150   -2.6760 C.2     1  UNL1        0.1650
     12  O          8.3150   -3.3300   -1.4140 O.2     1  UNL1       -0.4540
     13  O          9.3780   -2.5340   -3.1660 O.2     1  UNL1       -0.4540
     14  C          9.3110   -3.6740   -2.3420 C.3     1  UNL1        0.4680
@<TRIPOS>BOND
     1    13    11    1
     2    13    14    1
     3     9    11    2
     4     9     7    1
     5    11    10    1
     6     7     6    2
     7    14    12    1
     8    10    12    1
     9    10     8    2
    10     6     8    1
    11     6     5    1
    12     5     1    1
    13     1     2    1
    14     2     4    2
    15     2     3    1
