@<TRIPOS>MOLECULE
/home/cewinharhar/GITHUB/reincatalyze/data/processed/docking_pred/2023-May-23-1437_sub9_nm5_bs15_s42_ex16_mel10_mts10000_k50_ec02_g099_lra3e-4_lrc1e-3/5c54d156b22251270ecdcbd3d684e6dc7dd5ede7_ligand_9.pdbqt
 14 15 0 0 0
SMALL
GASTEIGER

@<TRIPOS>ATOM
      1  C          6.3570    1.2170    0.9360 C.3     1  UNL1        0.0800
      2  C          5.6580    0.3720    1.9440 C.2     1  UNL1        0.1300
      3  C          6.2930   -0.8450    2.5180 C.3     1  UNL1        0.0870
      4  O          4.5360    0.6560    2.3300 O.2     1  UNL1       -0.3000
      5  C          5.8480    0.9360   -0.4650 C.3     1  UNL1        0.0430
      6  C          6.8010    0.1210   -1.2390 C.2     1  UNL1       -0.0440
      7  C          7.4980    0.6480   -2.3320 C.2     1  UNL1        0.0080
      8  C          7.0210   -1.1910   -0.8850 C.2     1  UNL1        0.0540
      9  C          8.3800   -0.1650   -3.0210 C.2     1  UNL1        0.0510
     10  C          7.9150   -2.0080   -1.5830 C.2     1  UNL1        0.1660
     11  C          8.6000   -1.4910   -2.6610 C.2     1  UNL1        0.1650
     12  O          8.3010   -3.3230   -1.4320 O.2     1  UNL1       -0.4540
     13  O          9.4010   -2.5090   -3.1520 O.2     1  UNL1       -0.4540
     14  C          9.3110   -3.6600   -2.3480 C.3     1  UNL1        0.4680
@<TRIPOS>BOND
     1    13    11    1
     2    13    14    1
     3     9    11    2
     4     9     7    1
     5    11    10    1
     6    14    12    1
     7     7     6    2
     8    10    12    1
     9    10     8    2
    10     6     8    1
    11     6     5    1
    12     5     1    1
    13     1     2    1
    14     2     4    2
    15     2     3    1
