@<TRIPOS>MOLECULE
/home/cewinharhar/GITHUB/reincatalyze/data/processed/docking_pred/2023-May-23-1437_sub9_nm5_bs15_s42_ex16_mel10_mts10000_k50_ec02_g099_lra3e-4_lrc1e-3/5d85cf370efb80bf055e3e75471b8f0e73f124ff_ligand_9.pdbqt
 14 15 0 0 0
SMALL
GASTEIGER

@<TRIPOS>ATOM
      1  C          5.4690   -0.0740    1.9530 C.3     1  UNL1        0.0800
      2  C          5.3580    1.0820    1.0200 C.2     1  UNL1        0.1300
      3  C          6.0030    1.0680   -0.3200 C.3     1  UNL1        0.0870
      4  O          4.7300    2.0810    1.3320 O.2     1  UNL1       -0.3000
      5  C          6.2140   -1.2280    1.3130 C.3     1  UNL1        0.0430
      6  C          7.4360   -1.5720    2.0620 C.2     1  UNL1       -0.0440
      7  C          8.4970   -2.2580    1.4580 C.2     1  UNL1        0.0080
      8  C          7.5500   -1.2120    3.3850 C.2     1  UNL1        0.0540
      9  C          9.6200   -2.5520    2.2100 C.2     1  UNL1        0.0510
     10  C          8.6870   -1.5110    4.1410 C.2     1  UNL1        0.1660
     11  C          9.7310   -2.1870    3.5480 C.2     1  UNL1        0.1650
     12  O          9.0350   -1.2670    5.4520 O.2     1  UNL1       -0.4540
     13  O         10.7080   -2.3440    4.5180 O.2     1  UNL1       -0.4540
     14  C         10.3470   -1.6960    5.7140 C.3     1  UNL1        0.4680
@<TRIPOS>BOND
     1     3     2    1
     2     2     4    2
     3     2     1    1
     4     5     1    1
     5     5     6    1
     6     7     6    2
     7     7     9    1
     8     6     8    1
     9     9    11    2
    10     8    10    2
    11    11    10    1
    12    11    13    1
    13    10    12    1
    14    13    14    1
    15    12    14    1
