@<TRIPOS>MOLECULE
/home/cewinharhar/GITHUB/reincatalyze/data/processed/docking_pred/2023-May-23-1437_sub9_nm5_bs15_s42_ex16_mel10_mts10000_k50_ec02_g099_lra3e-4_lrc1e-3/5d85cf370efb80bf055e3e75471b8f0e73f124ff_ligand_9.pdbqt
 14 15 0 0 0
SMALL
GASTEIGER

@<TRIPOS>ATOM
      1  C          5.7280    1.3050   -0.3130 C.3     1  UNL1        0.0800
      2  C          5.1170    1.2620    1.0440 C.2     1  UNL1        0.1300
      3  C          5.3880    0.1440    1.9880 C.3     1  UNL1        0.0870
      4  O          4.3690    2.1490    1.4230 O.2     1  UNL1       -0.3000
      5  C          7.2250    1.0740   -0.2500 C.3     1  UNL1        0.0430
      6  C          7.6060   -0.2120   -0.8590 C.2     1  UNL1       -0.0440
      7  C          7.6960   -0.3680   -2.2470 C.2     1  UNL1        0.0080
      8  C          7.8860   -1.2930   -0.0540 C.2     1  UNL1        0.0540
      9  C          8.0590   -1.5990   -2.7630 C.2     1  UNL1        0.0510
     10  C          8.2530   -2.5350   -0.5800 C.2     1  UNL1        0.1660
     11  C          8.3400   -2.6890   -1.9450 C.2     1  UNL1        0.1650
     12  O          8.5750   -3.7430    0.0010 O.2     1  UNL1       -0.4540
     13  O          8.7180   -4.0020   -2.1770 O.2     1  UNL1       -0.4540
     14  C          8.9660   -4.6810   -0.9690 C.3     1  UNL1        0.4680
@<TRIPOS>BOND
     1     9     7    1
     2     9    11    2
     3     7     6    2
     4    13    11    1
     5    13    14    1
     6    11    10    1
     7    14    12    1
     8     6     5    1
     9     6     8    1
    10    10     8    2
    11    10    12    1
    12     1     5    1
    13     1     2    1
    14     2     4    2
    15     2     3    1
