@<TRIPOS>MOLECULE
/home/cewinharhar/GITHUB/reincatalyze/data/processed/docking_pred/2023-May-23-1437_sub9_nm5_bs15_s42_ex16_mel10_mts10000_k50_ec02_g099_lra3e-4_lrc1e-3/5e677739909452415bd62a3bb65a8cc9d063ea2f_ligand_9.pdbqt
 14 15 0 0 0
SMALL
GASTEIGER

@<TRIPOS>ATOM
      1  C          5.4780   -0.0510    1.9420 C.3     1  UNL1        0.0800
      2  C          4.6450    1.1500    1.6520 C.2     1  UNL1        0.1300
      3  C          5.0270    2.1300    0.6000 C.3     1  UNL1        0.0870
      4  O          3.6190    1.3660    2.2760 O.2     1  UNL1       -0.3000
      5  C          6.9210    0.1690    1.5340 C.3     1  UNL1        0.0430
      6  C          7.3400   -0.7710    0.4790 C.2     1  UNL1       -0.0440
      7  C          7.2160   -0.4530   -0.8780 C.2     1  UNL1        0.0080
      8  C          7.8710   -1.9930    0.8260 C.2     1  UNL1        0.0540
      9  C          7.6260   -1.3750   -1.8240 C.2     1  UNL1        0.0510
     10  C          8.2850   -2.9210   -0.1340 C.2     1  UNL1        0.1660
     11  C          8.1620   -2.6100   -1.4700 C.2     1  UNL1        0.1650
     12  O          8.8340   -4.1830   -0.0450 O.2     1  UNL1       -0.4540
     13  O          8.6440   -3.6980   -2.1810 O.2     1  UNL1       -0.4540
     14  C          9.1640   -4.6800   -1.3170 C.3     1  UNL1        0.4680
@<TRIPOS>BOND
     1    13    11    1
     2    13    14    1
     3     9    11    2
     4     9     7    1
     5    11    10    1
     6    14    12    1
     7     7     6    2
     8    10    12    1
     9    10     8    2
    10     6     8    1
    11     6     5    1
    12     3     2    1
    13     5     1    1
    14     2     1    1
    15     2     4    2
