@<TRIPOS>MOLECULE
/home/cewinharhar/GITHUB/reincatalyze/data/processed/docking_pred/2023-May-23-1437_sub9_nm5_bs15_s42_ex16_mel10_mts10000_k50_ec02_g099_lra3e-4_lrc1e-3/5f00cdda1ab61f28c1ea6d7129614616e9231d70_ligand_9.pdbqt
 14 15 0 0 0
SMALL
GASTEIGER

@<TRIPOS>ATOM
      1  C          5.3480   -0.0840    1.9610 C.3     1  UNL1        0.0800
      2  C          4.4780    1.1130    1.7850 C.2     1  UNL1        0.1300
      3  C          4.7760    2.1500    0.7610 C.3     1  UNL1        0.0870
      4  O          3.4900    1.2770    2.4820 O.2     1  UNL1       -0.3000
      5  C          6.8160    0.2900    1.9080 C.3     1  UNL1        0.0430
      6  C          7.4220   -0.0570    0.6100 C.2     1  UNL1       -0.0440
      7  C          7.9340    0.9240   -0.2450 C.2     1  UNL1        0.0080
      8  C          7.4920   -1.3760    0.2210 C.2     1  UNL1        0.0540
      9  C          8.4920    0.5390   -1.4510 C.2     1  UNL1        0.0510
     10  C          8.0580   -1.7600   -0.9980 C.2     1  UNL1        0.1660
     11  C          8.5610   -0.7950   -1.8410 C.2     1  UNL1        0.1650
     12  O          8.2430   -2.9850   -1.6040 O.2     1  UNL1       -0.4540
     13  O          9.0510   -1.4530   -2.9580 O.2     1  UNL1       -0.4540
     14  C          8.9520   -2.8500   -2.8090 C.3     1  UNL1        0.4680
@<TRIPOS>BOND
     1    13    14    1
     2    13    11    1
     3    14    12    1
     4    11     9    2
     5    11    10    1
     6    12    10    1
     7     9     7    1
     8    10     8    2
     9     7     6    2
    10     8     6    1
    11     6     5    1
    12     3     2    1
    13     2     1    1
    14     2     4    2
    15     5     1    1
