MODEL 1
REMARK VINA RESULT:      -7.7      0.000      0.000
REMARK SMILES CC(=O)CCc1ccc2c(c1)OCO2
REMARK SMILES IDX 4 1 2 2 1 3 3 4 5 5 6 6 7 7 11 8 8 9 10 10 9 11 12 12 14 13
REMARK SMILES IDX 13 14
REMARK H PARENT
REMARK Flexibility Score: inf
ROOT
ATOM      1  C   UNL     1       5.531   1.933   1.277  1.00  0.00     0.080 C 
ENDROOT
BRANCH   1   2
ATOM      2  C   UNL     1       5.093   0.714   2.012  1.00  0.00     0.130 C 
ATOM      3  C   UNL     1       5.992  -0.459   2.183  1.00  0.00     0.087 C 
ATOM      4  O   UNL     1       3.976   0.642   2.498  1.00  0.00    -0.300 OA
ENDBRANCH   1   2
BRANCH   1   5
ATOM      5  C   UNL     1       5.402   1.749  -0.222  1.00  0.00     0.043 C 
BRANCH   5   6
ATOM      6  C   UNL     1       6.568   1.048  -0.788  1.00  0.00    -0.044 A 
ATOM      7  C   UNL     1       7.875   1.487  -0.548  1.00  0.00     0.008 A 
ATOM      8  C   UNL     1       6.380  -0.067  -1.572  1.00  0.00     0.054 A 
ATOM      9  C   UNL     1       8.931   0.789  -1.105  1.00  0.00     0.051 A 
ATOM     10  C   UNL     1       7.451  -0.770  -2.133  1.00  0.00     0.166 A 
ATOM     11  C   UNL     1       8.737  -0.338  -1.897  1.00  0.00     0.165 A 
ATOM     12  O   UNL     1       7.523  -1.889  -2.935  1.00  0.00    -0.454 OA
ATOM     13  O   UNL     1       9.581  -1.210  -2.566  1.00  0.00    -0.454 OA
ATOM     14  C   UNL     1       8.859  -2.261  -3.162  1.00  0.00     0.468 C 
ENDBRANCH   5   6
ENDBRANCH   1   5
TORSDOF 3
ENDMDL
MODEL 2
REMARK VINA RESULT:      -7.4      1.947      2.444
REMARK SMILES CC(=O)CCc1ccc2c(c1)OCO2
REMARK SMILES IDX 4 1 2 2 1 3 3 4 5 5 6 6 7 7 11 8 8 9 10 10 9 11 12 12 14 13
REMARK SMILES IDX 13 14
REMARK H PARENT
REMARK Flexibility Score: inf
ROOT
ATOM      1  C   UNL     1       5.773   1.230  -0.298  1.00  0.00     0.080 C 
ENDROOT
BRANCH   1   2
ATOM      2  C   UNL     1       5.227   1.178   1.087  1.00  0.00     0.130 C 
ATOM      3  C   UNL     1       5.327  -0.050   1.921  1.00  0.00     0.087 C 
ATOM      4  O   UNL     1       4.677   2.149   1.581  1.00  0.00    -0.300 OA
ENDBRANCH   1   2
BRANCH   1   5
ATOM      5  C   UNL     1       7.275   1.026  -0.305  1.00  0.00     0.043 C 
BRANCH   5   6
ATOM      6  C   UNL     1       7.648  -0.267  -0.906  1.00  0.00    -0.044 A 
ATOM      7  C   UNL     1       7.725  -0.437  -2.293  1.00  0.00     0.008 A 
ATOM      8  C   UNL     1       7.932  -1.341  -0.092  1.00  0.00     0.054 A 
ATOM      9  C   UNL     1       8.081  -1.673  -2.799  1.00  0.00     0.051 A 
ATOM     10  C   UNL     1       8.292  -2.589  -0.609  1.00  0.00     0.166 A 
ATOM     11  C   UNL     1       8.367  -2.756  -1.974  1.00  0.00     0.165 A 
ATOM     12  O   UNL     1       8.615  -3.792  -0.019  1.00  0.00    -0.454 OA
ATOM     13  O   UNL     1       8.740  -4.073  -2.196  1.00  0.00    -0.454 OA
ATOM     14  C   UNL     1       8.996  -4.740  -0.983  1.00  0.00     0.468 C 
ENDBRANCH   5   6
ENDBRANCH   1   5
TORSDOF 3
ENDMDL
MODEL 3
REMARK VINA RESULT:      -7.2      2.093      2.628
REMARK SMILES CC(=O)CCc1ccc2c(c1)OCO2
REMARK SMILES IDX 4 1 2 2 1 3 3 4 5 5 6 6 7 7 11 8 8 9 10 10 9 11 12 12 14 13
REMARK SMILES IDX 13 14
REMARK H PARENT
REMARK Flexibility Score: inf
ROOT
ATOM      1  C   UNL     1       5.586   0.040   1.947  1.00  0.00     0.080 C 
ENDROOT
BRANCH   1   2
ATOM      2  C   UNL     1       4.681   1.179   1.629  1.00  0.00     0.130 C 
ATOM      3  C   UNL     1       4.969   2.116   0.509  1.00  0.00     0.087 C 
ATOM      4  O   UNL     1       3.671   1.379   2.283  1.00  0.00    -0.300 OA
ENDBRANCH   1   2
BRANCH   1   5
ATOM      5  C   UNL     1       6.993   0.298   1.445  1.00  0.00     0.043 C 
BRANCH   5   6
ATOM      6  C   UNL     1       7.393  -0.678   0.415  1.00  0.00    -0.044 A 
ATOM      7  C   UNL     1       7.290  -0.388  -0.950  1.00  0.00     0.008 A 
ATOM      8  C   UNL     1       7.884  -1.907   0.794  1.00  0.00     0.054 A 
ATOM      9  C   UNL     1       7.682  -1.342  -1.871  1.00  0.00     0.051 A 
ATOM     10  C   UNL     1       8.280  -2.868  -0.140  1.00  0.00     0.166 A 
ATOM     11  C   UNL     1       8.177  -2.584  -1.484  1.00  0.00     0.165 A 
ATOM     12  O   UNL     1       8.791  -4.143  -0.019  1.00  0.00    -0.454 OA
ATOM     13  O   UNL     1       8.633  -3.701  -2.166  1.00  0.00    -0.454 OA
ATOM     14  C   UNL     1       9.117  -4.678  -1.276  1.00  0.00     0.468 C 
ENDBRANCH   5   6
ENDBRANCH   1   5
TORSDOF 3
ENDMDL
MODEL 4
REMARK VINA RESULT:      -7.1      1.256      1.472
REMARK SMILES CC(=O)CCc1ccc2c(c1)OCO2
REMARK SMILES IDX 4 1 2 2 1 3 3 4 5 5 6 6 7 7 11 8 8 9 10 10 9 11 12 12 14 13
REMARK SMILES IDX 13 14
REMARK H PARENT
REMARK Flexibility Score: inf
ROOT
ATOM      1  C   UNL     1       6.383   1.202   0.946  1.00  0.00     0.080 C 
ENDROOT
BRANCH   1   2
ATOM      2  C   UNL     1       5.651   0.373   1.943  1.00  0.00     0.130 C 
ATOM      3  C   UNL     1       6.252  -0.855   2.530  1.00  0.00     0.087 C 
ATOM      4  O   UNL     1       4.528   0.680   2.310  1.00  0.00    -0.300 OA
ENDBRANCH   1   2
BRANCH   1   5
ATOM      5  C   UNL     1       5.880   0.944  -0.460  1.00  0.00     0.043 C 
BRANCH   5   6
ATOM      6  C   UNL     1       6.822   0.114  -1.234  1.00  0.00    -0.044 A 
ATOM      7  C   UNL     1       7.498   0.620  -2.350  1.00  0.00     0.008 A 
ATOM      8  C   UNL     1       7.050  -1.190  -0.857  1.00  0.00     0.054 A 
ATOM      9  C   UNL     1       8.371  -0.205  -3.036  1.00  0.00     0.051 A 
ATOM     10  C   UNL     1       7.934  -2.019  -1.554  1.00  0.00     0.166 A 
ATOM     11  C   UNL     1       8.599  -1.523  -2.653  1.00  0.00     0.165 A 
ATOM     12  O   UNL     1       8.325  -3.330  -1.382  1.00  0.00    -0.454 OA
ATOM     13  O   UNL     1       9.394  -2.549  -3.137  1.00  0.00    -0.454 OA
ATOM     14  C   UNL     1       9.320  -3.684  -2.308  1.00  0.00     0.468 C 
ENDBRANCH   5   6
ENDBRANCH   1   5
TORSDOF 3
ENDMDL
MODEL 5
REMARK VINA RESULT:      -6.8      1.253      1.752
REMARK SMILES CC(=O)CCc1ccc2c(c1)OCO2
REMARK SMILES IDX 4 1 2 2 1 3 3 4 5 5 6 6 7 7 11 8 8 9 10 10 9 11 12 12 14 13
REMARK SMILES IDX 13 14
REMARK H PARENT
REMARK Flexibility Score: inf
ROOT
ATOM      1  C   UNL     1       5.348  -0.084   1.961  1.00  0.00     0.080 C 
ENDROOT
BRANCH   1   2
ATOM      2  C   UNL     1       4.478   1.113   1.785  1.00  0.00     0.130 C 
ATOM      3  C   UNL     1       4.776   2.150   0.761  1.00  0.00     0.087 C 
ATOM      4  O   UNL     1       3.490   1.277   2.482  1.00  0.00    -0.300 OA
ENDBRANCH   1   2
BRANCH   1   5
ATOM      5  C   UNL     1       6.816   0.290   1.908  1.00  0.00     0.043 C 
BRANCH   5   6
ATOM      6  C   UNL     1       7.422  -0.057   0.610  1.00  0.00    -0.044 A 
ATOM      7  C   UNL     1       7.934   0.924  -0.245  1.00  0.00     0.008 A 
ATOM      8  C   UNL     1       7.492  -1.376   0.221  1.00  0.00     0.054 A 
ATOM      9  C   UNL     1       8.492   0.539  -1.451  1.00  0.00     0.051 A 
ATOM     10  C   UNL     1       8.058  -1.760  -0.998  1.00  0.00     0.166 A 
ATOM     11  C   UNL     1       8.561  -0.795  -1.841  1.00  0.00     0.165 A 
ATOM     12  O   UNL     1       8.243  -2.985  -1.604  1.00  0.00    -0.454 OA
ATOM     13  O   UNL     1       9.051  -1.453  -2.958  1.00  0.00    -0.454 OA
ATOM     14  C   UNL     1       8.952  -2.850  -2.809  1.00  0.00     0.468 C 
ENDBRANCH   5   6
ENDBRANCH   1   5
TORSDOF 3
ENDMDL
