@<TRIPOS>MOLECULE
/home/cewinharhar/GITHUB/reincatalyze/data/processed/docking_pred/2023-May-23-1437_sub9_nm5_bs15_s42_ex16_mel10_mts10000_k50_ec02_g099_lra3e-4_lrc1e-3/5f00cdda1ab61f28c1ea6d7129614616e9231d70_ligand_9.pdbqt
 14 15 0 0 0
SMALL
GASTEIGER

@<TRIPOS>ATOM
      1  C          5.7730    1.2300   -0.2980 C.3     1  UNL1        0.0800
      2  C          5.2270    1.1780    1.0870 C.2     1  UNL1        0.1300
      3  C          5.3270   -0.0500    1.9210 C.3     1  UNL1        0.0870
      4  O          4.6770    2.1490    1.5810 O.2     1  UNL1       -0.3000
      5  C          7.2750    1.0260   -0.3050 C.3     1  UNL1        0.0430
      6  C          7.6480   -0.2670   -0.9060 C.2     1  UNL1       -0.0440
      7  C          7.7250   -0.4370   -2.2930 C.2     1  UNL1        0.0080
      8  C          7.9320   -1.3410   -0.0920 C.2     1  UNL1        0.0540
      9  C          8.0810   -1.6730   -2.7990 C.2     1  UNL1        0.0510
     10  C          8.2920   -2.5890   -0.6090 C.2     1  UNL1        0.1660
     11  C          8.3670   -2.7560   -1.9740 C.2     1  UNL1        0.1650
     12  O          8.6150   -3.7920   -0.0190 O.2     1  UNL1       -0.4540
     13  O          8.7400   -4.0730   -2.1960 O.2     1  UNL1       -0.4540
     14  C          8.9960   -4.7400   -0.9830 C.3     1  UNL1        0.4680
@<TRIPOS>BOND
     1     9     7    1
     2     9    11    2
     3     7     6    2
     4    13    11    1
     5    13    14    1
     6    11    10    1
     7    14    12    1
     8     6     5    1
     9     6     8    1
    10    10     8    2
    11    10    12    1
    12     5     1    1
    13     1     2    1
    14     2     4    2
    15     2     3    1
