MODEL 1
REMARK VINA RESULT:      -7.6      0.000      0.000
REMARK SMILES CC(=O)CCc1ccc2c(c1)OCO2
REMARK SMILES IDX 4 1 2 2 1 3 3 4 5 5 6 6 7 7 11 8 8 9 10 10 9 11 12 12 14 13
REMARK SMILES IDX 13 14
REMARK H PARENT
REMARK Flexibility Score: inf
ROOT
ATOM      1  C   UNL     1       5.560   1.906   1.296  1.00  0.00     0.080 C 
ENDROOT
BRANCH   1   2
ATOM      2  C   UNL     1       5.112   0.689   2.029  1.00  0.00     0.130 C 
ATOM      3  C   UNL     1       6.003  -0.489   2.203  1.00  0.00     0.087 C 
ATOM      4  O   UNL     1       3.993   0.625   2.512  1.00  0.00    -0.300 OA
ENDBRANCH   1   2
BRANCH   1   5
ATOM      5  C   UNL     1       5.422   1.726  -0.203  1.00  0.00     0.043 C 
BRANCH   5   6
ATOM      6  C   UNL     1       6.584   1.025  -0.778  1.00  0.00    -0.044 A 
ATOM      7  C   UNL     1       7.893   1.461  -0.543  1.00  0.00     0.008 A 
ATOM      8  C   UNL     1       6.389  -0.087  -1.565  1.00  0.00     0.054 A 
ATOM      9  C   UNL     1       8.945   0.763  -1.109  1.00  0.00     0.051 A 
ATOM     10  C   UNL     1       7.455  -0.790  -2.134  1.00  0.00     0.166 A 
ATOM     11  C   UNL     1       8.744  -0.361  -1.904  1.00  0.00     0.165 A 
ATOM     12  O   UNL     1       7.521  -1.906  -2.940  1.00  0.00    -0.454 OA
ATOM     13  O   UNL     1       9.583  -1.233  -2.580  1.00  0.00    -0.454 OA
ATOM     14  C   UNL     1       8.854  -2.280  -3.176  1.00  0.00     0.468 C 
ENDBRANCH   5   6
ENDBRANCH   1   5
TORSDOF 3
ENDMDL
MODEL 2
REMARK VINA RESULT:      -7.4      1.909      2.402
REMARK SMILES CC(=O)CCc1ccc2c(c1)OCO2
REMARK SMILES IDX 4 1 2 2 1 3 3 4 5 5 6 6 7 7 11 8 8 9 10 10 9 11 12 12 14 13
REMARK SMILES IDX 13 14
REMARK H PARENT
REMARK Flexibility Score: inf
ROOT
ATOM      1  C   UNL     1       5.757   1.294  -0.314  1.00  0.00     0.080 C 
ENDROOT
BRANCH   1   2
ATOM      2  C   UNL     1       5.216   1.204   1.071  1.00  0.00     0.130 C 
ATOM      3  C   UNL     1       5.358  -0.032   1.886  1.00  0.00     0.087 C 
ATOM      4  O   UNL     1       4.635   2.150   1.579  1.00  0.00    -0.300 OA
ENDBRANCH   1   2
BRANCH   1   5
ATOM      5  C   UNL     1       7.258   1.081  -0.333  1.00  0.00     0.043 C 
BRANCH   5   6
ATOM      6  C   UNL     1       7.619  -0.215  -0.935  1.00  0.00    -0.044 A 
ATOM      7  C   UNL     1       7.647  -0.395  -2.323  1.00  0.00     0.008 A 
ATOM      8  C   UNL     1       7.939  -1.279  -0.123  1.00  0.00     0.054 A 
ATOM      9  C   UNL     1       7.994  -1.634  -2.831  1.00  0.00     0.051 A 
ATOM     10  C   UNL     1       8.290  -2.529  -0.642  1.00  0.00     0.166 A 
ATOM     11  C   UNL     1       8.317  -2.708  -2.007  1.00  0.00     0.165 A 
ATOM     12  O   UNL     1       8.644  -3.724  -0.054  1.00  0.00    -0.454 OA
ATOM     13  O   UNL     1       8.692  -4.023  -2.231  1.00  0.00    -0.454 OA
ATOM     14  C   UNL     1       8.997  -4.678  -1.023  1.00  0.00     0.468 C 
ENDBRANCH   5   6
ENDBRANCH   1   5
TORSDOF 3
ENDMDL
MODEL 3
REMARK VINA RESULT:      -7.2      2.083      2.615
REMARK SMILES CC(=O)CCc1ccc2c(c1)OCO2
REMARK SMILES IDX 4 1 2 2 1 3 3 4 5 5 6 6 7 7 11 8 8 9 10 10 9 11 12 12 14 13
REMARK SMILES IDX 13 14
REMARK H PARENT
REMARK Flexibility Score: inf
ROOT
ATOM      1  C   UNL     1       5.554   0.019   1.946  1.00  0.00     0.080 C 
ENDROOT
BRANCH   1   2
ATOM      2  C   UNL     1       4.660   1.170   1.640  1.00  0.00     0.130 C 
ATOM      3  C   UNL     1       4.952   2.111   0.525  1.00  0.00     0.087 C 
ATOM      4  O   UNL     1       3.654   1.375   2.300  1.00  0.00    -0.300 OA
ENDBRANCH   1   2
BRANCH   1   5
ATOM      5  C   UNL     1       6.967   0.276   1.463  1.00  0.00     0.043 C 
BRANCH   5   6
ATOM      6  C   UNL     1       7.375  -0.690   0.426  1.00  0.00    -0.044 A 
ATOM      7  C   UNL     1       7.274  -0.389  -0.937  1.00  0.00     0.008 A 
ATOM      8  C   UNL     1       7.870  -1.919   0.797  1.00  0.00     0.054 A 
ATOM      9  C   UNL     1       7.672  -1.334  -1.864  1.00  0.00     0.051 A 
ATOM     10  C   UNL     1       8.272  -2.872  -0.145  1.00  0.00     0.166 A 
ATOM     11  C   UNL     1       8.172  -2.576  -1.486  1.00  0.00     0.165 A 
ATOM     12  O   UNL     1       8.788  -4.145  -0.032  1.00  0.00    -0.454 OA
ATOM     13  O   UNL     1       8.635  -3.686  -2.177  1.00  0.00    -0.454 OA
ATOM     14  C   UNL     1       9.120  -4.668  -1.293  1.00  0.00     0.468 C 
ENDBRANCH   5   6
ENDBRANCH   1   5
TORSDOF 3
ENDMDL
MODEL 4
REMARK VINA RESULT:      -7.1      1.252      1.463
REMARK SMILES CC(=O)CCc1ccc2c(c1)OCO2
REMARK SMILES IDX 4 1 2 2 1 3 3 4 5 5 6 6 7 7 11 8 8 9 10 10 9 11 12 12 14 13
REMARK SMILES IDX 13 14
REMARK H PARENT
REMARK Flexibility Score: inf
ROOT
ATOM      1  C   UNL     1       6.383   1.186   0.963  1.00  0.00     0.080 C 
ENDROOT
BRANCH   1   2
ATOM      2  C   UNL     1       5.648   0.361   1.963  1.00  0.00     0.130 C 
ATOM      3  C   UNL     1       6.233  -0.884   2.529  1.00  0.00     0.087 C 
ATOM      4  O   UNL     1       4.537   0.687   2.348  1.00  0.00    -0.300 OA
ENDBRANCH   1   2
BRANCH   1   5
ATOM      5  C   UNL     1       5.870   0.934  -0.441  1.00  0.00     0.043 C 
BRANCH   5   6
ATOM      6  C   UNL     1       6.805   0.105  -1.223  1.00  0.00    -0.044 A 
ATOM      7  C   UNL     1       7.465   0.609  -2.350  1.00  0.00     0.008 A 
ATOM      8  C   UNL     1       7.044  -1.196  -0.844  1.00  0.00     0.054 A 
ATOM      9  C   UNL     1       8.331  -0.215  -3.045  1.00  0.00     0.051 A 
ATOM     10  C   UNL     1       7.921  -2.025  -1.550  1.00  0.00     0.166 A 
ATOM     11  C   UNL     1       8.570  -1.530  -2.659  1.00  0.00     0.165 A 
ATOM     12  O   UNL     1       8.321  -3.333  -1.378  1.00  0.00    -0.454 OA
ATOM     13  O   UNL     1       9.363  -2.555  -3.150  1.00  0.00    -0.454 OA
ATOM     14  C   UNL     1       9.305  -3.687  -2.315  1.00  0.00     0.468 C 
ENDBRANCH   5   6
ENDBRANCH   1   5
TORSDOF 3
ENDMDL
MODEL 5
REMARK VINA RESULT:      -7.0      1.973      2.547
REMARK SMILES CC(=O)CCc1ccc2c(c1)OCO2
REMARK SMILES IDX 4 1 2 2 1 3 3 4 5 5 6 6 7 7 11 8 8 9 10 10 9 11 12 12 14 13
REMARK SMILES IDX 13 14
REMARK H PARENT
REMARK Flexibility Score: inf
ROOT
ATOM      1  C   UNL     1       6.876   0.803   1.267  1.00  0.00     0.080 C 
ENDROOT
BRANCH   1   2
ATOM      2  C   UNL     1       5.437   1.144   1.443  1.00  0.00     0.130 C 
ATOM      3  C   UNL     1       4.759   2.143   0.574  1.00  0.00     0.087 C 
ATOM      4  O   UNL     1       4.768   0.608   2.311  1.00  0.00    -0.300 OA
ENDBRANCH   1   2
BRANCH   1   5
ATOM      5  C   UNL     1       7.314   0.988  -0.172  1.00  0.00     0.043 C 
BRANCH   5   6
ATOM      6  C   UNL     1       7.664  -0.296  -0.806  1.00  0.00    -0.044 A 
ATOM      7  C   UNL     1       7.704  -0.440  -2.197  1.00  0.00     0.008 A 
ATOM      8  C   UNL     1       7.964  -1.385  -0.020  1.00  0.00     0.054 A 
ATOM      9  C   UNL     1       8.039  -1.669  -2.735  1.00  0.00     0.051 A 
ATOM     10  C   UNL     1       8.304  -2.625  -0.568  1.00  0.00     0.166 A 
ATOM     11  C   UNL     1       8.341  -2.768  -1.938  1.00  0.00     0.165 A 
ATOM     12  O   UNL     1       8.637  -3.841  -0.010  1.00  0.00    -0.454 OA
ATOM     13  O   UNL     1       8.702  -4.082  -2.194  1.00  0.00    -0.454 OA
ATOM     14  C   UNL     1       8.987  -4.773  -1.001  1.00  0.00     0.468 C 
ENDBRANCH   5   6
ENDBRANCH   1   5
TORSDOF 3
ENDMDL
