@<TRIPOS>MOLECULE
/home/cewinharhar/GITHUB/reincatalyze/data/processed/docking_pred/2023-May-23-1437_sub9_nm5_bs15_s42_ex16_mel10_mts10000_k50_ec02_g099_lra3e-4_lrc1e-3/5f7ce1df4e505eeb6c5bd28a98530cf3f623dbf2_ligand_9.pdbqt
 14 15 0 0 0
SMALL
GASTEIGER

@<TRIPOS>ATOM
      1  C          5.5600    1.9060    1.2960 C.3     1  UNL1        0.0800
      2  C          5.1120    0.6890    2.0290 C.2     1  UNL1        0.1300
      3  C          6.0030   -0.4890    2.2030 C.3     1  UNL1        0.0870
      4  O          3.9930    0.6250    2.5120 O.2     1  UNL1       -0.3000
      5  C          5.4220    1.7260   -0.2030 C.3     1  UNL1        0.0430
      6  C          6.5840    1.0250   -0.7780 C.2     1  UNL1       -0.0440
      7  C          7.8930    1.4610   -0.5430 C.2     1  UNL1        0.0080
      8  C          6.3890   -0.0870   -1.5650 C.2     1  UNL1        0.0540
      9  C          8.9450    0.7630   -1.1090 C.2     1  UNL1        0.0510
     10  C          7.4550   -0.7900   -2.1340 C.2     1  UNL1        0.1660
     11  C          8.7440   -0.3610   -1.9040 C.2     1  UNL1        0.1650
     12  O          7.5210   -1.9060   -2.9400 O.2     1  UNL1       -0.4540
     13  O          9.5830   -1.2330   -2.5800 O.2     1  UNL1       -0.4540
     14  C          8.8540   -2.2800   -3.1760 C.3     1  UNL1        0.4680
@<TRIPOS>BOND
     1    14    12    1
     2    14    13    1
     3    12    10    1
     4    13    11    1
     5    10    11    2
     6    10     8    1
     7    11     9    1
     8     8     6    2
     9     9     7    2
    10     6     7    1
    11     6     5    1
    12     5     1    1
    13     1     2    1
    14     2     3    1
    15     2     4    2
