@<TRIPOS>MOLECULE
/home/cewinharhar/GITHUB/reincatalyze/data/processed/docking_pred/2023-May-23-1437_sub9_nm5_bs15_s42_ex16_mel10_mts10000_k50_ec02_g099_lra3e-4_lrc1e-3/5f7ce1df4e505eeb6c5bd28a98530cf3f623dbf2_ligand_9.pdbqt
 14 15 0 0 0
SMALL
GASTEIGER

@<TRIPOS>ATOM
      1  C          6.3830    1.1860    0.9630 C.3     1  UNL1        0.0800
      2  C          5.6480    0.3610    1.9630 C.2     1  UNL1        0.1300
      3  C          6.2330   -0.8840    2.5290 C.3     1  UNL1        0.0870
      4  O          4.5370    0.6870    2.3480 O.2     1  UNL1       -0.3000
      5  C          5.8700    0.9340   -0.4410 C.3     1  UNL1        0.0430
      6  C          6.8050    0.1050   -1.2230 C.2     1  UNL1       -0.0440
      7  C          7.4650    0.6090   -2.3500 C.2     1  UNL1        0.0080
      8  C          7.0440   -1.1960   -0.8440 C.2     1  UNL1        0.0540
      9  C          8.3310   -0.2150   -3.0450 C.2     1  UNL1        0.0510
     10  C          7.9210   -2.0250   -1.5500 C.2     1  UNL1        0.1660
     11  C          8.5700   -1.5300   -2.6590 C.2     1  UNL1        0.1650
     12  O          8.3210   -3.3330   -1.3780 O.2     1  UNL1       -0.4540
     13  O          9.3630   -2.5550   -3.1500 O.2     1  UNL1       -0.4540
     14  C          9.3050   -3.6870   -2.3150 C.3     1  UNL1        0.4680
@<TRIPOS>BOND
     1    13    11    1
     2    13    14    1
     3     9    11    2
     4     9     7    1
     5    11    10    1
     6     7     6    2
     7    14    12    1
     8    10    12    1
     9    10     8    2
    10     6     8    1
    11     6     5    1
    12     5     1    1
    13     1     2    1
    14     2     4    2
    15     2     3    1
