@<TRIPOS>MOLECULE
/home/cewinharhar/GITHUB/reincatalyze/data/processed/docking_pred/2023-May-23-1437_sub9_nm5_bs15_s42_ex16_mel10_mts10000_k50_ec02_g099_lra3e-4_lrc1e-3/5f7ce1df4e505eeb6c5bd28a98530cf3f623dbf2_ligand_9.pdbqt
 14 15 0 0 0
SMALL
GASTEIGER

@<TRIPOS>ATOM
      1  C          6.8760    0.8030    1.2670 C.3     1  UNL1        0.0800
      2  C          5.4370    1.1440    1.4430 C.2     1  UNL1        0.1300
      3  C          4.7590    2.1430    0.5740 C.3     1  UNL1        0.0870
      4  O          4.7680    0.6080    2.3110 O.2     1  UNL1       -0.3000
      5  C          7.3140    0.9880   -0.1720 C.3     1  UNL1        0.0430
      6  C          7.6640   -0.2960   -0.8060 C.2     1  UNL1       -0.0440
      7  C          7.7040   -0.4400   -2.1970 C.2     1  UNL1        0.0080
      8  C          7.9640   -1.3850   -0.0200 C.2     1  UNL1        0.0540
      9  C          8.0390   -1.6690   -2.7350 C.2     1  UNL1        0.0510
     10  C          8.3040   -2.6250   -0.5680 C.2     1  UNL1        0.1660
     11  C          8.3410   -2.7680   -1.9380 C.2     1  UNL1        0.1650
     12  O          8.6370   -3.8410   -0.0100 O.2     1  UNL1       -0.4540
     13  O          8.7020   -4.0820   -2.1940 O.2     1  UNL1       -0.4540
     14  C          8.9870   -4.7730   -1.0010 C.3     1  UNL1        0.4680
@<TRIPOS>BOND
     1     9     7    1
     2     9    11    2
     3     7     6    2
     4    13    11    1
     5    13    14    1
     6    11    10    1
     7    14    12    1
     8     6     5    1
     9     6     8    1
    10    10     8    2
    11    10    12    1
    12     5     1    1
    13     3     2    1
    14     1     2    1
    15     2     4    2
