@<TRIPOS>MOLECULE
/home/cewinharhar/GITHUB/reincatalyze/data/processed/docking_pred/2023-May-23-1437_sub9_nm5_bs15_s42_ex16_mel10_mts10000_k50_ec02_g099_lra3e-4_lrc1e-3/6047b5c71b47d2a809e14c46b0582b8ae3076bc9_ligand_9.pdbqt
 14 15 0 0 0
SMALL
GASTEIGER

@<TRIPOS>ATOM
      1  C          5.5080    1.9240    1.2600 C.3     1  UNL1        0.0800
      2  C          5.0670    0.7070    1.9980 C.2     1  UNL1        0.1300
      3  C          5.9570   -0.4740    2.1550 C.3     1  UNL1        0.0870
      4  O          3.9560    0.6450    2.4970 O.2     1  UNL1       -0.3000
      5  C          5.3850    1.7340   -0.2390 C.3     1  UNL1        0.0430
      6  C          6.5550    1.0330   -0.7980 C.2     1  UNL1       -0.0440
      7  C          7.8610    1.4670   -0.5420 C.2     1  UNL1        0.0080
      8  C          6.3710   -0.0770   -1.5900 C.2     1  UNL1        0.0540
      9  C          8.9200    0.7700   -1.0930 C.2     1  UNL1        0.0510
     10  C          7.4450   -0.7790   -2.1440 C.2     1  UNL1        0.1660
     11  C          8.7300   -0.3520   -1.8940 C.2     1  UNL1        0.1650
     12  O          7.5220   -1.8940   -2.9520 O.2     1  UNL1       -0.4540
     13  O          9.5790   -1.2230   -2.5590 O.2     1  UNL1       -0.4540
     14  C          8.8590   -2.2680   -3.1680 C.3     1  UNL1        0.4680
@<TRIPOS>BOND
     1    14    12    1
     2    14    13    1
     3    12    10    1
     4    13    11    1
     5    10    11    2
     6    10     8    1
     7    11     9    1
     8     8     6    2
     9     9     7    2
    10     6     7    1
    11     6     5    1
    12     5     1    1
    13     1     2    1
    14     2     3    1
    15     2     4    2
