@<TRIPOS>MOLECULE
/home/cewinharhar/GITHUB/reincatalyze/data/processed/docking_pred/2023-May-23-1437_sub9_nm5_bs15_s42_ex16_mel10_mts10000_k50_ec02_g099_lra3e-4_lrc1e-3/6047b5c71b47d2a809e14c46b0582b8ae3076bc9_ligand_9.pdbqt
 14 15 0 0 0
SMALL
GASTEIGER

@<TRIPOS>ATOM
      1  C          5.7800    1.3330   -0.2720 C.3     1  UNL1        0.0800
      2  C          5.1400    1.2610    1.0720 C.2     1  UNL1        0.1300
      3  C          5.3720    0.1110    1.9870 C.3     1  UNL1        0.0870
      4  O          4.4000    2.1500    1.4620 O.2     1  UNL1       -0.3000
      5  C          7.2680    1.0580   -0.1880 C.3     1  UNL1        0.0430
      6  C          7.6220   -0.2310   -0.8090 C.2     1  UNL1       -0.0440
      7  C          7.6490   -0.3920   -2.1990 C.2     1  UNL1        0.0080
      8  C          7.9370   -1.3080   -0.0120 C.2     1  UNL1        0.0540
      9  C          7.9900   -1.6250   -2.7250 C.2     1  UNL1        0.0510
     10  C          8.2810   -2.5520   -0.5490 C.2     1  UNL1        0.1660
     11  C          8.3070   -2.7120   -1.9170 C.2     1  UNL1        0.1650
     12  O          8.6280   -3.7580    0.0220 O.2     1  UNL1       -0.4540
     13  O          8.6750   -4.0260   -2.1600 O.2     1  UNL1       -0.4540
     14  C          8.9760   -4.7000   -0.9610 C.3     1  UNL1        0.4680
@<TRIPOS>BOND
     1     9     7    1
     2     9    11    2
     3     7     6    2
     4    13    11    1
     5    13    14    1
     6    11    10    1
     7    14    12    1
     8     6     5    1
     9     6     8    1
    10    10     8    2
    11    10    12    1
    12     1     5    1
    13     1     2    1
    14     2     4    2
    15     2     3    1
