@<TRIPOS>MOLECULE
/home/cewinharhar/GITHUB/reincatalyze/data/processed/docking_pred/2023-May-23-1437_sub9_nm5_bs15_s42_ex16_mel10_mts10000_k50_ec02_g099_lra3e-4_lrc1e-3/6070aa1b8336213875ea865ca7f6d729a9af33a9_ligand_9.pdbqt
 14 15 0 0 0
SMALL
GASTEIGER

@<TRIPOS>ATOM
      1  C          5.7150    1.3210   -0.2440 C.3     1  UNL1        0.0800
      2  C          5.1010    1.2430    1.1100 C.2     1  UNL1        0.1300
      3  C          5.3080    0.0650    1.9950 C.3     1  UNL1        0.0870
      4  O          4.4030    2.1500    1.5360 O.2     1  UNL1       -0.3000
      5  C          7.2110    1.0850   -0.1840 C.3     1  UNL1        0.0430
      6  C          7.5870   -0.1990   -0.8020 C.2     1  UNL1       -0.0440
      7  C          7.6110   -0.3650   -2.1910 C.2     1  UNL1        0.0080
      8  C          7.9270   -1.2670   -0.0020 C.2     1  UNL1        0.0540
      9  C          7.9730   -1.5930   -2.7140 C.2     1  UNL1        0.0510
     10  C          8.2920   -2.5060   -0.5360 C.2     1  UNL1        0.1660
     11  C          8.3150   -2.6710   -1.9030 C.2     1  UNL1        0.1650
     12  O          8.6660   -3.7030    0.0380 O.2     1  UNL1       -0.4540
     13  O          8.7070   -3.9790   -2.1420 O.2     1  UNL1       -0.4540
     14  C          9.0270   -4.6410   -0.9420 C.3     1  UNL1        0.4680
@<TRIPOS>BOND
     1     9     7    1
     2     9    11    2
     3     7     6    2
     4    13    11    1
     5    13    14    1
     6    11    10    1
     7    14    12    1
     8     6     5    1
     9     6     8    1
    10    10     8    2
    11    10    12    1
    12     1     5    1
    13     1     2    1
    14     2     4    2
    15     2     3    1
