@<TRIPOS>MOLECULE
/home/cewinharhar/GITHUB/reincatalyze/data/processed/docking_pred/2023-May-23-1437_sub9_nm5_bs15_s42_ex16_mel10_mts10000_k50_ec02_g099_lra3e-4_lrc1e-3/6070aa1b8336213875ea865ca7f6d729a9af33a9_ligand_9.pdbqt
 14 15 0 0 0
SMALL
GASTEIGER

@<TRIPOS>ATOM
      1  C          5.5600    1.8950    1.2880 C.3     1  UNL1        0.0800
      2  C          5.1220    0.6760    2.0230 C.2     1  UNL1        0.1300
      3  C          6.0200   -0.4980    2.1940 C.3     1  UNL1        0.0870
      4  O          4.0050    0.6050    2.5100 O.2     1  UNL1       -0.3000
      5  C          5.4230    1.7120   -0.2110 C.3     1  UNL1        0.0430
      6  C          6.5870    1.0130   -0.7850 C.2     1  UNL1       -0.0440
      7  C          7.8960    1.4460   -0.5410 C.2     1  UNL1        0.0080
      8  C          6.3940   -0.0940   -1.5790 C.2     1  UNL1        0.0540
      9  C          8.9490    0.7490   -1.1050 C.2     1  UNL1        0.0510
     10  C          7.4620   -0.7950   -2.1470 C.2     1  UNL1        0.1660
     11  C          8.7500   -0.3700   -1.9080 C.2     1  UNL1        0.1650
     12  O          7.5300   -1.9070   -2.9590 O.2     1  UNL1       -0.4540
     13  O          9.5910   -1.2390   -2.5850 O.2     1  UNL1       -0.4540
     14  C          8.8640   -2.2820   -3.1900 C.3     1  UNL1        0.4680
@<TRIPOS>BOND
     1    14    12    1
     2    14    13    1
     3    12    10    1
     4    13    11    1
     5    10    11    2
     6    10     8    1
     7    11     9    1
     8     8     6    2
     9     9     7    2
    10     6     7    1
    11     6     5    1
    12     5     1    1
    13     1     2    1
    14     2     3    1
    15     2     4    2
