@<TRIPOS>MOLECULE
/home/cewinharhar/GITHUB/reincatalyze/data/processed/docking_pred/2023-May-23-1437_sub9_nm5_bs15_s42_ex16_mel10_mts10000_k50_ec02_g099_lra3e-4_lrc1e-3/650932a4c96e02f0afcc120cab6b741f416c7ae8_ligand_9.pdbqt
 14 15 0 0 0
SMALL
GASTEIGER

@<TRIPOS>ATOM
      1  C          6.5090    0.5860    1.3130 C.3     1  UNL1        0.0800
      2  C          6.0260    0.9590   -0.0460 C.2     1  UNL1        0.1300
      3  C          5.1400    2.1340   -0.2630 C.3     1  UNL1        0.0870
      4  O          6.3450    0.3060   -1.0260 O.2     1  UNL1       -0.3000
      5  C          6.4550   -0.9150    1.5230 C.3     1  UNL1        0.0430
      6  C          7.6020   -1.3980    2.3120 C.2     1  UNL1       -0.0440
      7  C          7.7080   -1.1410    3.6840 C.2     1  UNL1        0.0080
      8  C          8.5970   -2.1220    1.6960 C.2     1  UNL1        0.0540
      9  C          8.8070   -1.6210    4.3730 C.2     1  UNL1        0.0510
     10  C          9.7060   -2.6050    2.3980 C.2     1  UNL1        0.1660
     11  C          9.8120   -2.3520    3.7470 C.2     1  UNL1        0.1650
     12  O         10.8110   -3.3370    2.0190 O.2     1  UNL1       -0.4540
     13  O         10.9920   -2.9410    4.1740 O.2     1  UNL1       -0.4540
     14  C         11.6110   -3.6530    3.1300 C.3     1  UNL1        0.4680
@<TRIPOS>BOND
     1     4     2    2
     2     3     2    1
     3     2     1    1
     4     1     5    1
     5     5     6    1
     6     8     6    2
     7     8    10    1
     8    12    10    1
     9    12    14    1
    10     6     7    1
    11    10    11    2
    12    14    13    1
    13     7     9    2
    14    11    13    1
    15    11     9    1
