@<TRIPOS>MOLECULE
/home/cewinharhar/GITHUB/reincatalyze/data/processed/docking_pred/2023-May-23-1437_sub9_nm5_bs15_s42_ex16_mel10_mts10000_k50_ec02_g099_lra3e-4_lrc1e-3/650932a4c96e02f0afcc120cab6b741f416c7ae8_ligand_9.pdbqt
 14 15 0 0 0
SMALL
GASTEIGER

@<TRIPOS>ATOM
      1  C          5.8030    1.4420   -0.4200 C.3     1  UNL1        0.0800
      2  C          5.1350    1.3520    0.9080 C.2     1  UNL1        0.1300
      3  C          5.4900    0.2930    1.8900 C.3     1  UNL1        0.0870
      4  O          4.2700    2.1500    1.2300 O.2     1  UNL1       -0.3000
      5  C          7.2880    1.1560   -0.3100 C.3     1  UNL1        0.0430
      6  C          7.6390   -0.1450   -0.9080 C.2     1  UNL1       -0.0440
      7  C          7.6990   -0.3220   -2.2950 C.2     1  UNL1        0.0080
      8  C          7.9190   -1.2170   -0.0920 C.2     1  UNL1        0.0540
      9  C          8.0350   -1.5650   -2.7990 C.2     1  UNL1        0.0510
     10  C          8.2600   -2.4720   -0.6060 C.2     1  UNL1        0.1660
     11  C          8.3180   -2.6480   -1.9710 C.2     1  UNL1        0.1650
     12  O          8.5760   -3.6760   -0.0130 O.2     1  UNL1       -0.4540
     13  O          8.6730   -3.9690   -2.1900 O.2     1  UNL1       -0.4540
     14  C          8.9350   -4.6330   -0.9770 C.3     1  UNL1        0.4680
@<TRIPOS>BOND
     1     9     7    1
     2     9    11    2
     3     7     6    2
     4    13    11    1
     5    13    14    1
     6    11    10    1
     7    14    12    1
     8     6     5    1
     9     6     8    1
    10    10     8    2
    11    10    12    1
    12     1     5    1
    13     1     2    1
    14     2     4    2
    15     2     3    1
