@<TRIPOS>MOLECULE
/home/cewinharhar/GITHUB/reincatalyze/data/processed/docking_pred/2023-May-23-1437_sub9_nm5_bs15_s42_ex16_mel10_mts10000_k50_ec02_g099_lra3e-4_lrc1e-3/650932a4c96e02f0afcc120cab6b741f416c7ae8_ligand_9.pdbqt
 14 15 0 0 0
SMALL
GASTEIGER

@<TRIPOS>ATOM
      1  C          5.4820    1.9210    1.2600 C.3     1  UNL1        0.0800
      2  C          4.9750    0.7220    1.9830 C.2     1  UNL1        0.1300
      3  C          5.7710   -0.5320    2.0680 C.3     1  UNL1        0.0870
      4  O          3.8840    0.7340    2.5300 O.2     1  UNL1       -0.3000
      5  C          5.3720    1.7460   -0.2420 C.3     1  UNL1        0.0430
      6  C          6.5450    1.0480   -0.7970 C.2     1  UNL1       -0.0440
      7  C          7.8490    1.4810   -0.5340 C.2     1  UNL1        0.0080
      8  C          6.3650   -0.0610   -1.5930 C.2     1  UNL1        0.0540
      9  C          8.9110    0.7850   -1.0830 C.2     1  UNL1        0.0510
     10  C          7.4420   -0.7610   -2.1450 C.2     1  UNL1        0.1660
     11  C          8.7250   -0.3340   -1.8870 C.2     1  UNL1        0.1650
     12  O          7.5230   -1.8740   -2.9550 O.2     1  UNL1       -0.4540
     13  O          9.5770   -1.2030   -2.5510 O.2     1  UNL1       -0.4540
     14  C          8.8600   -2.2470   -3.1660 C.3     1  UNL1        0.4680
@<TRIPOS>BOND
     1    14    12    1
     2    14    13    1
     3    12    10    1
     4    13    11    1
     5    10    11    2
     6    10     8    1
     7    11     9    1
     8     8     6    2
     9     9     7    2
    10     6     7    1
    11     6     5    1
    12     5     1    1
    13     1     2    1
    14     2     3    1
    15     2     4    2
