@<TRIPOS>MOLECULE
/home/cewinharhar/GITHUB/reincatalyze/data/processed/docking_pred/2023-May-23-1437_sub9_nm5_bs15_s42_ex16_mel10_mts10000_k50_ec02_g099_lra3e-4_lrc1e-3/661305b30cebe31e235170a50c1781f21e405ac9_ligand_9.pdbqt
 14 15 0 0 0
SMALL
GASTEIGER

@<TRIPOS>ATOM
      1  C          5.5160    1.9230    1.2540 C.3     1  UNL1        0.0800
      2  C          5.0820    0.7090    2.0010 C.2     1  UNL1        0.1300
      3  C          5.9810   -0.4620    2.1800 C.3     1  UNL1        0.0870
      4  O          3.9660    0.6410    2.4900 O.2     1  UNL1       -0.3000
      5  C          5.3890    1.7230   -0.2430 C.3     1  UNL1        0.0430
      6  C          6.5580    1.0210   -0.8030 C.2     1  UNL1       -0.0440
      7  C          7.8630    1.4630   -0.5600 C.2     1  UNL1        0.0080
      8  C          6.3730   -0.0990   -1.5810 C.2     1  UNL1        0.0540
      9  C          8.9220    0.7630   -1.1100 C.2     1  UNL1        0.0510
     10  C          7.4470   -0.8030   -2.1350 C.2     1  UNL1        0.1660
     11  C          8.7320   -0.3680   -1.8980 C.2     1  UNL1        0.1650
     12  O          7.5230   -1.9260   -2.9310 O.2     1  UNL1       -0.4540
     13  O          9.5790   -1.2430   -2.5590 O.2     1  UNL1       -0.4540
     14  C          8.8600   -2.2970   -3.1520 C.3     1  UNL1        0.4680
@<TRIPOS>BOND
     1    14    12    1
     2    14    13    1
     3    12    10    1
     4    13    11    1
     5    10    11    2
     6    10     8    1
     7    11     9    1
     8     8     6    2
     9     9     7    2
    10     6     7    1
    11     6     5    1
    12     5     1    1
    13     1     2    1
    14     2     3    1
    15     2     4    2
