@<TRIPOS>MOLECULE
/home/cewinharhar/GITHUB/reincatalyze/data/processed/docking_pred/2023-May-23-1437_sub9_nm5_bs15_s42_ex16_mel10_mts10000_k50_ec02_g099_lra3e-4_lrc1e-3/661305b30cebe31e235170a50c1781f21e405ac9_ligand_9.pdbqt
 14 15 0 0 0
SMALL
GASTEIGER

@<TRIPOS>ATOM
      1  C          5.7650    1.3560   -0.3100 C.3     1  UNL1        0.0800
      2  C          5.1960    1.2980    1.0660 C.2     1  UNL1        0.1300
      3  C          5.5570    0.2100    2.0140 C.3     1  UNL1        0.0870
      4  O          4.4100    2.1460    1.4560 O.2     1  UNL1       -0.3000
      5  C          7.2640    1.1310   -0.2950 C.3     1  UNL1        0.0430
      6  C          7.6260   -0.1720   -0.8820 C.2     1  UNL1       -0.0440
      7  C          7.6720   -0.3640   -2.2670 C.2     1  UNL1        0.0080
      8  C          7.9310   -1.2300   -0.0570 C.2     1  UNL1        0.0540
      9  C          8.0190   -1.6090   -2.7610 C.2     1  UNL1        0.0510
     10  C          8.2820   -2.4860   -0.5600 C.2     1  UNL1        0.1660
     11  C          8.3260   -2.6770   -1.9240 C.2     1  UNL1        0.1650
     12  O          8.6220   -3.6790    0.0420 O.2     1  UNL1       -0.4540
     13  O          8.6980   -3.9960   -2.1320 O.2     1  UNL1       -0.4540
     14  C          8.9830   -4.6420   -0.9140 C.3     1  UNL1        0.4680
@<TRIPOS>BOND
     1     9     7    1
     2     9    11    2
     3     7     6    2
     4    13    11    1
     5    13    14    1
     6    11    10    1
     7    14    12    1
     8     6     5    1
     9     6     8    1
    10    10     8    2
    11    10    12    1
    12     1     5    1
    13     1     2    1
    14     2     4    2
    15     2     3    1
