MODEL 1
REMARK VINA RESULT:      -7.7      0.000      0.000
REMARK SMILES CC(=O)CCc1ccc2c(c1)OCO2
REMARK SMILES IDX 4 1 2 2 1 3 3 4 5 5 6 6 7 7 11 8 8 9 10 10 9 11 12 12 14 13
REMARK SMILES IDX 13 14
REMARK H PARENT
REMARK Flexibility Score: inf
ROOT
ATOM      1  C   UNL     1       5.521   1.943   1.252  1.00  0.00     0.080 C 
ENDROOT
BRANCH   1   2
ATOM      2  C   UNL     1       5.103   0.724   1.999  1.00  0.00     0.130 C 
ATOM      3  C   UNL     1       6.021  -0.431   2.184  1.00  0.00     0.087 C 
ATOM      4  O   UNL     1       3.986   0.638   2.483  1.00  0.00    -0.300 OA
ENDBRANCH   1   2
BRANCH   1   5
ATOM      5  C   UNL     1       5.394   1.741  -0.245  1.00  0.00     0.043 C 
BRANCH   5   6
ATOM      6  C   UNL     1       6.562   1.035  -0.802  1.00  0.00    -0.044 A 
ATOM      7  C   UNL     1       7.869   1.461  -0.542  1.00  0.00     0.008 A 
ATOM      8  C   UNL     1       6.374  -0.073  -1.596  1.00  0.00     0.054 A 
ATOM      9  C   UNL     1       8.926   0.758  -1.091  1.00  0.00     0.051 A 
ATOM     10  C   UNL     1       7.446  -0.781  -2.148  1.00  0.00     0.166 A 
ATOM     11  C   UNL     1       8.732  -0.362  -1.894  1.00  0.00     0.165 A 
ATOM     12  O   UNL     1       7.519  -1.895  -2.958  1.00  0.00    -0.454 OA
ATOM     13  O   UNL     1       9.578  -1.236  -2.558  1.00  0.00    -0.454 OA
ATOM     14  C   UNL     1       8.854  -2.277  -3.170  1.00  0.00     0.468 C 
ENDBRANCH   5   6
ENDBRANCH   1   5
TORSDOF 3
ENDMDL
MODEL 2
REMARK VINA RESULT:      -7.3      2.052      2.635
REMARK SMILES CC(=O)CCc1ccc2c(c1)OCO2
REMARK SMILES IDX 4 1 2 2 1 3 3 4 5 5 6 6 7 7 11 8 8 9 10 10 9 11 12 12 14 13
REMARK SMILES IDX 13 14
REMARK H PARENT
REMARK Flexibility Score: inf
ROOT
ATOM      1  C   UNL     1       5.407  -0.071   2.044  1.00  0.00     0.080 C 
ENDROOT
BRANCH   1   2
ATOM      2  C   UNL     1       4.563   1.127   1.778  1.00  0.00     0.130 C 
ATOM      3  C   UNL     1       4.915   2.109   0.717  1.00  0.00     0.087 C 
ATOM      4  O   UNL     1       3.552   1.339   2.428  1.00  0.00    -0.300 OA
ENDBRANCH   1   2
BRANCH   1   5
ATOM      5  C   UNL     1       6.848   0.170   1.643  1.00  0.00     0.043 C 
BRANCH   5   6
ATOM      6  C   UNL     1       7.277  -0.744   0.569  1.00  0.00    -0.044 A 
ATOM      7  C   UNL     1       7.151  -0.398  -0.782  1.00  0.00     0.008 A 
ATOM      8  C   UNL     1       7.817  -1.968   0.890  1.00  0.00     0.054 A 
ATOM      9  C   UNL     1       7.571  -1.296  -1.746  1.00  0.00     0.051 A 
ATOM     10  C   UNL     1       8.241  -2.872  -0.089  1.00  0.00     0.166 A 
ATOM     11  C   UNL     1       8.117  -2.533  -1.418  1.00  0.00     0.165 A 
ATOM     12  O   UNL     1       8.801  -4.131  -0.027  1.00  0.00    -0.454 OA
ATOM     13  O   UNL     1       8.609  -3.601  -2.152  1.00  0.00    -0.454 OA
ATOM     14  C   UNL     1       9.136  -4.597  -1.308  1.00  0.00     0.468 C 
ENDBRANCH   5   6
ENDBRANCH   1   5
TORSDOF 3
ENDMDL
MODEL 3
REMARK VINA RESULT:      -7.1      1.948      2.503
REMARK SMILES CC(=O)CCc1ccc2c(c1)OCO2
REMARK SMILES IDX 4 1 2 2 1 3 3 4 5 5 6 6 7 7 11 8 8 9 10 10 9 11 12 12 14 13
REMARK SMILES IDX 13 14
REMARK H PARENT
REMARK Flexibility Score: inf
ROOT
ATOM      1  C   UNL     1       6.836   0.901   1.312  1.00  0.00     0.080 C 
ENDROOT
BRANCH   1   2
ATOM      2  C   UNL     1       5.377   1.176   1.429  1.00  0.00     0.130 C 
ATOM      3  C   UNL     1       4.692   2.150   0.538  1.00  0.00     0.087 C 
ATOM      4  O   UNL     1       4.697   0.605   2.266  1.00  0.00    -0.300 OA
ENDBRANCH   1   2
BRANCH   1   5
ATOM      5  C   UNL     1       7.320   1.093  -0.112  1.00  0.00     0.043 C 
BRANCH   5   6
ATOM      6  C   UNL     1       7.643  -0.193  -0.757  1.00  0.00    -0.044 A 
ATOM      7  C   UNL     1       7.638  -0.336  -2.149  1.00  0.00     0.008 A 
ATOM      8  C   UNL     1       7.960  -1.284   0.019  1.00  0.00     0.054 A 
ATOM      9  C   UNL     1       7.950  -1.566  -2.698  1.00  0.00     0.051 A 
ATOM     10  C   UNL     1       8.276  -2.526  -0.541  1.00  0.00     0.166 A 
ATOM     11  C   UNL     1       8.270  -2.668  -1.911  1.00  0.00     0.165 A 
ATOM     12  O   UNL     1       8.619  -3.744   0.006  1.00  0.00    -0.454 OA
ATOM     13  O   UNL     1       8.615  -3.983  -2.179  1.00  0.00    -0.454 OA
ATOM     14  C   UNL     1       8.933  -4.677  -0.996  1.00  0.00     0.468 C 
ENDBRANCH   5   6
ENDBRANCH   1   5
TORSDOF 3
ENDMDL
MODEL 4
REMARK VINA RESULT:      -7.1      1.977      2.494
REMARK SMILES CC(=O)CCc1ccc2c(c1)OCO2
REMARK SMILES IDX 4 1 2 2 1 3 3 4 5 5 6 6 7 7 11 8 8 9 10 10 9 11 12 12 14 13
REMARK SMILES IDX 13 14
REMARK H PARENT
REMARK Flexibility Score: inf
ROOT
ATOM      1  C   UNL     1       5.851   1.124  -0.247  1.00  0.00     0.080 C 
ENDROOT
BRANCH   1   2
ATOM      2  C   UNL     1       5.733   1.155   1.238  1.00  0.00     0.130 C 
ATOM      3  C   UNL     1       5.230  -0.016   2.006  1.00  0.00     0.087 C 
ATOM      4  O   UNL     1       6.047   2.149   1.871  1.00  0.00    -0.300 OA
ENDBRANCH   1   2
BRANCH   1   5
ATOM      5  C   UNL     1       7.302   1.110  -0.683  1.00  0.00     0.043 C 
BRANCH   5   6
ATOM      6  C   UNL     1       7.713  -0.218  -1.171  1.00  0.00    -0.044 A 
ATOM      7  C   UNL     1       7.930  -0.464  -2.532  1.00  0.00     0.008 A 
ATOM      8  C   UNL     1       7.894  -1.248  -0.276  1.00  0.00     0.054 A 
ATOM      9  C   UNL     1       8.315  -1.731  -2.932  1.00  0.00     0.051 A 
ATOM     10  C   UNL     1       8.284  -2.527  -0.685  1.00  0.00     0.166 A 
ATOM     11  C   UNL     1       8.496  -2.770  -2.024  1.00  0.00     0.165 A 
ATOM     12  O   UNL     1       8.526  -3.699  -0.001  1.00  0.00    -0.454 OA
ATOM     13  O   UNL     1       8.869  -4.101  -2.135  1.00  0.00    -0.454 OA
ATOM     14  C   UNL     1       8.988  -4.703  -0.868  1.00  0.00     0.468 C 
ENDBRANCH   5   6
ENDBRANCH   1   5
TORSDOF 3
ENDMDL
MODEL 5
REMARK VINA RESULT:      -7.1      1.255      1.467
REMARK SMILES CC(=O)CCc1ccc2c(c1)OCO2
REMARK SMILES IDX 4 1 2 2 1 3 3 4 5 5 6 6 7 7 11 8 8 9 10 10 9 11 12 12 14 13
REMARK SMILES IDX 13 14
REMARK H PARENT
REMARK Flexibility Score: inf
ROOT
ATOM      1  C   UNL     1       6.298   1.243   0.849  1.00  0.00     0.080 C 
ENDROOT
BRANCH   1   2
ATOM      2  C   UNL     1       5.643   0.394   1.883  1.00  0.00     0.130 C 
ATOM      3  C   UNL     1       6.294  -0.835   2.411  1.00  0.00     0.087 C 
ATOM      4  O   UNL     1       4.546   0.685   2.330  1.00  0.00    -0.300 OA
ENDBRANCH   1   2
BRANCH   1   5
ATOM      5  C   UNL     1       5.797   0.900  -0.541  1.00  0.00     0.043 C 
BRANCH   5   6
ATOM      6  C   UNL     1       6.772   0.085  -1.287  1.00  0.00    -0.044 A 
ATOM      7  C   UNL     1       7.479   0.603  -2.378  1.00  0.00     0.008 A 
ATOM      8  C   UNL     1       7.002  -1.219  -0.909  1.00  0.00     0.054 A 
ATOM      9  C   UNL     1       8.382  -0.209  -3.040  1.00  0.00     0.051 A 
ATOM     10  C   UNL     1       7.917  -2.036  -1.581  1.00  0.00     0.166 A 
ATOM     11  C   UNL     1       8.612  -1.527  -2.655  1.00  0.00     0.165 A 
ATOM     12  O   UNL     1       8.316  -3.343  -1.403  1.00  0.00    -0.454 OA
ATOM     13  O   UNL     1       9.433  -2.542  -3.118  1.00  0.00    -0.454 OA
ATOM     14  C   UNL     1       9.345  -3.682  -2.297  1.00  0.00     0.468 C 
ENDBRANCH   5   6
ENDBRANCH   1   5
TORSDOF 3
ENDMDL
