@<TRIPOS>MOLECULE
/home/cewinharhar/GITHUB/reincatalyze/data/processed/docking_pred/2023-May-23-1437_sub9_nm5_bs15_s42_ex16_mel10_mts10000_k50_ec02_g099_lra3e-4_lrc1e-3/67714d3181cdcfbe83529be90e704c7fe5693ba3_ligand_9.pdbqt
 14 15 0 0 0
SMALL
GASTEIGER

@<TRIPOS>ATOM
      1  C          6.2980    1.2430    0.8490 C.3     1  UNL1        0.0800
      2  C          5.6430    0.3940    1.8830 C.2     1  UNL1        0.1300
      3  C          6.2940   -0.8350    2.4110 C.3     1  UNL1        0.0870
      4  O          4.5460    0.6850    2.3300 O.2     1  UNL1       -0.3000
      5  C          5.7970    0.9000   -0.5410 C.3     1  UNL1        0.0430
      6  C          6.7720    0.0850   -1.2870 C.2     1  UNL1       -0.0440
      7  C          7.4790    0.6030   -2.3780 C.2     1  UNL1        0.0080
      8  C          7.0020   -1.2190   -0.9090 C.2     1  UNL1        0.0540
      9  C          8.3820   -0.2090   -3.0400 C.2     1  UNL1        0.0510
     10  C          7.9170   -2.0360   -1.5810 C.2     1  UNL1        0.1660
     11  C          8.6120   -1.5270   -2.6550 C.2     1  UNL1        0.1650
     12  O          8.3160   -3.3430   -1.4030 O.2     1  UNL1       -0.4540
     13  O          9.4330   -2.5420   -3.1180 O.2     1  UNL1       -0.4540
     14  C          9.3450   -3.6820   -2.2970 C.3     1  UNL1        0.4680
@<TRIPOS>BOND
     1    13    11    1
     2    13    14    1
     3     9    11    2
     4     9     7    1
     5    11    10    1
     6     7     6    2
     7    14    12    1
     8    10    12    1
     9    10     8    2
    10     6     8    1
    11     6     5    1
    12     5     1    1
    13     1     2    1
    14     2     4    2
    15     2     3    1
