@<TRIPOS>MOLECULE
/home/cewinharhar/GITHUB/reincatalyze/data/processed/docking_pred/2023-May-23-1437_sub9_nm5_bs15_s42_ex16_mel10_mts10000_k50_ec02_g099_lra3e-4_lrc1e-3/67714d3181cdcfbe83529be90e704c7fe5693ba3_ligand_9.pdbqt
 14 15 0 0 0
SMALL
GASTEIGER

@<TRIPOS>ATOM
      1  C          5.5210    1.9430    1.2520 C.3     1  UNL1        0.0800
      2  C          5.1030    0.7240    1.9990 C.2     1  UNL1        0.1300
      3  C          6.0210   -0.4310    2.1840 C.3     1  UNL1        0.0870
      4  O          3.9860    0.6380    2.4830 O.2     1  UNL1       -0.3000
      5  C          5.3940    1.7410   -0.2450 C.3     1  UNL1        0.0430
      6  C          6.5620    1.0350   -0.8020 C.2     1  UNL1       -0.0440
      7  C          7.8690    1.4610   -0.5420 C.2     1  UNL1        0.0080
      8  C          6.3740   -0.0730   -1.5960 C.2     1  UNL1        0.0540
      9  C          8.9260    0.7580   -1.0910 C.2     1  UNL1        0.0510
     10  C          7.4460   -0.7810   -2.1480 C.2     1  UNL1        0.1660
     11  C          8.7320   -0.3620   -1.8940 C.2     1  UNL1        0.1650
     12  O          7.5190   -1.8950   -2.9580 O.2     1  UNL1       -0.4540
     13  O          9.5780   -1.2360   -2.5580 O.2     1  UNL1       -0.4540
     14  C          8.8540   -2.2770   -3.1700 C.3     1  UNL1        0.4680
@<TRIPOS>BOND
     1    14    12    1
     2    14    13    1
     3    12    10    1
     4    13    11    1
     5    10    11    2
     6    10     8    1
     7    11     9    1
     8     8     6    2
     9     9     7    2
    10     6     7    1
    11     6     5    1
    12     5     1    1
    13     1     2    1
    14     2     3    1
    15     2     4    2
