@<TRIPOS>MOLECULE
/home/cewinharhar/GITHUB/reincatalyze/data/processed/docking_pred/2023-May-23-1437_sub9_nm5_bs15_s42_ex16_mel10_mts10000_k50_ec02_g099_lra3e-4_lrc1e-3/67714d3181cdcfbe83529be90e704c7fe5693ba3_ligand_9.pdbqt
 14 15 0 0 0
SMALL
GASTEIGER

@<TRIPOS>ATOM
      1  C          5.4070   -0.0710    2.0440 C.3     1  UNL1        0.0800
      2  C          4.5630    1.1270    1.7780 C.2     1  UNL1        0.1300
      3  C          4.9150    2.1090    0.7170 C.3     1  UNL1        0.0870
      4  O          3.5520    1.3390    2.4280 O.2     1  UNL1       -0.3000
      5  C          6.8480    0.1700    1.6430 C.3     1  UNL1        0.0430
      6  C          7.2770   -0.7440    0.5690 C.2     1  UNL1       -0.0440
      7  C          7.1510   -0.3980   -0.7820 C.2     1  UNL1        0.0080
      8  C          7.8170   -1.9680    0.8900 C.2     1  UNL1        0.0540
      9  C          7.5710   -1.2960   -1.7460 C.2     1  UNL1        0.0510
     10  C          8.2410   -2.8720   -0.0890 C.2     1  UNL1        0.1660
     11  C          8.1170   -2.5330   -1.4180 C.2     1  UNL1        0.1650
     12  O          8.8010   -4.1310   -0.0270 O.2     1  UNL1       -0.4540
     13  O          8.6090   -3.6010   -2.1520 O.2     1  UNL1       -0.4540
     14  C          9.1360   -4.5970   -1.3080 C.3     1  UNL1        0.4680
@<TRIPOS>BOND
     1    13    11    1
     2    13    14    1
     3     9    11    2
     4     9     7    1
     5    11    10    1
     6    14    12    1
     7     7     6    2
     8    10    12    1
     9    10     8    2
    10     6     8    1
    11     6     5    1
    12     3     2    1
    13     5     1    1
    14     2     1    1
    15     2     4    2
