MODEL 1
REMARK VINA RESULT:      -7.6      0.000      0.000
REMARK SMILES CC(=O)CCc1ccc2c(c1)OCO2
REMARK SMILES IDX 4 1 2 2 1 3 3 4 5 5 6 6 7 7 11 8 8 9 10 10 9 11 12 12 14 13
REMARK SMILES IDX 13 14
REMARK H PARENT
REMARK Flexibility Score: inf
ROOT
ATOM      1  C   UNL     1       5.550   1.915   1.268  1.00  0.00     0.080 C 
ENDROOT
BRANCH   1   2
ATOM      2  C   UNL     1       5.111   0.702   2.014  1.00  0.00     0.130 C 
ATOM      3  C   UNL     1       6.009  -0.470   2.196  1.00  0.00     0.087 C 
ATOM      4  O   UNL     1       3.994   0.636   2.501  1.00  0.00    -0.300 OA
ENDBRANCH   1   2
BRANCH   1   5
ATOM      5  C   UNL     1       5.415   1.719  -0.229  1.00  0.00     0.043 C 
BRANCH   5   6
ATOM      6  C   UNL     1       6.581   1.018  -0.795  1.00  0.00    -0.044 A 
ATOM      7  C   UNL     1       7.889   1.451  -0.547  1.00  0.00     0.008 A 
ATOM      8  C   UNL     1       6.392  -0.092  -1.587  1.00  0.00     0.054 A 
ATOM      9  C   UNL     1       8.944   0.754  -1.105  1.00  0.00     0.051 A 
ATOM     10  C   UNL     1       7.462  -0.794  -2.149  1.00  0.00     0.166 A 
ATOM     11  C   UNL     1       8.749  -0.368  -1.906  1.00  0.00     0.165 A 
ATOM     12  O   UNL     1       7.534  -1.908  -2.958  1.00  0.00    -0.454 OA
ATOM     13  O   UNL     1       9.593  -1.238  -2.577  1.00  0.00    -0.454 OA
ATOM     14  C   UNL     1       8.869  -2.283  -3.182  1.00  0.00     0.468 C 
ENDBRANCH   5   6
ENDBRANCH   1   5
TORSDOF 3
ENDMDL
MODEL 2
REMARK VINA RESULT:      -7.4      1.884      2.363
REMARK SMILES CC(=O)CCc1ccc2c(c1)OCO2
REMARK SMILES IDX 4 1 2 2 1 3 3 4 5 5 6 6 7 7 11 8 8 9 10 10 9 11 12 12 14 13
REMARK SMILES IDX 13 14
REMARK H PARENT
REMARK Flexibility Score: inf
ROOT
ATOM      1  C   UNL     1       5.798   1.427  -0.338  1.00  0.00     0.080 C 
ENDROOT
BRANCH   1   2
ATOM      2  C   UNL     1       5.189   1.296   1.014  1.00  0.00     0.130 C 
ATOM      3  C   UNL     1       5.476   0.129   1.890  1.00  0.00     0.087 C 
ATOM      4  O   UNL     1       4.431   2.150   1.446  1.00  0.00    -0.300 OA
ENDBRANCH   1   2
BRANCH   1   5
ATOM      5  C   UNL     1       7.291   1.164  -0.298  1.00  0.00     0.043 C 
BRANCH   5   6
ATOM      6  C   UNL     1       7.634  -0.132  -0.910  1.00  0.00    -0.044 A 
ATOM      7  C   UNL     1       7.634  -0.310  -2.298  1.00  0.00     0.008 A 
ATOM      8  C   UNL     1       7.968  -1.198  -0.107  1.00  0.00     0.054 A 
ATOM      9  C   UNL     1       7.965  -1.548  -2.816  1.00  0.00     0.051 A 
ATOM     10  C   UNL     1       8.303  -2.449  -0.635  1.00  0.00     0.166 A 
ATOM     11  C   UNL     1       8.301  -2.625  -2.001  1.00  0.00     0.165 A 
ATOM     12  O   UNL     1       8.664  -3.647  -0.057  1.00  0.00    -0.454 OA
ATOM     13  O   UNL     1       8.667  -3.941  -2.236  1.00  0.00    -0.454 OA
ATOM     14  C   UNL     1       8.994  -4.600  -1.035  1.00  0.00     0.468 C 
ENDBRANCH   5   6
ENDBRANCH   1   5
TORSDOF 3
ENDMDL
MODEL 3
REMARK VINA RESULT:      -7.2      2.093      2.620
REMARK SMILES CC(=O)CCc1ccc2c(c1)OCO2
REMARK SMILES IDX 4 1 2 2 1 3 3 4 5 5 6 6 7 7 11 8 8 9 10 10 9 11 12 12 14 13
REMARK SMILES IDX 13 14
REMARK H PARENT
REMARK Flexibility Score: inf
ROOT
ATOM      1  C   UNL     1       5.570   0.023   1.950  1.00  0.00     0.080 C 
ENDROOT
BRANCH   1   2
ATOM      2  C   UNL     1       4.672   1.169   1.635  1.00  0.00     0.130 C 
ATOM      3  C   UNL     1       4.952   2.093   0.504  1.00  0.00     0.087 C 
ATOM      4  O   UNL     1       3.672   1.383   2.302  1.00  0.00    -0.300 OA
ENDBRANCH   1   2
BRANCH   1   5
ATOM      5  C   UNL     1       6.982   0.282   1.465  1.00  0.00     0.043 C 
BRANCH   5   6
ATOM      6  C   UNL     1       7.391  -0.687   0.432  1.00  0.00    -0.044 A 
ATOM      7  C   UNL     1       7.304  -0.385  -0.932  1.00  0.00     0.008 A 
ATOM      8  C   UNL     1       7.874  -1.920   0.806  1.00  0.00     0.054 A 
ATOM      9  C   UNL     1       7.703  -1.333  -1.856  1.00  0.00     0.051 A 
ATOM     10  C   UNL     1       8.277  -2.875  -0.132  1.00  0.00     0.166 A 
ATOM     11  C   UNL     1       8.190  -2.579  -1.474  1.00  0.00     0.165 A 
ATOM     12  O   UNL     1       8.783  -4.152  -0.015  1.00  0.00    -0.454 OA
ATOM     13  O   UNL     1       8.651  -3.692  -2.161  1.00  0.00    -0.454 OA
ATOM     14  C   UNL     1       9.121  -4.678  -1.273  1.00  0.00     0.468 C 
ENDBRANCH   5   6
ENDBRANCH   1   5
TORSDOF 3
ENDMDL
MODEL 4
REMARK VINA RESULT:      -7.1      1.251      1.466
REMARK SMILES CC(=O)CCc1ccc2c(c1)OCO2
REMARK SMILES IDX 4 1 2 2 1 3 3 4 5 5 6 6 7 7 11 8 8 9 10 10 9 11 12 12 14 13
REMARK SMILES IDX 13 14
REMARK H PARENT
REMARK Flexibility Score: inf
ROOT
ATOM      1  C   UNL     1       6.386   1.191   0.920  1.00  0.00     0.080 C 
ENDROOT
BRANCH   1   2
ATOM      2  C   UNL     1       5.667   0.380   1.942  1.00  0.00     0.130 C 
ATOM      3  C   UNL     1       6.266  -0.850   2.525  1.00  0.00     0.087 C 
ATOM      4  O   UNL     1       4.557   0.704   2.332  1.00  0.00    -0.300 OA
ENDBRANCH   1   2
BRANCH   1   5
ATOM      5  C   UNL     1       5.870   0.901  -0.476  1.00  0.00     0.043 C 
BRANCH   5   6
ATOM      6  C   UNL     1       6.819   0.082  -1.250  1.00  0.00    -0.044 A 
ATOM      7  C   UNL     1       7.502   0.600  -2.356  1.00  0.00     0.008 A 
ATOM      8  C   UNL     1       7.048  -1.225  -0.885  1.00  0.00     0.054 A 
ATOM      9  C   UNL     1       8.381  -0.216  -3.045  1.00  0.00     0.051 A 
ATOM     10  C   UNL     1       7.938  -2.046  -1.584  1.00  0.00     0.166 A 
ATOM     11  C   UNL     1       8.610  -1.537  -2.673  1.00  0.00     0.165 A 
ATOM     12  O   UNL     1       8.332  -3.357  -1.423  1.00  0.00    -0.454 OA
ATOM     13  O   UNL     1       9.411  -2.557  -3.162  1.00  0.00    -0.454 OA
ATOM     14  C   UNL     1       9.334  -3.700  -2.345  1.00  0.00     0.468 C 
ENDBRANCH   5   6
ENDBRANCH   1   5
TORSDOF 3
ENDMDL
MODEL 5
REMARK VINA RESULT:      -6.8      1.186      5.168
REMARK SMILES CC(=O)CCc1ccc2c(c1)OCO2
REMARK SMILES IDX 4 1 2 2 1 3 3 4 5 5 6 6 7 7 11 8 8 9 10 10 9 11 12 12 14 13
REMARK SMILES IDX 13 14
REMARK H PARENT
REMARK Flexibility Score: inf
ROOT
ATOM      1  C   UNL     1       8.322   0.189  -2.691  1.00  0.00     0.080 C 
ENDROOT
BRANCH   1   2
ATOM      2  C   UNL     1       8.046  -1.273  -2.765  1.00  0.00     0.130 C 
ATOM      3  C   UNL     1       9.128  -2.259  -3.030  1.00  0.00     0.087 C 
ATOM      4  O   UNL     1       6.916  -1.706  -2.611  1.00  0.00    -0.300 OA
ENDBRANCH   1   2
BRANCH   1   5
ATOM      5  C   UNL     1       8.851   0.580  -1.325  1.00  0.00     0.043 C 
BRANCH   5   6
ATOM      6  C   UNL     1       7.824   0.431  -0.278  1.00  0.00    -0.044 A 
ATOM      7  C   UNL     1       7.940  -0.532   0.731  1.00  0.00     0.008 A 
ATOM      8  C   UNL     1       6.722   1.255  -0.282  1.00  0.00     0.054 A 
ATOM      9  C   UNL     1       6.946  -0.626   1.687  1.00  0.00     0.051 A 
ATOM     10  C   UNL     1       5.719   1.157   0.688  1.00  0.00     0.166 A 
ATOM     11  C   UNL     1       5.832   0.209   1.680  1.00  0.00     0.165 A 
ATOM     12  O   UNL     1       4.544   1.847   0.898  1.00  0.00    -0.454 OA
ATOM     13  O   UNL     1       4.713   0.339   2.488  1.00  0.00    -0.454 OA
ATOM     14  C   UNL     1       3.916   1.425   2.081  1.00  0.00     0.468 C 
ENDBRANCH   5   6
ENDBRANCH   1   5
TORSDOF 3
ENDMDL
