@<TRIPOS>MOLECULE
/home/cewinharhar/GITHUB/reincatalyze/data/processed/docking_pred/2023-May-23-1437_sub9_nm5_bs15_s42_ex16_mel10_mts10000_k50_ec02_g099_lra3e-4_lrc1e-3/681e80220216c71ec10eb1429598bf11558fcb24_ligand_9.pdbqt
 14 15 0 0 0
SMALL
GASTEIGER

@<TRIPOS>ATOM
      1  C          8.3270    0.2130   -2.6200 C.3     1  UNL1        0.0800
      2  C          8.0400   -1.2450   -2.7250 C.2     1  UNL1        0.1300
      3  C          9.1120   -2.2320   -3.0200 C.3     1  UNL1        0.0870
      4  O          6.9080   -1.6740   -2.5710 O.2     1  UNL1       -0.3000
      5  C          8.8400    0.5750   -1.2400 C.3     1  UNL1        0.0430
      6  C          7.7940    0.4300   -0.2130 C.2     1  UNL1       -0.0440
      7  C          7.8810   -0.5420    0.7910 C.2     1  UNL1        0.0080
      8  C          6.7010    1.2670   -0.2280 C.2     1  UNL1        0.0540
      9  C          6.8700   -0.6310    1.7290 C.2     1  UNL1        0.0510
     10  C          5.6810    1.1740    0.7230 C.2     1  UNL1        0.1660
     11  C          5.7660    0.2160    1.7100 C.2     1  UNL1        0.1650
     12  O          4.5110    1.8760    0.9190 O.2     1  UNL1       -0.4540
     13  O          4.6350    0.3530    2.5000 O.2     1  UNL1       -0.4540
     14  C          3.8580    1.4520    2.0880 C.3     1  UNL1        0.4680
@<TRIPOS>BOND
     1     3     2    1
     2     2     1    1
     3     2     4    2
     4     1     5    1
     5     5     6    1
     6     8     6    2
     7     8    10    1
     8     6     7    1
     9    10    12    1
    10    10    11    2
    11     7     9    2
    12    12    14    1
    13    11     9    1
    14    11    13    1
    15    14    13    1
