@<TRIPOS>MOLECULE
/home/cewinharhar/GITHUB/reincatalyze/data/processed/docking_pred/2023-May-23-1437_sub9_nm5_bs15_s42_ex16_mel10_mts10000_k50_ec02_g099_lra3e-4_lrc1e-3/681e80220216c71ec10eb1429598bf11558fcb24_ligand_9.pdbqt
 14 15 0 0 0
SMALL
GASTEIGER

@<TRIPOS>ATOM
      1  C          6.3600    1.2050    0.9340 C.3     1  UNL1        0.0800
      2  C          5.6480    0.3700    1.9410 C.2     1  UNL1        0.1300
      3  C          6.2640   -0.8550    2.5170 C.3     1  UNL1        0.0870
      4  O          4.5290    0.6710    2.3260 O.2     1  UNL1       -0.3000
      5  C          5.8500    0.9310   -0.4670 C.3     1  UNL1        0.0430
      6  C          6.8000    0.1160   -1.2450 C.2     1  UNL1       -0.0440
      7  C          7.4840    0.6400   -2.3480 C.2     1  UNL1        0.0080
      8  C          7.0290   -1.1930   -0.8860 C.2     1  UNL1        0.0540
      9  C          8.3640   -0.1730   -3.0390 C.2     1  UNL1        0.0510
     10  C          7.9200   -2.0100   -1.5880 C.2     1  UNL1        0.1660
     11  C          8.5930   -1.4960   -2.6740 C.2     1  UNL1        0.1650
     12  O          8.3140   -3.3220   -1.4320 O.2     1  UNL1       -0.4540
     13  O          9.3950   -2.5130   -3.1670 O.2     1  UNL1       -0.4540
     14  C          9.3170   -3.6600   -2.3550 C.3     1  UNL1        0.4680
@<TRIPOS>BOND
     1    13    11    1
     2    13    14    1
     3     9    11    2
     4     9     7    1
     5    11    10    1
     6    14    12    1
     7     7     6    2
     8    10    12    1
     9    10     8    2
    10     6     8    1
    11     6     5    1
    12     5     1    1
    13     1     2    1
    14     2     4    2
    15     2     3    1
