MODEL 1
REMARK VINA RESULT:      -7.6      0.000      0.000
REMARK SMILES CC(=O)CCc1ccc2c(c1)OCO2
REMARK SMILES IDX 4 1 2 2 1 3 3 4 5 5 6 6 7 7 11 8 8 9 10 10 9 11 12 12 14 13
REMARK SMILES IDX 13 14
REMARK H PARENT
REMARK Flexibility Score: inf
ROOT
ATOM      1  C   UNL     1       5.529   1.941   1.250  1.00  0.00     0.080 C 
ENDROOT
BRANCH   1   2
ATOM      2  C   UNL     1       5.113   0.722   1.999  1.00  0.00     0.130 C 
ATOM      3  C   UNL     1       6.034  -0.431   2.185  1.00  0.00     0.087 C 
ATOM      4  O   UNL     1       3.997   0.635   2.484  1.00  0.00    -0.300 OA
ENDBRANCH   1   2
BRANCH   1   5
ATOM      5  C   UNL     1       5.403   1.737  -0.247  1.00  0.00     0.043 C 
BRANCH   5   6
ATOM      6  C   UNL     1       6.570   1.028  -0.802  1.00  0.00    -0.044 A 
ATOM      7  C   UNL     1       7.878   1.451  -0.538  1.00  0.00     0.008 A 
ATOM      8  C   UNL     1       6.381  -0.078  -1.599  1.00  0.00     0.054 A 
ATOM      9  C   UNL     1       8.934   0.746  -1.085  1.00  0.00     0.051 A 
ATOM     10  C   UNL     1       7.453  -0.787  -2.149  1.00  0.00     0.166 A 
ATOM     11  C   UNL     1       8.740  -0.371  -1.891  1.00  0.00     0.165 A 
ATOM     12  O   UNL     1       7.526  -1.900  -2.960  1.00  0.00    -0.454 OA
ATOM     13  O   UNL     1       9.585  -1.247  -2.554  1.00  0.00    -0.454 OA
ATOM     14  C   UNL     1       8.860  -2.285  -3.170  1.00  0.00     0.468 C 
ENDBRANCH   5   6
ENDBRANCH   1   5
TORSDOF 3
ENDMDL
MODEL 2
REMARK VINA RESULT:      -7.4      1.938      2.411
REMARK SMILES CC(=O)CCc1ccc2c(c1)OCO2
REMARK SMILES IDX 4 1 2 2 1 3 3 4 5 5 6 6 7 7 11 8 8 9 10 10 9 11 12 12 14 13
REMARK SMILES IDX 13 14
REMARK H PARENT
REMARK Flexibility Score: inf
ROOT
ATOM      1  C   UNL     1       5.732   1.224  -0.307  1.00  0.00     0.080 C 
ENDROOT
BRANCH   1   2
ATOM      2  C   UNL     1       5.203   1.194   1.085  1.00  0.00     0.130 C 
ATOM      3  C   UNL     1       5.383   0.007   1.963  1.00  0.00     0.087 C 
ATOM      4  O   UNL     1       4.602   2.150   1.547  1.00  0.00    -0.300 OA
ENDBRANCH   1   2
BRANCH   1   5
ATOM      5  C   UNL     1       7.239   1.055  -0.327  1.00  0.00     0.043 C 
BRANCH   5   6
ATOM      6  C   UNL     1       7.636  -0.235  -0.918  1.00  0.00    -0.044 A 
ATOM      7  C   UNL     1       7.726  -0.410  -2.304  1.00  0.00     0.008 A 
ATOM      8  C   UNL     1       7.930  -1.300  -0.097  1.00  0.00     0.054 A 
ATOM      9  C   UNL     1       8.104  -1.644  -2.801  1.00  0.00     0.051 A 
ATOM     10  C   UNL     1       8.313  -2.545  -0.605  1.00  0.00     0.166 A 
ATOM     11  C   UNL     1       8.400  -2.719  -1.968  1.00  0.00     0.165 A 
ATOM     12  O   UNL     1       8.651  -3.740  -0.006  1.00  0.00    -0.454 OA
ATOM     13  O   UNL     1       8.796  -4.030  -2.180  1.00  0.00    -0.454 OA
ATOM     14  C   UNL     1       9.054  -4.687  -0.962  1.00  0.00     0.468 C 
ENDBRANCH   5   6
ENDBRANCH   1   5
TORSDOF 3
ENDMDL
MODEL 3
REMARK VINA RESULT:      -7.1      2.080      2.628
REMARK SMILES CC(=O)CCc1ccc2c(c1)OCO2
REMARK SMILES IDX 4 1 2 2 1 3 3 4 5 5 6 6 7 7 11 8 8 9 10 10 9 11 12 12 14 13
REMARK SMILES IDX 13 14
REMARK H PARENT
REMARK Flexibility Score: inf
ROOT
ATOM      1  C   UNL     1       5.539   0.008   1.945  1.00  0.00     0.080 C 
ENDROOT
BRANCH   1   2
ATOM      2  C   UNL     1       4.662   1.173   1.639  1.00  0.00     0.130 C 
ATOM      3  C   UNL     1       4.996   2.139   0.559  1.00  0.00     0.087 C 
ATOM      4  O   UNL     1       3.637   1.369   2.272  1.00  0.00    -0.300 OA
ENDBRANCH   1   2
BRANCH   1   5
ATOM      5  C   UNL     1       6.960   0.251   1.478  1.00  0.00     0.043 C 
BRANCH   5   6
ATOM      6  C   UNL     1       7.365  -0.709   0.436  1.00  0.00    -0.044 A 
ATOM      7  C   UNL     1       7.244  -0.409  -0.926  1.00  0.00     0.008 A 
ATOM      8  C   UNL     1       7.878  -1.934   0.800  1.00  0.00     0.054 A 
ATOM      9  C   UNL     1       7.640  -1.350  -1.858  1.00  0.00     0.051 A 
ATOM     10  C   UNL     1       8.278  -2.881  -0.147  1.00  0.00     0.166 A 
ATOM     11  C   UNL     1       8.158  -2.587  -1.487  1.00  0.00     0.165 A 
ATOM     12  O   UNL     1       8.809  -4.149  -0.042  1.00  0.00    -0.454 OA
ATOM     13  O   UNL     1       8.624  -3.691  -2.184  1.00  0.00    -0.454 OA
ATOM     14  C   UNL     1       9.130  -4.669  -1.306  1.00  0.00     0.468 C 
ENDBRANCH   5   6
ENDBRANCH   1   5
TORSDOF 3
ENDMDL
MODEL 4
REMARK VINA RESULT:      -7.1      1.246      1.447
REMARK SMILES CC(=O)CCc1ccc2c(c1)OCO2
REMARK SMILES IDX 4 1 2 2 1 3 3 4 5 5 6 6 7 7 11 8 8 9 10 10 9 11 12 12 14 13
REMARK SMILES IDX 13 14
REMARK H PARENT
REMARK Flexibility Score: inf
ROOT
ATOM      1  C   UNL     1       6.360   1.205   0.934  1.00  0.00     0.080 C 
ENDROOT
BRANCH   1   2
ATOM      2  C   UNL     1       5.648   0.370   1.941  1.00  0.00     0.130 C 
ATOM      3  C   UNL     1       6.264  -0.855   2.517  1.00  0.00     0.087 C 
ATOM      4  O   UNL     1       4.529   0.671   2.326  1.00  0.00    -0.300 OA
ENDBRANCH   1   2
BRANCH   1   5
ATOM      5  C   UNL     1       5.850   0.931  -0.467  1.00  0.00     0.043 C 
BRANCH   5   6
ATOM      6  C   UNL     1       6.800   0.116  -1.245  1.00  0.00    -0.044 A 
ATOM      7  C   UNL     1       7.484   0.640  -2.348  1.00  0.00     0.008 A 
ATOM      8  C   UNL     1       7.029  -1.193  -0.886  1.00  0.00     0.054 A 
ATOM      9  C   UNL     1       8.364  -0.173  -3.039  1.00  0.00     0.051 A 
ATOM     10  C   UNL     1       7.920  -2.010  -1.588  1.00  0.00     0.166 A 
ATOM     11  C   UNL     1       8.593  -1.496  -2.674  1.00  0.00     0.165 A 
ATOM     12  O   UNL     1       8.314  -3.322  -1.432  1.00  0.00    -0.454 OA
ATOM     13  O   UNL     1       9.395  -2.513  -3.167  1.00  0.00    -0.454 OA
ATOM     14  C   UNL     1       9.317  -3.660  -2.355  1.00  0.00     0.468 C 
ENDBRANCH   5   6
ENDBRANCH   1   5
TORSDOF 3
ENDMDL
MODEL 5
REMARK VINA RESULT:      -6.7      1.182      5.173
REMARK SMILES CC(=O)CCc1ccc2c(c1)OCO2
REMARK SMILES IDX 4 1 2 2 1 3 3 4 5 5 6 6 7 7 11 8 8 9 10 10 9 11 12 12 14 13
REMARK SMILES IDX 13 14
REMARK H PARENT
REMARK Flexibility Score: inf
ROOT
ATOM      1  C   UNL     1       8.327   0.213  -2.620  1.00  0.00     0.080 C 
ENDROOT
BRANCH   1   2
ATOM      2  C   UNL     1       8.040  -1.245  -2.725  1.00  0.00     0.130 C 
ATOM      3  C   UNL     1       9.112  -2.232  -3.020  1.00  0.00     0.087 C 
ATOM      4  O   UNL     1       6.908  -1.674  -2.571  1.00  0.00    -0.300 OA
ENDBRANCH   1   2
BRANCH   1   5
ATOM      5  C   UNL     1       8.840   0.575  -1.240  1.00  0.00     0.043 C 
BRANCH   5   6
ATOM      6  C   UNL     1       7.794   0.430  -0.213  1.00  0.00    -0.044 A 
ATOM      7  C   UNL     1       7.881  -0.542   0.791  1.00  0.00     0.008 A 
ATOM      8  C   UNL     1       6.701   1.267  -0.228  1.00  0.00     0.054 A 
ATOM      9  C   UNL     1       6.870  -0.631   1.729  1.00  0.00     0.051 A 
ATOM     10  C   UNL     1       5.681   1.174   0.723  1.00  0.00     0.166 A 
ATOM     11  C   UNL     1       5.766   0.216   1.710  1.00  0.00     0.165 A 
ATOM     12  O   UNL     1       4.511   1.876   0.919  1.00  0.00    -0.454 OA
ATOM     13  O   UNL     1       4.635   0.353   2.500  1.00  0.00    -0.454 OA
ATOM     14  C   UNL     1       3.858   1.452   2.088  1.00  0.00     0.468 C 
ENDBRANCH   5   6
ENDBRANCH   1   5
TORSDOF 3
ENDMDL
