@<TRIPOS>MOLECULE
/home/cewinharhar/GITHUB/reincatalyze/data/processed/docking_pred/2023-May-23-1437_sub9_nm5_bs15_s42_ex16_mel10_mts10000_k50_ec02_g099_lra3e-4_lrc1e-3/6b66a19e3843729fbb18dde59d8ef2ce5f9236cc_ligand_9.pdbqt
 14 15 0 0 0
SMALL
GASTEIGER

@<TRIPOS>ATOM
      1  C          5.5370    1.9060    1.2830 C.3     1  UNL1        0.0800
      2  C          5.0690    0.6890    2.0040 C.2     1  UNL1        0.1300
      3  C          5.9390   -0.5070    2.1620 C.3     1  UNL1        0.0870
      4  O          3.9510    0.6390    2.4890 O.2     1  UNL1       -0.3000
      5  C          5.4130    1.7380   -0.2180 C.3     1  UNL1        0.0430
      6  C          6.5720    1.0260   -0.7860 C.2     1  UNL1       -0.0440
      7  C          7.8840    1.4460   -0.5360 C.2     1  UNL1        0.0080
      8  C          6.3720   -0.0800   -1.5800 C.2     1  UNL1        0.0540
      9  C          8.9330    0.7380   -1.0950 C.2     1  UNL1        0.0510
     10  C          7.4350   -0.7920   -2.1420 C.2     1  UNL1        0.1660
     11  C          8.7260   -0.3790   -1.8980 C.2     1  UNL1        0.1650
     12  O          7.4960   -1.9060   -2.9530 O.2     1  UNL1       -0.4540
     13  O          9.5620   -1.2570   -2.5700 O.2     1  UNL1       -0.4540
     14  C          8.8280   -2.2940   -3.1770 C.3     1  UNL1        0.4680
@<TRIPOS>BOND
     1    14    12    1
     2    14    13    1
     3    12    10    1
     4    13    11    1
     5    10    11    2
     6    10     8    1
     7    11     9    1
     8     8     6    2
     9     9     7    2
    10     6     7    1
    11     6     5    1
    12     5     1    1
    13     1     2    1
    14     2     3    1
    15     2     4    2
