@<TRIPOS>MOLECULE
/home/cewinharhar/GITHUB/reincatalyze/data/processed/docking_pred/2023-May-23-1437_sub9_nm5_bs15_s42_ex16_mel10_mts10000_k50_ec02_g099_lra3e-4_lrc1e-3/6ceeb54199aca0c96a32aff90fdf9e1d9b8e1f8c_ligand_9.pdbqt
 14 15 0 0 0
SMALL
GASTEIGER

@<TRIPOS>ATOM
      1  C          9.6470    1.3510    2.1840 C.3     1  UNL1        0.0800
      2  C         11.0290    0.8080    2.3030 C.2     1  UNL1        0.1300
      3  C         12.0420    1.4390    3.1900 C.3     1  UNL1        0.0870
      4  O         11.3710   -0.1790    1.6710 O.2     1  UNL1       -0.3000
      5  C          9.4140    1.9680    0.8190 C.3     1  UNL1        0.0430
      6  C          8.6490    1.0690   -0.0640 C.2     1  UNL1       -0.0440
      7  C          7.2510    1.0160   -0.0230 C.2     1  UNL1        0.0080
      8  C          9.3160    0.2590   -0.9550 C.2     1  UNL1        0.0540
      9  C          6.5870    0.1530   -0.8760 C.2     1  UNL1        0.0510
     10  C          8.6400   -0.6110   -1.8160 C.2     1  UNL1        0.1660
     11  C          7.2640   -0.6650   -1.7760 C.2     1  UNL1        0.1650
     12  O          9.0680   -1.5030   -2.7760 O.2     1  UNL1       -0.4540
     13  O          6.8720   -1.5980   -2.7220 O.2     1  UNL1       -0.4540
     14  C          7.9780   -2.0870   -3.4420 C.3     1  UNL1        0.4680
@<TRIPOS>BOND
     1    14    12    1
     2    14    13    1
     3    12    10    1
     4    13    11    1
     5    10    11    2
     6    10     8    1
     7    11     9    1
     8     8     6    2
     9     9     7    2
    10     6     7    1
    11     6     5    1
    12     5     1    1
    13     4     2    2
    14     1     2    1
    15     2     3    1
