MODEL 1
REMARK VINA RESULT:      -7.5      0.000      0.000
REMARK SMILES CC(=O)CCc1ccc2c(c1)OCO2
REMARK SMILES IDX 4 1 2 2 1 3 3 4 5 5 6 6 7 7 11 8 8 9 10 10 9 11 12 12 14 13
REMARK SMILES IDX 13 14
REMARK H PARENT
REMARK Flexibility Score: inf
ROOT
ATOM      1  C   UNL     1       6.006   1.573   1.131  1.00  0.00     0.080 C 
ENDROOT
BRANCH   1   2
ATOM      2  C   UNL     1       5.464   0.456   1.954  1.00  0.00     0.130 C 
ATOM      3  C   UNL     1       6.259  -0.772   2.225  1.00  0.00     0.087 C 
ATOM      4  O   UNL     1       4.343   0.518   2.433  1.00  0.00    -0.300 OA
ENDBRANCH   1   2
BRANCH   1   5
ATOM      5  C   UNL     1       5.735   1.352  -0.344  1.00  0.00     0.043 C 
BRANCH   5   6
ATOM      6  C   UNL     1       6.812   0.578  -0.987  1.00  0.00    -0.044 A 
ATOM      7  C   UNL     1       8.154   0.957  -0.876  1.00  0.00     0.008 A 
ATOM      8  C   UNL     1       6.501  -0.548  -1.715  1.00  0.00     0.054 A 
ATOM      9  C   UNL     1       9.122   0.191  -1.501  1.00  0.00     0.051 A 
ATOM     10  C   UNL     1       7.483  -1.320  -2.344  1.00  0.00     0.166 A 
ATOM     11  C   UNL     1       8.804  -0.946  -2.236  1.00  0.00     0.165 A 
ATOM     12  O   UNL     1       7.430  -2.463  -3.112  1.00  0.00    -0.454 OA
ATOM     13  O   UNL     1       9.543  -1.879  -2.947  1.00  0.00    -0.454 OA
ATOM     14  C   UNL     1       8.721  -2.908  -3.443  1.00  0.00     0.468 C 
ENDBRANCH   5   6
ENDBRANCH   1   5
TORSDOF 3
ENDMDL
MODEL 2
REMARK VINA RESULT:      -7.0      2.694      3.680
REMARK SMILES CC(=O)CCc1ccc2c(c1)OCO2
REMARK SMILES IDX 4 1 2 2 1 3 3 4 5 5 6 6 7 7 11 8 8 9 10 10 9 11 12 12 14 13
REMARK SMILES IDX 13 14
REMARK H PARENT
REMARK Flexibility Score: inf
ROOT
ATOM      1  C   UNL     1       9.647   1.351   2.184  1.00  0.00     0.080 C 
ENDROOT
BRANCH   1   2
ATOM      2  C   UNL     1      11.029   0.808   2.303  1.00  0.00     0.130 C 
ATOM      3  C   UNL     1      12.042   1.439   3.190  1.00  0.00     0.087 C 
ATOM      4  O   UNL     1      11.371  -0.179   1.671  1.00  0.00    -0.300 OA
ENDBRANCH   1   2
BRANCH   1   5
ATOM      5  C   UNL     1       9.414   1.968   0.819  1.00  0.00     0.043 C 
BRANCH   5   6
ATOM      6  C   UNL     1       8.649   1.069  -0.064  1.00  0.00    -0.044 A 
ATOM      7  C   UNL     1       7.251   1.016  -0.023  1.00  0.00     0.008 A 
ATOM      8  C   UNL     1       9.316   0.259  -0.955  1.00  0.00     0.054 A 
ATOM      9  C   UNL     1       6.587   0.153  -0.876  1.00  0.00     0.051 A 
ATOM     10  C   UNL     1       8.640  -0.611  -1.816  1.00  0.00     0.166 A 
ATOM     11  C   UNL     1       7.264  -0.665  -1.776  1.00  0.00     0.165 A 
ATOM     12  O   UNL     1       9.068  -1.503  -2.776  1.00  0.00    -0.454 OA
ATOM     13  O   UNL     1       6.872  -1.598  -2.722  1.00  0.00    -0.454 OA
ATOM     14  C   UNL     1       7.978  -2.087  -3.442  1.00  0.00     0.468 C 
ENDBRANCH   5   6
ENDBRANCH   1   5
TORSDOF 3
ENDMDL
MODEL 3
REMARK VINA RESULT:      -7.0      1.572      5.538
REMARK SMILES CC(=O)CCc1ccc2c(c1)OCO2
REMARK SMILES IDX 4 1 2 2 1 3 3 4 5 5 6 6 7 7 11 8 8 9 10 10 9 11 12 12 14 13
REMARK SMILES IDX 13 14
REMARK H PARENT
REMARK Flexibility Score: inf
ROOT
ATOM      1  C   UNL     1       8.058  -2.605  -3.486  1.00  0.00     0.080 C 
ENDROOT
BRANCH   1   2
ATOM      2  C   UNL     1       9.208  -3.527  -3.271  1.00  0.00     0.130 C 
ATOM      3  C   UNL     1       9.008  -4.978  -3.012  1.00  0.00     0.087 C 
ATOM      4  O   UNL     1      10.356  -3.114  -3.301  1.00  0.00    -0.300 OA
ENDBRANCH   1   2
BRANCH   1   5
ATOM      5  C   UNL     1       8.387  -1.198  -3.026  1.00  0.00     0.043 C 
BRANCH   5   6
ATOM      6  C   UNL     1       7.631  -0.829  -1.816  1.00  0.00    -0.044 A 
ATOM      7  C   UNL     1       7.642  -1.634  -0.671  1.00  0.00     0.008 A 
ATOM      8  C   UNL     1       6.896   0.334  -1.799  1.00  0.00     0.054 A 
ATOM      9  C   UNL     1       6.914  -1.236   0.436  1.00  0.00     0.051 A 
ATOM     10  C   UNL     1       6.162   0.733  -0.677  1.00  0.00     0.166 A 
ATOM     11  C   UNL     1       6.171  -0.059   0.449  1.00  0.00     0.165 A 
ATOM     12  O   UNL     1       5.364   1.826  -0.416  1.00  0.00    -0.454 OA
ATOM     13  O   UNL     1       5.371   0.571   1.389  1.00  0.00    -0.454 OA
ATOM     14  C   UNL     1       4.913   1.815   0.914  1.00  0.00     0.468 C 
ENDBRANCH   5   6
ENDBRANCH   1   5
TORSDOF 3
ENDMDL
MODEL 4
REMARK VINA RESULT:      -6.9      1.220      1.636
REMARK SMILES CC(=O)CCc1ccc2c(c1)OCO2
REMARK SMILES IDX 4 1 2 2 1 3 3 4 5 5 6 6 7 7 11 8 8 9 10 10 9 11 12 12 14 13
REMARK SMILES IDX 13 14
REMARK H PARENT
REMARK Flexibility Score: inf
ROOT
ATOM      1  C   UNL     1       6.132  -0.267   1.611  1.00  0.00     0.080 C 
ENDROOT
BRANCH   1   2
ATOM      2  C   UNL     1       5.082   0.787   1.678  1.00  0.00     0.130 C 
ATOM      3  C   UNL     1       5.048   1.917   0.712  1.00  0.00     0.087 C 
ATOM      4  O   UNL     1       4.214   0.754   2.535  1.00  0.00    -0.300 OA
ENDBRANCH   1   2
BRANCH   1   5
ATOM      5  C   UNL     1       7.440   0.291   1.088  1.00  0.00     0.043 C 
BRANCH   5   6
ATOM      6  C   UNL     1       7.764  -0.237  -0.249  1.00  0.00    -0.044 A 
ATOM      7  C   UNL     1       7.932   0.610  -1.351  1.00  0.00     0.008 A 
ATOM      8  C   UNL     1       7.909  -1.593  -0.430  1.00  0.00     0.054 A 
ATOM      9  C   UNL     1       8.236   0.058  -2.582  1.00  0.00     0.051 A 
ATOM     10  C   UNL     1       8.217  -2.147  -1.677  1.00  0.00     0.166 A 
ATOM     11  C   UNL     1       8.381  -1.315  -2.761  1.00  0.00     0.165 A 
ATOM     12  O   UNL     1       8.410  -3.442  -2.108  1.00  0.00    -0.454 OA
ATOM     13  O   UNL     1       8.676  -2.124  -3.847  1.00  0.00    -0.454 OA
ATOM     14  C   UNL     1       8.793  -3.472  -3.459  1.00  0.00     0.468 C 
ENDBRANCH   5   6
ENDBRANCH   1   5
TORSDOF 3
ENDMDL
MODEL 5
REMARK VINA RESULT:      -6.9      1.631      5.414
REMARK SMILES CC(=O)CCc1ccc2c(c1)OCO2
REMARK SMILES IDX 4 1 2 2 1 3 3 4 5 5 6 6 7 7 11 8 8 9 10 10 9 11 12 12 14 13
REMARK SMILES IDX 13 14
REMARK H PARENT
REMARK Flexibility Score: inf
ROOT
ATOM      1  C   UNL     1       8.131  -2.627  -3.621  1.00  0.00     0.080 C 
ENDROOT
BRANCH   1   2
ATOM      2  C   UNL     1       9.263  -3.565  -3.378  1.00  0.00     0.130 C 
ATOM      3  C   UNL     1       9.039  -5.021  -3.173  1.00  0.00     0.087 C 
ATOM      4  O   UNL     1      10.414  -3.162  -3.341  1.00  0.00    -0.300 OA
ENDBRANCH   1   2
BRANCH   1   5
ATOM      5  C   UNL     1       8.486  -1.216  -3.197  1.00  0.00     0.043 C 
BRANCH   5   6
ATOM      6  C   UNL     1       7.734  -0.800  -1.999  1.00  0.00    -0.044 A 
ATOM      7  C   UNL     1       6.892   0.317  -2.014  1.00  0.00     0.008 A 
ATOM      8  C   UNL     1       7.855  -1.522  -0.834  1.00  0.00     0.054 A 
ATOM      9  C   UNL     1       6.211   0.660  -0.860  1.00  0.00     0.051 A 
ATOM     10  C   UNL     1       7.164  -1.172   0.330  1.00  0.00     0.166 A 
ATOM     11  C   UNL     1       6.335  -0.072   0.317  1.00  0.00     0.165 A 
ATOM     12  O   UNL     1       7.116  -1.719   1.595  1.00  0.00    -0.454 OA
ATOM     13  O   UNL     1       5.790   0.034   1.587  1.00  0.00    -0.454 OA
ATOM     14  C   UNL     1       6.187  -1.042   2.403  1.00  0.00     0.468 C 
ENDBRANCH   5   6
ENDBRANCH   1   5
TORSDOF 3
ENDMDL
