@<TRIPOS>MOLECULE
/home/cewinharhar/GITHUB/reincatalyze/data/processed/docking_pred/2023-May-23-1437_sub9_nm5_bs15_s42_ex16_mel10_mts10000_k50_ec02_g099_lra3e-4_lrc1e-3/6ceeb54199aca0c96a32aff90fdf9e1d9b8e1f8c_ligand_9.pdbqt
 14 15 0 0 0
SMALL
GASTEIGER

@<TRIPOS>ATOM
      1  C          6.1320   -0.2670    1.6110 C.3     1  UNL1        0.0800
      2  C          5.0820    0.7870    1.6780 C.2     1  UNL1        0.1300
      3  C          5.0480    1.9170    0.7120 C.3     1  UNL1        0.0870
      4  O          4.2140    0.7540    2.5350 O.2     1  UNL1       -0.3000
      5  C          7.4400    0.2910    1.0880 C.3     1  UNL1        0.0430
      6  C          7.7640   -0.2370   -0.2490 C.2     1  UNL1       -0.0440
      7  C          7.9320    0.6100   -1.3510 C.2     1  UNL1        0.0080
      8  C          7.9090   -1.5930   -0.4300 C.2     1  UNL1        0.0540
      9  C          8.2360    0.0580   -2.5820 C.2     1  UNL1        0.0510
     10  C          8.2170   -2.1470   -1.6770 C.2     1  UNL1        0.1660
     11  C          8.3810   -1.3150   -2.7610 C.2     1  UNL1        0.1650
     12  O          8.4100   -3.4420   -2.1080 O.2     1  UNL1       -0.4540
     13  O          8.6760   -2.1240   -3.8470 O.2     1  UNL1       -0.4540
     14  C          8.7930   -3.4720   -3.4590 C.3     1  UNL1        0.4680
@<TRIPOS>BOND
     1    13    14    1
     2    13    11    1
     3    14    12    1
     4    11     9    2
     5    11    10    1
     6     9     7    1
     7    12    10    1
     8    10     8    2
     9     7     6    2
    10     8     6    1
    11     6     5    1
    12     3     2    1
    13     5     1    1
    14     1     2    1
    15     2     4    2
