@<TRIPOS>MOLECULE
/home/cewinharhar/GITHUB/reincatalyze/data/processed/docking_pred/2023-May-23-1437_sub9_nm5_bs15_s42_ex16_mel10_mts10000_k50_ec02_g099_lra3e-4_lrc1e-3/6ceeb54199aca0c96a32aff90fdf9e1d9b8e1f8c_ligand_9.pdbqt
 14 15 0 0 0
SMALL
GASTEIGER

@<TRIPOS>ATOM
      1  C          8.0580   -2.6050   -3.4860 C.3     1  UNL1        0.0800
      2  C          9.2080   -3.5270   -3.2710 C.2     1  UNL1        0.1300
      3  C          9.0080   -4.9780   -3.0120 C.3     1  UNL1        0.0870
      4  O         10.3560   -3.1140   -3.3010 O.2     1  UNL1       -0.3000
      5  C          8.3870   -1.1980   -3.0260 C.3     1  UNL1        0.0430
      6  C          7.6310   -0.8290   -1.8160 C.2     1  UNL1       -0.0440
      7  C          7.6420   -1.6340   -0.6710 C.2     1  UNL1        0.0080
      8  C          6.8960    0.3340   -1.7990 C.2     1  UNL1        0.0540
      9  C          6.9140   -1.2360    0.4360 C.2     1  UNL1        0.0510
     10  C          6.1620    0.7330   -0.6770 C.2     1  UNL1        0.1660
     11  C          6.1710   -0.0590    0.4490 C.2     1  UNL1        0.1650
     12  O          5.3640    1.8260   -0.4160 O.2     1  UNL1       -0.4540
     13  O          5.3710    0.5710    1.3890 O.2     1  UNL1       -0.4540
     14  C          4.9130    1.8150    0.9140 C.3     1  UNL1        0.4680
@<TRIPOS>BOND
     1     1     2    1
     2     1     5    1
     3     4     2    2
     4     2     3    1
     5     5     6    1
     6     6     8    2
     7     6     7    1
     8     8    10    1
     9    10    12    1
    10    10    11    2
    11     7     9    2
    12    12    14    1
    13     9    11    1
    14    11    13    1
    15    14    13    1
