@<TRIPOS>MOLECULE
/home/cewinharhar/GITHUB/reincatalyze/data/processed/docking_pred/2023-May-23-1437_sub9_nm5_bs15_s42_ex16_mel10_mts10000_k50_ec02_g099_lra3e-4_lrc1e-3/6dc168e099aae66a1c19408847f7f9495b2b5216_ligand_9.pdbqt
 14 15 0 0 0
SMALL
GASTEIGER

@<TRIPOS>ATOM
      1  C          6.3670    1.1750    0.9590 C.3     1  UNL1        0.0800
      2  C          5.6380    0.3380    1.9520 C.2     1  UNL1        0.1300
      3  C          6.2480   -0.8850    2.5390 C.3     1  UNL1        0.0870
      4  O          4.5110    0.6350    2.3140 O.2     1  UNL1       -0.3000
      5  C          5.8640    0.9230   -0.4490 C.3     1  UNL1        0.0430
      6  C          6.8090    0.1030   -1.2280 C.2     1  UNL1       -0.0440
      7  C          7.4830    0.6200   -2.3400 C.2     1  UNL1        0.0080
      8  C          7.0440   -1.2020   -0.8610 C.2     1  UNL1        0.0540
      9  C          8.3600   -0.1950   -3.0330 C.2     1  UNL1        0.0510
     10  C          7.9310   -2.0230   -1.5640 C.2     1  UNL1        0.1660
     11  C          8.5940   -1.5150   -2.6590 C.2     1  UNL1        0.1650
     12  O          8.3290   -3.3330   -1.4010 O.2     1  UNL1       -0.4540
     13  O          9.3940   -2.5340   -3.1510 O.2     1  UNL1       -0.4540
     14  C          9.3260   -3.6760   -2.3300 C.3     1  UNL1        0.4680
@<TRIPOS>BOND
     1    13    11    1
     2    13    14    1
     3     9    11    2
     4     9     7    1
     5    11    10    1
     6     7     6    2
     7    14    12    1
     8    10    12    1
     9    10     8    2
    10     6     8    1
    11     6     5    1
    12     5     1    1
    13     1     2    1
    14     2     4    2
    15     2     3    1
