@<TRIPOS>MOLECULE
/home/cewinharhar/GITHUB/reincatalyze/data/processed/docking_pred/2023-May-23-1437_sub9_nm5_bs15_s42_ex16_mel10_mts10000_k50_ec02_g099_lra3e-4_lrc1e-3/6dc168e099aae66a1c19408847f7f9495b2b5216_ligand_9.pdbqt
 14 15 0 0 0
SMALL
GASTEIGER

@<TRIPOS>ATOM
      1  C          5.7320    1.3800   -0.2710 C.3     1  UNL1        0.0800
      2  C          5.0820    1.2780    1.0650 C.2     1  UNL1        0.1300
      3  C          5.4010    0.1700    2.0060 C.3     1  UNL1        0.0870
      4  O          4.2620    2.1050    1.4290 O.2     1  UNL1       -0.3000
      5  C          7.2220    1.1170   -0.1810 C.3     1  UNL1        0.0430
      6  C          7.5890   -0.1660   -0.8060 C.2     1  UNL1       -0.0440
      7  C          7.6200   -0.3210   -2.1960 C.2     1  UNL1        0.0080
      8  C          7.9140   -1.2430   -0.0130 C.2     1  UNL1        0.0540
      9  C          7.9730   -1.5490   -2.7270 C.2     1  UNL1        0.0510
     10  C          8.2710   -2.4820   -0.5540 C.2     1  UNL1        0.1660
     11  C          8.3000   -2.6360   -1.9220 C.2     1  UNL1        0.1650
     12  O          8.6290   -3.6860    0.0130 O.2     1  UNL1       -0.4540
     13  O          8.6810   -3.9450   -2.1690 O.2     1  UNL1       -0.4540
     14  C          8.9880   -4.6200   -0.9730 C.3     1  UNL1        0.4680
@<TRIPOS>BOND
     1     9     7    1
     2     9    11    2
     3     7     6    2
     4    13    11    1
     5    13    14    1
     6    11    10    1
     7    14    12    1
     8     6     5    1
     9     6     8    1
    10    10     8    2
    11    10    12    1
    12     1     5    1
    13     1     2    1
    14     2     4    2
    15     2     3    1
