MODEL 1
REMARK VINA RESULT:      -7.6      0.000      0.000
REMARK SMILES CC(=O)CCc1ccc2c(c1)OCO2
REMARK SMILES IDX 4 1 2 2 1 3 3 4 5 5 6 6 7 7 11 8 8 9 10 10 9 11 12 12 14 13
REMARK SMILES IDX 13 14
REMARK H PARENT
REMARK Flexibility Score: inf
ROOT
ATOM      1  C   UNL     1       5.509   1.922   1.258  1.00  0.00     0.080 C 
ENDROOT
BRANCH   1   2
ATOM      2  C   UNL     1       5.066   0.710   2.001  1.00  0.00     0.130 C 
ATOM      3  C   UNL     1       5.950  -0.476   2.159  1.00  0.00     0.087 C 
ATOM      4  O   UNL     1       3.956   0.654   2.505  1.00  0.00    -0.300 OA
ENDBRANCH   1   2
BRANCH   1   5
ATOM      5  C   UNL     1       5.384   1.725  -0.240  1.00  0.00     0.043 C 
BRANCH   5   6
ATOM      6  C   UNL     1       6.555   1.026  -0.799  1.00  0.00    -0.044 A 
ATOM      7  C   UNL     1       7.860   1.463  -0.545  1.00  0.00     0.008 A 
ATOM      8  C   UNL     1       6.372  -0.087  -1.588  1.00  0.00     0.054 A 
ATOM      9  C   UNL     1       8.920   0.766  -1.095  1.00  0.00     0.051 A 
ATOM     10  C   UNL     1       7.448  -0.789  -2.141  1.00  0.00     0.166 A 
ATOM     11  C   UNL     1       8.732  -0.358  -1.893  1.00  0.00     0.165 A 
ATOM     12  O   UNL     1       7.526  -1.905  -2.946  1.00  0.00    -0.454 OA
ATOM     13  O   UNL     1       9.582  -1.229  -2.557  1.00  0.00    -0.454 OA
ATOM     14  C   UNL     1       8.863  -2.278  -3.162  1.00  0.00     0.468 C 
ENDBRANCH   5   6
ENDBRANCH   1   5
TORSDOF 3
ENDMDL
MODEL 2
REMARK VINA RESULT:      -7.5      1.916      2.368
REMARK SMILES CC(=O)CCc1ccc2c(c1)OCO2
REMARK SMILES IDX 4 1 2 2 1 3 3 4 5 5 6 6 7 7 11 8 8 9 10 10 9 11 12 12 14 13
REMARK SMILES IDX 13 14
REMARK H PARENT
REMARK Flexibility Score: inf
ROOT
ATOM      1  C   UNL     1       5.732   1.380  -0.271  1.00  0.00     0.080 C 
ENDROOT
BRANCH   1   2
ATOM      2  C   UNL     1       5.082   1.278   1.065  1.00  0.00     0.130 C 
ATOM      3  C   UNL     1       5.401   0.170   2.006  1.00  0.00     0.087 C 
ATOM      4  O   UNL     1       4.262   2.105   1.429  1.00  0.00    -0.300 OA
ENDBRANCH   1   2
BRANCH   1   5
ATOM      5  C   UNL     1       7.222   1.117  -0.181  1.00  0.00     0.043 C 
BRANCH   5   6
ATOM      6  C   UNL     1       7.589  -0.166  -0.806  1.00  0.00    -0.044 A 
ATOM      7  C   UNL     1       7.620  -0.321  -2.196  1.00  0.00     0.008 A 
ATOM      8  C   UNL     1       7.914  -1.243  -0.013  1.00  0.00     0.054 A 
ATOM      9  C   UNL     1       7.973  -1.549  -2.727  1.00  0.00     0.051 A 
ATOM     10  C   UNL     1       8.271  -2.482  -0.554  1.00  0.00     0.166 A 
ATOM     11  C   UNL     1       8.300  -2.636  -1.922  1.00  0.00     0.165 A 
ATOM     12  O   UNL     1       8.629  -3.686   0.013  1.00  0.00    -0.454 OA
ATOM     13  O   UNL     1       8.681  -3.945  -2.169  1.00  0.00    -0.454 OA
ATOM     14  C   UNL     1       8.988  -4.620  -0.973  1.00  0.00     0.468 C 
ENDBRANCH   5   6
ENDBRANCH   1   5
TORSDOF 3
ENDMDL
MODEL 3
REMARK VINA RESULT:      -7.2      2.069      2.639
REMARK SMILES CC(=O)CCc1ccc2c(c1)OCO2
REMARK SMILES IDX 4 1 2 2 1 3 3 4 5 5 6 6 7 7 11 8 8 9 10 10 9 11 12 12 14 13
REMARK SMILES IDX 13 14
REMARK H PARENT
REMARK Flexibility Score: inf
ROOT
ATOM      1  C   UNL     1       5.413  -0.070   1.951  1.00  0.00     0.080 C 
ENDROOT
BRANCH   1   2
ATOM      2  C   UNL     1       4.587   1.147   1.715  1.00  0.00     0.130 C 
ATOM      3  C   UNL     1       4.913   2.113   0.632  1.00  0.00     0.087 C 
ATOM      4  O   UNL     1       3.613   1.388   2.409  1.00  0.00    -0.300 OA
ENDBRANCH   1   2
BRANCH   1   5
ATOM      5  C   UNL     1       6.859   0.161   1.560  1.00  0.00     0.043 C 
BRANCH   5   6
ATOM      6  C   UNL     1       7.293  -0.767   0.500  1.00  0.00    -0.044 A 
ATOM      7  C   UNL     1       7.178  -0.437  -0.855  1.00  0.00     0.008 A 
ATOM      8  C   UNL     1       7.827  -1.989   0.840  1.00  0.00     0.054 A 
ATOM      9  C   UNL     1       7.603  -1.348  -1.806  1.00  0.00     0.051 A 
ATOM     10  C   UNL     1       8.256  -2.906  -0.125  1.00  0.00     0.166 A 
ATOM     11  C   UNL     1       8.142  -2.582  -1.458  1.00  0.00     0.165 A 
ATOM     12  O   UNL     1       8.812  -4.165  -0.043  1.00  0.00    -0.454 OA
ATOM     13  O   UNL     1       8.637  -3.660  -2.176  1.00  0.00    -0.454 OA
ATOM     14  C   UNL     1       9.156  -4.647  -1.317  1.00  0.00     0.468 C 
ENDBRANCH   5   6
ENDBRANCH   1   5
TORSDOF 3
ENDMDL
MODEL 4
REMARK VINA RESULT:      -7.1      1.255      1.463
REMARK SMILES CC(=O)CCc1ccc2c(c1)OCO2
REMARK SMILES IDX 4 1 2 2 1 3 3 4 5 5 6 6 7 7 11 8 8 9 10 10 9 11 12 12 14 13
REMARK SMILES IDX 13 14
REMARK H PARENT
REMARK Flexibility Score: inf
ROOT
ATOM      1  C   UNL     1       6.367   1.175   0.959  1.00  0.00     0.080 C 
ENDROOT
BRANCH   1   2
ATOM      2  C   UNL     1       5.638   0.338   1.952  1.00  0.00     0.130 C 
ATOM      3  C   UNL     1       6.248  -0.885   2.539  1.00  0.00     0.087 C 
ATOM      4  O   UNL     1       4.511   0.635   2.314  1.00  0.00    -0.300 OA
ENDBRANCH   1   2
BRANCH   1   5
ATOM      5  C   UNL     1       5.864   0.923  -0.449  1.00  0.00     0.043 C 
BRANCH   5   6
ATOM      6  C   UNL     1       6.809   0.103  -1.228  1.00  0.00    -0.044 A 
ATOM      7  C   UNL     1       7.483   0.620  -2.340  1.00  0.00     0.008 A 
ATOM      8  C   UNL     1       7.044  -1.202  -0.861  1.00  0.00     0.054 A 
ATOM      9  C   UNL     1       8.360  -0.195  -3.033  1.00  0.00     0.051 A 
ATOM     10  C   UNL     1       7.931  -2.023  -1.564  1.00  0.00     0.166 A 
ATOM     11  C   UNL     1       8.594  -1.515  -2.659  1.00  0.00     0.165 A 
ATOM     12  O   UNL     1       8.329  -3.333  -1.401  1.00  0.00    -0.454 OA
ATOM     13  O   UNL     1       9.394  -2.534  -3.151  1.00  0.00    -0.454 OA
ATOM     14  C   UNL     1       9.326  -3.676  -2.330  1.00  0.00     0.468 C 
ENDBRANCH   5   6
ENDBRANCH   1   5
TORSDOF 3
ENDMDL
MODEL 5
REMARK VINA RESULT:      -6.8      1.264      1.755
REMARK SMILES CC(=O)CCc1ccc2c(c1)OCO2
REMARK SMILES IDX 4 1 2 2 1 3 3 4 5 5 6 6 7 7 11 8 8 9 10 10 9 11 12 12 14 13
REMARK SMILES IDX 13 14
REMARK H PARENT
REMARK Flexibility Score: inf
ROOT
ATOM      1  C   UNL     1       5.296  -0.078   1.951  1.00  0.00     0.080 C 
ENDROOT
BRANCH   1   2
ATOM      2  C   UNL     1       4.424   1.118   1.786  1.00  0.00     0.130 C 
ATOM      3  C   UNL     1       4.700   2.150   0.751  1.00  0.00     0.087 C 
ATOM      4  O   UNL     1       3.450   1.287   2.503  1.00  0.00    -0.300 OA
ENDBRANCH   1   2
BRANCH   1   5
ATOM      5  C   UNL     1       6.763   0.299   1.898  1.00  0.00     0.043 C 
BRANCH   5   6
ATOM      6  C   UNL     1       7.372  -0.055   0.604  1.00  0.00    -0.044 A 
ATOM      7  C   UNL     1       7.860   0.925  -0.269  1.00  0.00     0.008 A 
ATOM      8  C   UNL     1       7.472  -1.377   0.235  1.00  0.00     0.054 A 
ATOM      9  C   UNL     1       8.422   0.533  -1.470  1.00  0.00     0.051 A 
ATOM     10  C   UNL     1       8.042  -1.768  -0.980  1.00  0.00     0.166 A 
ATOM     11  C   UNL     1       8.521  -0.805  -1.840  1.00  0.00     0.165 A 
ATOM     12  O   UNL     1       8.253  -2.998  -1.567  1.00  0.00    -0.454 OA
ATOM     13  O   UNL     1       9.022  -1.470  -2.948  1.00  0.00    -0.454 OA
ATOM     14  C   UNL     1       8.954  -2.866  -2.776  1.00  0.00     0.468 C 
ENDBRANCH   5   6
ENDBRANCH   1   5
TORSDOF 3
ENDMDL
