@<TRIPOS>MOLECULE
/home/cewinharhar/GITHUB/reincatalyze/data/processed/docking_pred/2023-May-23-1437_sub9_nm5_bs15_s42_ex16_mel10_mts10000_k50_ec02_g099_lra3e-4_lrc1e-3/6dc168e099aae66a1c19408847f7f9495b2b5216_ligand_9.pdbqt
 14 15 0 0 0
SMALL
GASTEIGER

@<TRIPOS>ATOM
      1  C          5.4130   -0.0700    1.9510 C.3     1  UNL1        0.0800
      2  C          4.5870    1.1470    1.7150 C.2     1  UNL1        0.1300
      3  C          4.9130    2.1130    0.6320 C.3     1  UNL1        0.0870
      4  O          3.6130    1.3880    2.4090 O.2     1  UNL1       -0.3000
      5  C          6.8590    0.1610    1.5600 C.3     1  UNL1        0.0430
      6  C          7.2930   -0.7670    0.5000 C.2     1  UNL1       -0.0440
      7  C          7.1780   -0.4370   -0.8550 C.2     1  UNL1        0.0080
      8  C          7.8270   -1.9890    0.8400 C.2     1  UNL1        0.0540
      9  C          7.6030   -1.3480   -1.8060 C.2     1  UNL1        0.0510
     10  C          8.2560   -2.9060   -0.1250 C.2     1  UNL1        0.1660
     11  C          8.1420   -2.5820   -1.4580 C.2     1  UNL1        0.1650
     12  O          8.8120   -4.1650   -0.0430 O.2     1  UNL1       -0.4540
     13  O          8.6370   -3.6600   -2.1760 O.2     1  UNL1       -0.4540
     14  C          9.1560   -4.6470   -1.3170 C.3     1  UNL1        0.4680
@<TRIPOS>BOND
     1    13    11    1
     2    13    14    1
     3     9    11    2
     4     9     7    1
     5    11    10    1
     6    14    12    1
     7     7     6    2
     8    10    12    1
     9    10     8    2
    10     6     8    1
    11     6     5    1
    12     3     2    1
    13     5     1    1
    14     2     1    1
    15     2     4    2
