@<TRIPOS>MOLECULE
/home/cewinharhar/GITHUB/reincatalyze/data/processed/docking_pred/2023-May-23-1437_sub9_nm5_bs15_s42_ex16_mel10_mts10000_k50_ec02_g099_lra3e-4_lrc1e-3/6e6a373552f8835a6ba7a6c6fa001d8bbefa4498_ligand_9.pdbqt
 14 15 0 0 0
SMALL
GASTEIGER

@<TRIPOS>ATOM
      1  C          5.7910    1.3070   -0.2850 C.3     1  UNL1        0.0800
      2  C          5.2150    1.2260    1.0870 C.2     1  UNL1        0.1300
      3  C          5.4040    0.0240    1.9430 C.3     1  UNL1        0.0870
      4  O          4.5660    2.1500    1.5490 O.2     1  UNL1       -0.3000
      5  C          7.2880    1.0680   -0.2680 C.3     1  UNL1        0.0430
      6  C          7.6420   -0.2270   -0.8760 C.2     1  UNL1       -0.0440
      7  C          7.6500   -0.4070   -2.2640 C.2     1  UNL1        0.0080
      8  C          7.9760   -1.2910   -0.0700 C.2     1  UNL1        0.0540
      9  C          7.9910   -1.6450   -2.7780 C.2     1  UNL1        0.0510
     10  C          8.3210   -2.5400   -0.5940 C.2     1  UNL1        0.1660
     11  C          8.3280   -2.7180   -1.9600 C.2     1  UNL1        0.1650
     12  O          8.6850   -3.7360   -0.0120 O.2     1  UNL1       -0.4540
     13  O          8.7020   -4.0330   -2.1900 O.2     1  UNL1       -0.4540
     14  C          9.0250   -4.6880   -0.9870 C.3     1  UNL1        0.4680
@<TRIPOS>BOND
     1     9     7    1
     2     9    11    2
     3     7     6    2
     4    13    11    1
     5    13    14    1
     6    11    10    1
     7    14    12    1
     8     6     5    1
     9     6     8    1
    10    10     8    2
    11    10    12    1
    12     1     5    1
    13     1     2    1
    14     2     4    2
    15     2     3    1
