MODEL 1
REMARK VINA RESULT:      -7.6      0.000      0.000
REMARK SMILES CC(=O)CCc1ccc2c(c1)OCO2
REMARK SMILES IDX 4 1 2 2 1 3 3 4 5 5 6 6 7 7 11 8 8 9 10 10 9 11 12 12 14 13
REMARK SMILES IDX 13 14
REMARK H PARENT
REMARK Flexibility Score: inf
ROOT
ATOM      1  C   UNL     1       5.520   1.937   1.266  1.00  0.00     0.080 C 
ENDROOT
BRANCH   1   2
ATOM      2  C   UNL     1       5.090   0.718   2.007  1.00  0.00     0.130 C 
ATOM      3  C   UNL     1       5.994  -0.450   2.180  1.00  0.00     0.087 C 
ATOM      4  O   UNL     1       3.974   0.643   2.495  1.00  0.00    -0.300 OA
ENDBRANCH   1   2
BRANCH   1   5
ATOM      5  C   UNL     1       5.394   1.744  -0.232  1.00  0.00     0.043 C 
BRANCH   5   6
ATOM      6  C   UNL     1       6.562   1.041  -0.793  1.00  0.00    -0.044 A 
ATOM      7  C   UNL     1       7.868   1.474  -0.541  1.00  0.00     0.008 A 
ATOM      8  C   UNL     1       6.374  -0.070  -1.583  1.00  0.00     0.054 A 
ATOM      9  C   UNL     1       8.925   0.775  -1.094  1.00  0.00     0.051 A 
ATOM     10  C   UNL     1       7.446  -0.775  -2.139  1.00  0.00     0.166 A 
ATOM     11  C   UNL     1       8.732  -0.348  -1.893  1.00  0.00     0.165 A 
ATOM     12  O   UNL     1       7.520  -1.890  -2.945  1.00  0.00    -0.454 OA
ATOM     13  O   UNL     1       9.578  -1.221  -2.559  1.00  0.00    -0.454 OA
ATOM     14  C   UNL     1       8.856  -2.267  -3.164  1.00  0.00     0.468 C 
ENDBRANCH   5   6
ENDBRANCH   1   5
TORSDOF 3
ENDMDL
MODEL 2
REMARK VINA RESULT:      -7.4      1.901      2.390
REMARK SMILES CC(=O)CCc1ccc2c(c1)OCO2
REMARK SMILES IDX 4 1 2 2 1 3 3 4 5 5 6 6 7 7 11 8 8 9 10 10 9 11 12 12 14 13
REMARK SMILES IDX 13 14
REMARK H PARENT
REMARK Flexibility Score: inf
ROOT
ATOM      1  C   UNL     1       5.722   1.297  -0.308  1.00  0.00     0.080 C 
ENDROOT
BRANCH   1   2
ATOM      2  C   UNL     1       5.208   1.237   1.089  1.00  0.00     0.130 C 
ATOM      3  C   UNL     1       5.480   0.070   1.971  1.00  0.00     0.087 C 
ATOM      4  O   UNL     1       4.544   2.150   1.553  1.00  0.00    -0.300 OA
ENDBRANCH   1   2
BRANCH   1   5
ATOM      5  C   UNL     1       7.226   1.108  -0.350  1.00  0.00     0.043 C 
BRANCH   5   6
ATOM      6  C   UNL     1       7.597  -0.187  -0.947  1.00  0.00    -0.044 A 
ATOM      7  C   UNL     1       7.621  -0.376  -2.333  1.00  0.00     0.008 A 
ATOM      8  C   UNL     1       7.931  -1.243  -0.130  1.00  0.00     0.054 A 
ATOM      9  C   UNL     1       7.979  -1.614  -2.836  1.00  0.00     0.051 A 
ATOM     10  C   UNL     1       8.292  -2.493  -0.643  1.00  0.00     0.166 A 
ATOM     11  C   UNL     1       8.316  -2.679  -2.007  1.00  0.00     0.165 A 
ATOM     12  O   UNL     1       8.660  -3.682  -0.050  1.00  0.00    -0.454 OA
ATOM     13  O   UNL     1       8.703  -3.992  -2.226  1.00  0.00    -0.454 OA
ATOM     14  C   UNL     1       9.019  -4.637  -1.015  1.00  0.00     0.468 C 
ENDBRANCH   5   6
ENDBRANCH   1   5
TORSDOF 3
ENDMDL
MODEL 3
REMARK VINA RESULT:      -7.2      2.107      2.623
REMARK SMILES CC(=O)CCc1ccc2c(c1)OCO2
REMARK SMILES IDX 4 1 2 2 1 3 3 4 5 5 6 6 7 7 11 8 8 9 10 10 9 11 12 12 14 13
REMARK SMILES IDX 13 14
REMARK H PARENT
REMARK Flexibility Score: inf
ROOT
ATOM      1  C   UNL     1       5.621   0.044   1.916  1.00  0.00     0.080 C 
ENDROOT
BRANCH   1   2
ATOM      2  C   UNL     1       4.719   1.193   1.620  1.00  0.00     0.130 C 
ATOM      3  C   UNL     1       5.009   2.150   0.519  1.00  0.00     0.087 C 
ATOM      4  O   UNL     1       3.709   1.382   2.279  1.00  0.00    -0.300 OA
ENDBRANCH   1   2
BRANCH   1   5
ATOM      5  C   UNL     1       7.028   0.308   1.419  1.00  0.00     0.043 C 
BRANCH   5   6
ATOM      6  C   UNL     1       7.439  -0.672   0.397  1.00  0.00    -0.044 A 
ATOM      7  C   UNL     1       7.386  -0.371  -0.969  1.00  0.00     0.008 A 
ATOM      8  C   UNL     1       7.889  -1.913   0.784  1.00  0.00     0.054 A 
ATOM      9  C   UNL     1       7.785  -1.330  -1.883  1.00  0.00     0.051 A 
ATOM     10  C   UNL     1       8.292  -2.879  -0.144  1.00  0.00     0.166 A 
ATOM     11  C   UNL     1       8.239  -2.584  -1.488  1.00  0.00     0.165 A 
ATOM     12  O   UNL     1       8.770  -4.165  -0.013  1.00  0.00    -0.454 OA
ATOM     13  O   UNL     1       8.691  -3.708  -2.162  1.00  0.00    -0.454 OA
ATOM     14  C   UNL     1       9.123  -4.701  -1.263  1.00  0.00     0.468 C 
ENDBRANCH   5   6
ENDBRANCH   1   5
TORSDOF 3
ENDMDL
MODEL 4
REMARK VINA RESULT:      -7.1      1.259      1.480
REMARK SMILES CC(=O)CCc1ccc2c(c1)OCO2
REMARK SMILES IDX 4 1 2 2 1 3 3 4 5 5 6 6 7 7 11 8 8 9 10 10 9 11 12 12 14 13
REMARK SMILES IDX 13 14
REMARK H PARENT
REMARK Flexibility Score: inf
ROOT
ATOM      1  C   UNL     1       6.402   1.176   0.958  1.00  0.00     0.080 C 
ENDROOT
BRANCH   1   2
ATOM      2  C   UNL     1       5.653   0.349   1.945  1.00  0.00     0.130 C 
ATOM      3  C   UNL     1       6.225  -0.902   2.509  1.00  0.00     0.087 C 
ATOM      4  O   UNL     1       4.539   0.678   2.321  1.00  0.00    -0.300 OA
ENDBRANCH   1   2
BRANCH   1   5
ATOM      5  C   UNL     1       5.894   0.945  -0.451  1.00  0.00     0.043 C 
BRANCH   5   6
ATOM      6  C   UNL     1       6.823   0.113  -1.237  1.00  0.00    -0.044 A 
ATOM      7  C   UNL     1       7.484   0.617  -2.363  1.00  0.00     0.008 A 
ATOM      8  C   UNL     1       7.055  -1.190  -0.862  1.00  0.00     0.054 A 
ATOM      9  C   UNL     1       8.345  -0.210  -3.061  1.00  0.00     0.051 A 
ATOM     10  C   UNL     1       7.927  -2.022  -1.571  1.00  0.00     0.166 A 
ATOM     11  C   UNL     1       8.577  -1.528  -2.680  1.00  0.00     0.165 A 
ATOM     12  O   UNL     1       8.319  -3.333  -1.403  1.00  0.00    -0.454 OA
ATOM     13  O   UNL     1       9.364  -2.556  -3.174  1.00  0.00    -0.454 OA
ATOM     14  C   UNL     1       9.300  -3.690  -2.342  1.00  0.00     0.468 C 
ENDBRANCH   5   6
ENDBRANCH   1   5
TORSDOF 3
ENDMDL
MODEL 5
REMARK VINA RESULT:      -6.8      1.256      1.752
REMARK SMILES CC(=O)CCc1ccc2c(c1)OCO2
REMARK SMILES IDX 4 1 2 2 1 3 3 4 5 5 6 6 7 7 11 8 8 9 10 10 9 11 12 12 14 13
REMARK SMILES IDX 13 14
REMARK H PARENT
REMARK Flexibility Score: inf
ROOT
ATOM      1  C   UNL     1       5.337  -0.075   1.976  1.00  0.00     0.080 C 
ENDROOT
BRANCH   1   2
ATOM      2  C   UNL     1       4.455   1.112   1.792  1.00  0.00     0.130 C 
ATOM      3  C   UNL     1       4.744   2.146   0.763  1.00  0.00     0.087 C 
ATOM      4  O   UNL     1       3.464   1.270   2.486  1.00  0.00    -0.300 OA
ENDBRANCH   1   2
BRANCH   1   5
ATOM      5  C   UNL     1       6.801   0.311   1.909  1.00  0.00     0.043 C 
BRANCH   5   6
ATOM      6  C   UNL     1       7.400  -0.042   0.610  1.00  0.00    -0.044 A 
ATOM      7  C   UNL     1       7.899   0.937  -0.257  1.00  0.00     0.008 A 
ATOM      8  C   UNL     1       7.478  -1.363   0.231  1.00  0.00     0.054 A 
ATOM      9  C   UNL     1       8.451   0.546  -1.464  1.00  0.00     0.051 A 
ATOM     10  C   UNL     1       8.037  -1.753  -0.990  1.00  0.00     0.166 A 
ATOM     11  C   UNL     1       8.528  -0.790  -1.844  1.00  0.00     0.165 A 
ATOM     12  O   UNL     1       8.227  -2.981  -1.587  1.00  0.00    -0.454 OA
ATOM     13  O   UNL     1       9.014  -1.455  -2.959  1.00  0.00    -0.454 OA
ATOM     14  C   UNL     1       8.926  -2.850  -2.798  1.00  0.00     0.468 C 
ENDBRANCH   5   6
ENDBRANCH   1   5
TORSDOF 3
ENDMDL
