@<TRIPOS>MOLECULE
/home/cewinharhar/GITHUB/reincatalyze/data/processed/docking_pred/2023-May-23-1437_sub9_nm5_bs15_s42_ex16_mel10_mts10000_k50_ec02_g099_lra3e-4_lrc1e-3/73f03501d88ed0f960f592fe5f6124e73644cb01_ligand_9.pdbqt
 14 15 0 0 0
SMALL
GASTEIGER

@<TRIPOS>ATOM
      1  C          6.4000    1.1950    0.9380 C.3     1  UNL1        0.0800
      2  C          5.6600    0.3760    1.9390 C.2     1  UNL1        0.1300
      3  C          6.2500   -0.8540    2.5310 C.3     1  UNL1        0.0870
      4  O          4.5390    0.6940    2.3030 O.2     1  UNL1       -0.3000
      5  C          5.8970    0.9330   -0.4680 C.3     1  UNL1        0.0430
      6  C          6.8370    0.0970   -1.2370 C.2     1  UNL1       -0.0440
      7  C          7.5200    0.5980   -2.3510 C.2     1  UNL1        0.0080
      8  C          7.0580   -1.2070   -0.8580 C.2     1  UNL1        0.0540
      9  C          8.3900   -0.2320   -3.0340 C.2     1  UNL1        0.0510
     10  C          7.9390   -2.0420   -1.5510 C.2     1  UNL1        0.1660
     11  C          8.6110   -1.5500   -2.6480 C.2     1  UNL1        0.1650
     12  O          8.3240   -3.3550   -1.3760 O.2     1  UNL1       -0.4540
     13  O          9.4030   -2.5820   -3.1280 O.2     1  UNL1       -0.4540
     14  C          9.3200   -3.7150   -2.2980 C.3     1  UNL1        0.4680
@<TRIPOS>BOND
     1    13    11    1
     2    13    14    1
     3     9    11    2
     4     9     7    1
     5    11    10    1
     6     7     6    2
     7    14    12    1
     8    10    12    1
     9    10     8    2
    10     6     8    1
    11     6     5    1
    12     5     1    1
    13     1     2    1
    14     2     4    2
    15     2     3    1
