MODEL 1
REMARK VINA RESULT:      -7.7      0.000      0.000
REMARK SMILES CC(=O)CCc1ccc2c(c1)OCO2
REMARK SMILES IDX 4 1 2 2 1 3 3 4 5 5 6 6 7 7 11 8 8 9 10 10 9 11 12 12 14 13
REMARK SMILES IDX 13 14
REMARK H PARENT
REMARK Flexibility Score: inf
ROOT
ATOM      1  C   UNL     1       5.542   1.930   1.262  1.00  0.00     0.080 C 
ENDROOT
BRANCH   1   2
ATOM      2  C   UNL     1       5.113   0.716   2.010  1.00  0.00     0.130 C 
ATOM      3  C   UNL     1       6.022  -0.446   2.198  1.00  0.00     0.087 C 
ATOM      4  O   UNL     1       3.995   0.639   2.493  1.00  0.00    -0.300 OA
ENDBRANCH   1   2
BRANCH   1   5
ATOM      5  C   UNL     1       5.408   1.730  -0.235  1.00  0.00     0.043 C 
BRANCH   5   6
ATOM      6  C   UNL     1       6.574   1.027  -0.799  1.00  0.00    -0.044 A 
ATOM      7  C   UNL     1       7.881   1.459  -0.550  1.00  0.00     0.008 A 
ATOM      8  C   UNL     1       6.384  -0.084  -1.589  1.00  0.00     0.054 A 
ATOM      9  C   UNL     1       8.937   0.759  -1.106  1.00  0.00     0.051 A 
ATOM     10  C   UNL     1       7.454  -0.789  -2.147  1.00  0.00     0.166 A 
ATOM     11  C   UNL     1       8.741  -0.364  -1.904  1.00  0.00     0.165 A 
ATOM     12  O   UNL     1       7.525  -1.905  -2.954  1.00  0.00    -0.454 OA
ATOM     13  O   UNL     1       9.585  -1.237  -2.572  1.00  0.00    -0.454 OA
ATOM     14  C   UNL     1       8.860  -2.282  -3.176  1.00  0.00     0.468 C 
ENDBRANCH   5   6
ENDBRANCH   1   5
TORSDOF 3
ENDMDL
MODEL 2
REMARK VINA RESULT:      -7.5      1.928      2.376
REMARK SMILES CC(=O)CCc1ccc2c(c1)OCO2
REMARK SMILES IDX 4 1 2 2 1 3 3 4 5 5 6 6 7 7 11 8 8 9 10 10 9 11 12 12 14 13
REMARK SMILES IDX 13 14
REMARK H PARENT
REMARK Flexibility Score: inf
ROOT
ATOM      1  C   UNL     1       5.750   1.391  -0.312  1.00  0.00     0.080 C 
ENDROOT
BRANCH   1   2
ATOM      2  C   UNL     1       5.097   1.299   1.023  1.00  0.00     0.130 C 
ATOM      3  C   UNL     1       5.389   0.181   1.960  1.00  0.00     0.087 C 
ATOM      4  O   UNL     1       4.296   2.145   1.389  1.00  0.00    -0.300 OA
ENDBRANCH   1   2
BRANCH   1   5
ATOM      5  C   UNL     1       7.240   1.130  -0.215  1.00  0.00     0.043 C 
BRANCH   5   6
ATOM      6  C   UNL     1       7.610  -0.159  -0.826  1.00  0.00    -0.044 A 
ATOM      7  C   UNL     1       7.685  -0.317  -2.215  1.00  0.00     0.008 A 
ATOM      8  C   UNL     1       7.893  -1.239  -0.022  1.00  0.00     0.054 A 
ATOM      9  C   UNL     1       8.038  -1.550  -2.731  1.00  0.00     0.051 A 
ATOM     10  C   UNL     1       8.251  -2.483  -0.549  1.00  0.00     0.166 A 
ATOM     11  C   UNL     1       8.323  -2.640  -1.915  1.00  0.00     0.165 A 
ATOM     12  O   UNL     1       8.574  -3.692   0.031  1.00  0.00    -0.454 OA
ATOM     13  O   UNL     1       8.694  -3.955  -2.148  1.00  0.00    -0.454 OA
ATOM     14  C   UNL     1       8.952  -4.633  -0.941  1.00  0.00     0.468 C 
ENDBRANCH   5   6
ENDBRANCH   1   5
TORSDOF 3
ENDMDL
MODEL 3
REMARK VINA RESULT:      -7.2      2.054      2.628
REMARK SMILES CC(=O)CCc1ccc2c(c1)OCO2
REMARK SMILES IDX 4 1 2 2 1 3 3 4 5 5 6 6 7 7 11 8 8 9 10 10 9 11 12 12 14 13
REMARK SMILES IDX 13 14
REMARK H PARENT
REMARK Flexibility Score: inf
ROOT
ATOM      1  C   UNL     1       5.417  -0.062   2.004  1.00  0.00     0.080 C 
ENDROOT
BRANCH   1   2
ATOM      2  C   UNL     1       4.579   1.146   1.764  1.00  0.00     0.130 C 
ATOM      3  C   UNL     1       4.913   2.130   0.700  1.00  0.00     0.087 C 
ATOM      4  O   UNL     1       3.587   1.365   2.441  1.00  0.00    -0.300 OA
ENDBRANCH   1   2
BRANCH   1   5
ATOM      5  C   UNL     1       6.858   0.179   1.599  1.00  0.00     0.043 C 
BRANCH   5   6
ATOM      6  C   UNL     1       7.287  -0.742   0.532  1.00  0.00    -0.044 A 
ATOM      7  C   UNL     1       7.162  -0.406  -0.821  1.00  0.00     0.008 A 
ATOM      8  C   UNL     1       7.826  -1.965   0.862  1.00  0.00     0.054 A 
ATOM      9  C   UNL     1       7.582  -1.310  -1.779  1.00  0.00     0.051 A 
ATOM     10  C   UNL     1       8.250  -2.876  -0.111  1.00  0.00     0.166 A 
ATOM     11  C   UNL     1       8.127  -2.546  -1.442  1.00  0.00     0.165 A 
ATOM     12  O   UNL     1       8.809  -4.134  -0.040  1.00  0.00    -0.454 OA
ATOM     13  O   UNL     1       8.619  -3.619  -2.168  1.00  0.00    -0.454 OA
ATOM     14  C   UNL     1       9.145  -4.609  -1.318  1.00  0.00     0.468 C 
ENDBRANCH   5   6
ENDBRANCH   1   5
TORSDOF 3
ENDMDL
MODEL 4
REMARK VINA RESULT:      -7.1      1.983      2.544
REMARK SMILES CC(=O)CCc1ccc2c(c1)OCO2
REMARK SMILES IDX 4 1 2 2 1 3 3 4 5 5 6 6 7 7 11 8 8 9 10 10 9 11 12 12 14 13
REMARK SMILES IDX 13 14
REMARK H PARENT
REMARK Flexibility Score: inf
ROOT
ATOM      1  C   UNL     1       6.777   0.745   1.377  1.00  0.00     0.080 C 
ENDROOT
BRANCH   1   2
ATOM      2  C   UNL     1       5.344   1.147   1.434  1.00  0.00     0.130 C 
ATOM      3  C   UNL     1       4.776   2.150   0.494  1.00  0.00     0.087 C 
ATOM      4  O   UNL     1       4.589   0.660   2.261  1.00  0.00    -0.300 OA
ENDBRANCH   1   2
BRANCH   1   5
ATOM      5  C   UNL     1       7.358   0.974  -0.004  1.00  0.00     0.043 C 
BRANCH   5   6
ATOM      6  C   UNL     1       7.678  -0.296  -0.679  1.00  0.00    -0.044 A 
ATOM      7  C   UNL     1       7.689  -0.402  -2.075  1.00  0.00     0.008 A 
ATOM      8  C   UNL     1       7.978  -1.411   0.070  1.00  0.00     0.054 A 
ATOM      9  C   UNL     1       7.997  -1.619  -2.654  1.00  0.00     0.051 A 
ATOM     10  C   UNL     1       8.290  -2.639  -0.520  1.00  0.00     0.166 A 
ATOM     11  C   UNL     1       8.299  -2.744  -1.893  1.00  0.00     0.165 A 
ATOM     12  O   UNL     1       8.618  -3.874  -0.002  1.00  0.00    -0.454 OA
ATOM     13  O   UNL     1       8.637  -4.055  -2.192  1.00  0.00    -0.454 OA
ATOM     14  C   UNL     1       8.936  -4.783  -1.025  1.00  0.00     0.468 C 
ENDBRANCH   5   6
ENDBRANCH   1   5
TORSDOF 3
ENDMDL
MODEL 5
REMARK VINA RESULT:      -7.1      1.260      1.474
REMARK SMILES CC(=O)CCc1ccc2c(c1)OCO2
REMARK SMILES IDX 4 1 2 2 1 3 3 4 5 5 6 6 7 7 11 8 8 9 10 10 9 11 12 12 14 13
REMARK SMILES IDX 13 14
REMARK H PARENT
REMARK Flexibility Score: inf
ROOT
ATOM      1  C   UNL     1       6.400   1.195   0.938  1.00  0.00     0.080 C 
ENDROOT
BRANCH   1   2
ATOM      2  C   UNL     1       5.660   0.376   1.939  1.00  0.00     0.130 C 
ATOM      3  C   UNL     1       6.250  -0.854   2.531  1.00  0.00     0.087 C 
ATOM      4  O   UNL     1       4.539   0.694   2.303  1.00  0.00    -0.300 OA
ENDBRANCH   1   2
BRANCH   1   5
ATOM      5  C   UNL     1       5.897   0.933  -0.468  1.00  0.00     0.043 C 
BRANCH   5   6
ATOM      6  C   UNL     1       6.837   0.097  -1.237  1.00  0.00    -0.044 A 
ATOM      7  C   UNL     1       7.520   0.598  -2.351  1.00  0.00     0.008 A 
ATOM      8  C   UNL     1       7.058  -1.207  -0.858  1.00  0.00     0.054 A 
ATOM      9  C   UNL     1       8.390  -0.232  -3.034  1.00  0.00     0.051 A 
ATOM     10  C   UNL     1       7.939  -2.042  -1.551  1.00  0.00     0.166 A 
ATOM     11  C   UNL     1       8.611  -1.550  -2.648  1.00  0.00     0.165 A 
ATOM     12  O   UNL     1       8.324  -3.355  -1.376  1.00  0.00    -0.454 OA
ATOM     13  O   UNL     1       9.403  -2.582  -3.128  1.00  0.00    -0.454 OA
ATOM     14  C   UNL     1       9.320  -3.715  -2.298  1.00  0.00     0.468 C 
ENDBRANCH   5   6
ENDBRANCH   1   5
TORSDOF 3
ENDMDL
