@<TRIPOS>MOLECULE
/home/cewinharhar/GITHUB/reincatalyze/data/processed/docking_pred/2023-May-23-1437_sub9_nm5_bs15_s42_ex16_mel10_mts10000_k50_ec02_g099_lra3e-4_lrc1e-3/73f03501d88ed0f960f592fe5f6124e73644cb01_ligand_9.pdbqt
 14 15 0 0 0
SMALL
GASTEIGER

@<TRIPOS>ATOM
      1  C          6.7770    0.7450    1.3770 C.3     1  UNL1        0.0800
      2  C          5.3440    1.1470    1.4340 C.2     1  UNL1        0.1300
      3  C          4.7760    2.1500    0.4940 C.3     1  UNL1        0.0870
      4  O          4.5890    0.6600    2.2610 O.2     1  UNL1       -0.3000
      5  C          7.3580    0.9740   -0.0040 C.3     1  UNL1        0.0430
      6  C          7.6780   -0.2960   -0.6790 C.2     1  UNL1       -0.0440
      7  C          7.6890   -0.4020   -2.0750 C.2     1  UNL1        0.0080
      8  C          7.9780   -1.4110    0.0700 C.2     1  UNL1        0.0540
      9  C          7.9970   -1.6190   -2.6540 C.2     1  UNL1        0.0510
     10  C          8.2900   -2.6390   -0.5200 C.2     1  UNL1        0.1660
     11  C          8.2990   -2.7440   -1.8930 C.2     1  UNL1        0.1650
     12  O          8.6180   -3.8740   -0.0020 O.2     1  UNL1       -0.4540
     13  O          8.6370   -4.0550   -2.1920 O.2     1  UNL1       -0.4540
     14  C          8.9360   -4.7830   -1.0250 C.3     1  UNL1        0.4680
@<TRIPOS>BOND
     1     9     7    1
     2     9    11    2
     3    13    11    1
     4    13    14    1
     5     7     6    2
     6    11    10    1
     7    14    12    1
     8     6     5    1
     9     6     8    1
    10    10    12    1
    11    10     8    2
    12     5     1    1
    13     3     2    1
    14     1     2    1
    15     2     4    2
