@<TRIPOS>MOLECULE
/home/cewinharhar/GITHUB/reincatalyze/data/processed/docking_pred/2023-May-23-1437_sub9_nm5_bs15_s42_ex16_mel10_mts10000_k50_ec02_g099_lra3e-4_lrc1e-3/7473f82790d6809f011fa27bf7bcba9a4b9bdb46_ligand_9.pdbqt
 14 15 0 0 0
SMALL
GASTEIGER

@<TRIPOS>ATOM
      1  C          5.5260    1.9460    1.2640 C.3     1  UNL1        0.0800
      2  C          5.1150    0.7250    2.0120 C.2     1  UNL1        0.1300
      3  C          6.0380   -0.4270    2.1920 C.3     1  UNL1        0.0870
      4  O          4.0020    0.6360    2.5020 O.2     1  UNL1       -0.3000
      5  C          5.3960    1.7430   -0.2330 C.3     1  UNL1        0.0430
      6  C          6.5650    1.0410   -0.7920 C.2     1  UNL1       -0.0440
      7  C          7.8720    1.4690   -0.5310 C.2     1  UNL1        0.0080
      8  C          6.3790   -0.0650   -1.5900 C.2     1  UNL1        0.0540
      9  C          8.9300    0.7700   -1.0830 C.2     1  UNL1        0.0510
     10  C          7.4520   -0.7690   -2.1440 C.2     1  UNL1        0.1660
     11  C          8.7380   -0.3480   -1.8890 C.2     1  UNL1        0.1650
     12  O          7.5280   -1.8800   -2.9570 O.2     1  UNL1       -0.4540
     13  O          9.5850   -1.2190   -2.5560 O.2     1  UNL1       -0.4540
     14  C          8.8630   -2.2590   -3.1710 C.3     1  UNL1        0.4680
@<TRIPOS>BOND
     1    14    12    1
     2    14    13    1
     3    12    10    1
     4    13    11    1
     5    10    11    2
     6    10     8    1
     7    11     9    1
     8     8     6    2
     9     9     7    2
    10     6     7    1
    11     6     5    1
    12     5     1    1
    13     1     2    1
    14     2     3    1
    15     2     4    2
