@<TRIPOS>MOLECULE
/home/cewinharhar/GITHUB/reincatalyze/data/processed/docking_pred/2023-May-23-1437_sub9_nm5_bs15_s42_ex16_mel10_mts10000_k50_ec02_g099_lra3e-4_lrc1e-3/7473f82790d6809f011fa27bf7bcba9a4b9bdb46_ligand_9.pdbqt
 14 15 0 0 0
SMALL
GASTEIGER

@<TRIPOS>ATOM
      1  C          5.8290    1.4440   -0.3700 C.3     1  UNL1        0.0800
      2  C          5.1370    1.3490    0.9450 C.2     1  UNL1        0.1300
      3  C          5.4700    0.2840    1.9280 C.3     1  UNL1        0.0870
      4  O          4.2690    2.1500    1.2560 O.2     1  UNL1       -0.3000
      5  C          7.3070    1.1310   -0.2380 C.3     1  UNL1        0.0430
      6  C          7.6480   -0.1630   -0.8560 C.2     1  UNL1       -0.0440
      7  C          7.6830   -0.3250   -2.2460 C.2     1  UNL1        0.0080
      8  C          7.9440   -1.2440   -0.0570 C.2     1  UNL1        0.0540
      9  C          8.0110   -1.5630   -2.7690 C.2     1  UNL1        0.0510
     10  C          8.2760   -2.4930   -0.5910 C.2     1  UNL1        0.1660
     11  C          8.3090   -2.6540   -1.9580 C.2     1  UNL1        0.1650
     12  O          8.6040   -3.7030   -0.0170 O.2     1  UNL1       -0.4540
     13  O          8.6620   -3.9720   -2.1980 O.2     1  UNL1       -0.4540
     14  C          8.9470   -4.6490   -0.9970 C.3     1  UNL1        0.4680
@<TRIPOS>BOND
     1     9     7    1
     2     9    11    2
     3     7     6    2
     4    13    11    1
     5    13    14    1
     6    11    10    1
     7    14    12    1
     8     6     5    1
     9     6     8    1
    10    10     8    2
    11    10    12    1
    12     1     5    1
    13     1     2    1
    14     2     4    2
    15     2     3    1
