@<TRIPOS>MOLECULE
/home/cewinharhar/GITHUB/reincatalyze/data/processed/docking_pred/2023-May-23-1437_sub9_nm5_bs15_s42_ex16_mel10_mts10000_k50_ec02_g099_lra3e-4_lrc1e-3/7473f82790d6809f011fa27bf7bcba9a4b9bdb46_ligand_9.pdbqt
 14 15 0 0 0
SMALL
GASTEIGER

@<TRIPOS>ATOM
      1  C          8.3360    0.1970   -2.6770 C.3     1  UNL1        0.0800
      2  C          8.0480   -1.2620   -2.7590 C.2     1  UNL1        0.1300
      3  C          9.1210   -2.2550   -3.0300 C.3     1  UNL1        0.0870
      4  O          6.9140   -1.6860   -2.6070 O.2     1  UNL1       -0.3000
      5  C          8.8630    0.5780   -1.3070 C.3     1  UNL1        0.0430
      6  C          7.8310    0.4300   -0.2650 C.2     1  UNL1       -0.0440
      7  C          7.9420   -0.5320    0.7450 C.2     1  UNL1        0.0080
      8  C          6.7290    1.2550   -0.2740 C.2     1  UNL1        0.0540
      9  C          6.9430   -0.6240    1.6980 C.2     1  UNL1        0.0510
     10  C          5.7220    1.1580    0.6920 C.2     1  UNL1        0.1660
     11  C          5.8300    0.2110    1.6850 C.2     1  UNL1        0.1650
     12  O          4.5470    1.8500    0.8960 O.2     1  UNL1       -0.4540
     13  O          4.7080    0.3420    2.4880 O.2     1  UNL1       -0.4540
     14  C          3.9130    1.4290    2.0770 C.3     1  UNL1        0.4680
@<TRIPOS>BOND
     1     3     2    1
     2     2     1    1
     3     2     4    2
     4     1     5    1
     5     5     6    1
     6     8     6    2
     7     8    10    1
     8     6     7    1
     9    10    12    1
    10    10    11    2
    11     7     9    2
    12    12    14    1
    13    11     9    1
    14    11    13    1
    15    14    13    1
