@<TRIPOS>MOLECULE
/home/cewinharhar/GITHUB/reincatalyze/data/processed/docking_pred/2023-May-23-1437_sub9_nm5_bs15_s42_ex16_mel10_mts10000_k50_ec02_g099_lra3e-4_lrc1e-3/7473f82790d6809f011fa27bf7bcba9a4b9bdb46_ligand_9.pdbqt
 14 15 0 0 0
SMALL
GASTEIGER

@<TRIPOS>ATOM
      1  C          6.3730    1.1890    0.9450 C.3     1  UNL1        0.0800
      2  C          5.6650    0.3570    1.9570 C.2     1  UNL1        0.1300
      3  C          6.2840   -0.8660    2.5340 C.3     1  UNL1        0.0870
      4  O          4.5460    0.6570    2.3430 O.2     1  UNL1       -0.3000
      5  C          5.8590    0.9130   -0.4540 C.3     1  UNL1        0.0430
      6  C          6.8080    0.0980   -1.2340 C.2     1  UNL1       -0.0440
      7  C          7.4910    0.6250   -2.3360 C.2     1  UNL1        0.0080
      8  C          7.0370   -1.2110   -0.8770 C.2     1  UNL1        0.0540
      9  C          8.3710   -0.1870   -3.0300 C.2     1  UNL1        0.0510
     10  C          7.9270   -2.0270   -1.5820 C.2     1  UNL1        0.1660
     11  C          8.5990   -1.5100   -2.6670 C.2     1  UNL1        0.1650
     12  O          8.3210   -3.3390   -1.4290 O.2     1  UNL1       -0.4540
     13  O          9.4010   -2.5270   -3.1630 O.2     1  UNL1       -0.4540
     14  C          9.3240   -3.6760   -2.3540 C.3     1  UNL1        0.4680
@<TRIPOS>BOND
     1    13    11    1
     2    13    14    1
     3     9    11    2
     4     9     7    1
     5    11    10    1
     6    14    12    1
     7     7     6    2
     8    10    12    1
     9    10     8    2
    10     6     8    1
    11     6     5    1
    12     5     1    1
    13     1     2    1
    14     2     4    2
    15     2     3    1
