MODEL 1
REMARK VINA RESULT:      -7.6      0.000      0.000
REMARK SMILES CC(=O)CCc1ccc2c(c1)OCO2
REMARK SMILES IDX 4 1 2 2 1 3 3 4 5 5 6 6 7 7 11 8 8 9 10 10 9 11 12 12 14 13
REMARK SMILES IDX 13 14
REMARK H PARENT
REMARK Flexibility Score: inf
ROOT
ATOM      1  C   UNL     1       5.526   1.946   1.264  1.00  0.00     0.080 C 
ENDROOT
BRANCH   1   2
ATOM      2  C   UNL     1       5.115   0.725   2.012  1.00  0.00     0.130 C 
ATOM      3  C   UNL     1       6.038  -0.427   2.192  1.00  0.00     0.087 C 
ATOM      4  O   UNL     1       4.002   0.636   2.502  1.00  0.00    -0.300 OA
ENDBRANCH   1   2
BRANCH   1   5
ATOM      5  C   UNL     1       5.396   1.743  -0.233  1.00  0.00     0.043 C 
BRANCH   5   6
ATOM      6  C   UNL     1       6.565   1.041  -0.792  1.00  0.00    -0.044 A 
ATOM      7  C   UNL     1       7.872   1.469  -0.531  1.00  0.00     0.008 A 
ATOM      8  C   UNL     1       6.379  -0.065  -1.590  1.00  0.00     0.054 A 
ATOM      9  C   UNL     1       8.930   0.770  -1.083  1.00  0.00     0.051 A 
ATOM     10  C   UNL     1       7.452  -0.769  -2.144  1.00  0.00     0.166 A 
ATOM     11  C   UNL     1       8.738  -0.348  -1.889  1.00  0.00     0.165 A 
ATOM     12  O   UNL     1       7.528  -1.880  -2.957  1.00  0.00    -0.454 OA
ATOM     13  O   UNL     1       9.585  -1.219  -2.556  1.00  0.00    -0.454 OA
ATOM     14  C   UNL     1       8.863  -2.259  -3.171  1.00  0.00     0.468 C 
ENDBRANCH   5   6
ENDBRANCH   1   5
TORSDOF 3
ENDMDL
MODEL 2
REMARK VINA RESULT:      -7.4      1.926      2.409
REMARK SMILES CC(=O)CCc1ccc2c(c1)OCO2
REMARK SMILES IDX 4 1 2 2 1 3 3 4 5 5 6 6 7 7 11 8 8 9 10 10 9 11 12 12 14 13
REMARK SMILES IDX 13 14
REMARK H PARENT
REMARK Flexibility Score: inf
ROOT
ATOM      1  C   UNL     1       5.829   1.444  -0.370  1.00  0.00     0.080 C 
ENDROOT
BRANCH   1   2
ATOM      2  C   UNL     1       5.137   1.349   0.945  1.00  0.00     0.130 C 
ATOM      3  C   UNL     1       5.470   0.284   1.928  1.00  0.00     0.087 C 
ATOM      4  O   UNL     1       4.269   2.150   1.256  1.00  0.00    -0.300 OA
ENDBRANCH   1   2
BRANCH   1   5
ATOM      5  C   UNL     1       7.307   1.131  -0.238  1.00  0.00     0.043 C 
BRANCH   5   6
ATOM      6  C   UNL     1       7.648  -0.163  -0.856  1.00  0.00    -0.044 A 
ATOM      7  C   UNL     1       7.683  -0.325  -2.246  1.00  0.00     0.008 A 
ATOM      8  C   UNL     1       7.944  -1.244  -0.057  1.00  0.00     0.054 A 
ATOM      9  C   UNL     1       8.011  -1.563  -2.769  1.00  0.00     0.051 A 
ATOM     10  C   UNL     1       8.276  -2.493  -0.591  1.00  0.00     0.166 A 
ATOM     11  C   UNL     1       8.309  -2.654  -1.958  1.00  0.00     0.165 A 
ATOM     12  O   UNL     1       8.604  -3.703  -0.017  1.00  0.00    -0.454 OA
ATOM     13  O   UNL     1       8.662  -3.972  -2.198  1.00  0.00    -0.454 OA
ATOM     14  C   UNL     1       8.947  -4.649  -0.997  1.00  0.00     0.468 C 
ENDBRANCH   5   6
ENDBRANCH   1   5
TORSDOF 3
ENDMDL
MODEL 3
REMARK VINA RESULT:      -7.1      2.076      2.640
REMARK SMILES CC(=O)CCc1ccc2c(c1)OCO2
REMARK SMILES IDX 4 1 2 2 1 3 3 4 5 5 6 6 7 7 11 8 8 9 10 10 9 11 12 12 14 13
REMARK SMILES IDX 13 14
REMARK H PARENT
REMARK Flexibility Score: inf
ROOT
ATOM      1  C   UNL     1       5.505  -0.010   1.989  1.00  0.00     0.080 C 
ENDROOT
BRANCH   1   2
ATOM      2  C   UNL     1       4.630   1.166   1.722  1.00  0.00     0.130 C 
ATOM      3  C   UNL     1       4.947   2.148   0.651  1.00  0.00     0.087 C 
ATOM      4  O   UNL     1       3.620   1.357   2.379  1.00  0.00    -0.300 OA
ENDBRANCH   1   2
BRANCH   1   5
ATOM      5  C   UNL     1       6.924   0.243   1.519  1.00  0.00     0.043 C 
BRANCH   5   6
ATOM      6  C   UNL     1       7.331  -0.711   0.472  1.00  0.00    -0.044 A 
ATOM      7  C   UNL     1       7.189  -0.412  -0.887  1.00  0.00     0.008 A 
ATOM      8  C   UNL     1       7.868  -1.927   0.829  1.00  0.00     0.054 A 
ATOM      9  C   UNL     1       7.589  -1.346  -1.825  1.00  0.00     0.051 A 
ATOM     10  C   UNL     1       8.272  -2.868  -0.123  1.00  0.00     0.166 A 
ATOM     11  C   UNL     1       8.131  -2.575  -1.461  1.00  0.00     0.165 A 
ATOM     12  O   UNL     1       8.824  -4.127  -0.024  1.00  0.00    -0.454 OA
ATOM     13  O   UNL     1       8.606  -3.672  -2.163  1.00  0.00    -0.454 OA
ATOM     14  C   UNL     1       9.139  -4.641  -1.293  1.00  0.00     0.468 C 
ENDBRANCH   5   6
ENDBRANCH   1   5
TORSDOF 3
ENDMDL
MODEL 4
REMARK VINA RESULT:      -7.0      1.254      1.469
REMARK SMILES CC(=O)CCc1ccc2c(c1)OCO2
REMARK SMILES IDX 4 1 2 2 1 3 3 4 5 5 6 6 7 7 11 8 8 9 10 10 9 11 12 12 14 13
REMARK SMILES IDX 13 14
REMARK H PARENT
REMARK Flexibility Score: inf
ROOT
ATOM      1  C   UNL     1       6.373   1.189   0.945  1.00  0.00     0.080 C 
ENDROOT
BRANCH   1   2
ATOM      2  C   UNL     1       5.665   0.357   1.957  1.00  0.00     0.130 C 
ATOM      3  C   UNL     1       6.284  -0.866   2.534  1.00  0.00     0.087 C 
ATOM      4  O   UNL     1       4.546   0.657   2.343  1.00  0.00    -0.300 OA
ENDBRANCH   1   2
BRANCH   1   5
ATOM      5  C   UNL     1       5.859   0.913  -0.454  1.00  0.00     0.043 C 
BRANCH   5   6
ATOM      6  C   UNL     1       6.808   0.098  -1.234  1.00  0.00    -0.044 A 
ATOM      7  C   UNL     1       7.491   0.625  -2.336  1.00  0.00     0.008 A 
ATOM      8  C   UNL     1       7.037  -1.211  -0.877  1.00  0.00     0.054 A 
ATOM      9  C   UNL     1       8.371  -0.187  -3.030  1.00  0.00     0.051 A 
ATOM     10  C   UNL     1       7.927  -2.027  -1.582  1.00  0.00     0.166 A 
ATOM     11  C   UNL     1       8.599  -1.510  -2.667  1.00  0.00     0.165 A 
ATOM     12  O   UNL     1       8.321  -3.339  -1.429  1.00  0.00    -0.454 OA
ATOM     13  O   UNL     1       9.401  -2.527  -3.163  1.00  0.00    -0.454 OA
ATOM     14  C   UNL     1       9.324  -3.676  -2.354  1.00  0.00     0.468 C 
ENDBRANCH   5   6
ENDBRANCH   1   5
TORSDOF 3
ENDMDL
MODEL 5
REMARK VINA RESULT:      -6.7      1.186      5.160
REMARK SMILES CC(=O)CCc1ccc2c(c1)OCO2
REMARK SMILES IDX 4 1 2 2 1 3 3 4 5 5 6 6 7 7 11 8 8 9 10 10 9 11 12 12 14 13
REMARK SMILES IDX 13 14
REMARK H PARENT
REMARK Flexibility Score: inf
ROOT
ATOM      1  C   UNL     1       8.336   0.197  -2.677  1.00  0.00     0.080 C 
ENDROOT
BRANCH   1   2
ATOM      2  C   UNL     1       8.048  -1.262  -2.759  1.00  0.00     0.130 C 
ATOM      3  C   UNL     1       9.121  -2.255  -3.030  1.00  0.00     0.087 C 
ATOM      4  O   UNL     1       6.914  -1.686  -2.607  1.00  0.00    -0.300 OA
ENDBRANCH   1   2
BRANCH   1   5
ATOM      5  C   UNL     1       8.863   0.578  -1.307  1.00  0.00     0.043 C 
BRANCH   5   6
ATOM      6  C   UNL     1       7.831   0.430  -0.265  1.00  0.00    -0.044 A 
ATOM      7  C   UNL     1       7.942  -0.532   0.745  1.00  0.00     0.008 A 
ATOM      8  C   UNL     1       6.729   1.255  -0.274  1.00  0.00     0.054 A 
ATOM      9  C   UNL     1       6.943  -0.624   1.698  1.00  0.00     0.051 A 
ATOM     10  C   UNL     1       5.722   1.158   0.692  1.00  0.00     0.166 A 
ATOM     11  C   UNL     1       5.830   0.211   1.685  1.00  0.00     0.165 A 
ATOM     12  O   UNL     1       4.547   1.850   0.896  1.00  0.00    -0.454 OA
ATOM     13  O   UNL     1       4.708   0.342   2.488  1.00  0.00    -0.454 OA
ATOM     14  C   UNL     1       3.913   1.429   2.077  1.00  0.00     0.468 C 
ENDBRANCH   5   6
ENDBRANCH   1   5
TORSDOF 3
ENDMDL
