@<TRIPOS>MOLECULE
/home/cewinharhar/GITHUB/reincatalyze/data/processed/docking_pred/2023-May-23-1437_sub9_nm5_bs15_s42_ex16_mel10_mts10000_k50_ec02_g099_lra3e-4_lrc1e-3/777751631f294be45381376aa4be6161cfc72981_ligand_9.pdbqt
 14 15 0 0 0
SMALL
GASTEIGER

@<TRIPOS>ATOM
      1  C          5.5520    1.9170    1.2790 C.3     1  UNL1        0.0800
      2  C          5.1220    0.6980    2.0190 C.2     1  UNL1        0.1300
      3  C          6.0280   -0.4680    2.1980 C.3     1  UNL1        0.0870
      4  O          4.0040    0.6200    2.5020 O.2     1  UNL1       -0.3000
      5  C          5.4180    1.7290   -0.2190 C.3     1  UNL1        0.0430
      6  C          6.5820    1.0260   -0.7870 C.2     1  UNL1       -0.0440
      7  C          7.8910    1.4540   -0.5370 C.2     1  UNL1        0.0080
      8  C          6.3890   -0.0810   -1.5830 C.2     1  UNL1        0.0540
      9  C          8.9440    0.7550   -1.0970 C.2     1  UNL1        0.0510
     10  C          7.4580   -0.7850   -2.1460 C.2     1  UNL1        0.1660
     11  C          8.7460   -0.3640   -1.9020 C.2     1  UNL1        0.1650
     12  O          7.5260   -1.8970   -2.9590 O.2     1  UNL1       -0.4540
     13  O          9.5870   -1.2350   -2.5750 O.2     1  UNL1       -0.4540
     14  C          8.8600   -2.2750   -3.1840 C.3     1  UNL1        0.4680
@<TRIPOS>BOND
     1    14    12    1
     2    14    13    1
     3    12    10    1
     4    13    11    1
     5    10    11    2
     6    10     8    1
     7    11     9    1
     8     8     6    2
     9     9     7    2
    10     6     7    1
    11     6     5    1
    12     5     1    1
    13     1     2    1
    14     2     3    1
    15     2     4    2
