@<TRIPOS>MOLECULE
/home/cewinharhar/GITHUB/reincatalyze/data/processed/docking_pred/2023-May-23-1437_sub9_nm5_bs15_s42_ex16_mel10_mts10000_k50_ec02_g099_lra3e-4_lrc1e-3/79495f175fd15f32955b26bb978cae7af324a937_ligand_9.pdbqt
 14 15 0 0 0
SMALL
GASTEIGER

@<TRIPOS>ATOM
      1  C          5.5140    1.9220    1.2730 C.3     1  UNL1        0.0800
      2  C          5.0560    0.7070    2.0030 C.2     1  UNL1        0.1300
      3  C          5.9250   -0.4910    2.1470 C.3     1  UNL1        0.0870
      4  O          3.9450    0.6590    2.5060 O.2     1  UNL1       -0.3000
      5  C          5.3920    1.7430   -0.2270 C.3     1  UNL1        0.0430
      6  C          6.5590    1.0410   -0.7900 C.2     1  UNL1       -0.0440
      7  C          7.8660    1.4770   -0.5410 C.2     1  UNL1        0.0080
      8  C          6.3720   -0.0710   -1.5780 C.2     1  UNL1        0.0540
      9  C          8.9230    0.7780   -1.0960 C.2     1  UNL1        0.0510
     10  C          7.4440   -0.7740   -2.1360 C.2     1  UNL1        0.1660
     11  C          8.7300   -0.3460   -1.8930 C.2     1  UNL1        0.1650
     12  O          7.5180   -1.8910   -2.9420 O.2     1  UNL1       -0.4540
     13  O          9.5750   -1.2180   -2.5610 O.2     1  UNL1       -0.4540
     14  C          8.8530   -2.2650   -3.1630 C.3     1  UNL1        0.4680
@<TRIPOS>BOND
     1    14    12    1
     2    14    13    1
     3    12    10    1
     4    13    11    1
     5    10    11    2
     6    10     8    1
     7    11     9    1
     8     8     6    2
     9     9     7    2
    10     6     7    1
    11     6     5    1
    12     5     1    1
    13     1     2    1
    14     2     3    1
    15     2     4    2
