@<TRIPOS>MOLECULE
/home/cewinharhar/GITHUB/reincatalyze/data/processed/docking_pred/2023-May-23-1437_sub9_nm5_bs15_s42_ex16_mel10_mts10000_k50_ec02_g099_lra3e-4_lrc1e-3/7ac8f9624e71b352d93dccd4dc48cb56e96c53c0_ligand_9.pdbqt
 14 15 0 0 0
SMALL
GASTEIGER

@<TRIPOS>ATOM
      1  C          6.4000    1.1800    0.9190 C.3     1  UNL1        0.0800
      2  C          5.6770    0.3630    1.9330 C.2     1  UNL1        0.1300
      3  C          6.2790   -0.8640    2.5190 C.3     1  UNL1        0.0870
      4  O          4.5620    0.6800    2.3140 O.2     1  UNL1       -0.3000
      5  C          5.8920    0.8960   -0.4810 C.3     1  UNL1        0.0430
      6  C          6.8410    0.0710   -1.2500 C.2     1  UNL1       -0.0440
      7  C          7.5370    0.5860   -2.3500 C.2     1  UNL1        0.0080
      8  C          7.0580   -1.2380   -0.8840 C.2     1  UNL1        0.0540
      9  C          8.4150   -0.2360   -3.0320 C.2     1  UNL1        0.0510
     10  C          7.9480   -2.0640   -1.5770 C.2     1  UNL1        0.1660
     11  C          8.6320   -1.5590   -2.6610 C.2     1  UNL1        0.1650
     12  O          8.3300   -3.3790   -1.4150 O.2     1  UNL1       -0.4540
     13  O          9.4290   -2.5840   -3.1450 O.2     1  UNL1       -0.4540
     14  C          9.3380   -3.7280   -2.3300 C.3     1  UNL1        0.4680
@<TRIPOS>BOND
     1    13    11    1
     2    13    14    1
     3     9    11    2
     4     9     7    1
     5    11    10    1
     6     7     6    2
     7    14    12    1
     8    10    12    1
     9    10     8    2
    10     6     8    1
    11     6     5    1
    12     5     1    1
    13     1     2    1
    14     2     4    2
    15     2     3    1
