@<TRIPOS>MOLECULE
/home/cewinharhar/GITHUB/reincatalyze/data/processed/docking_pred/2023-May-23-1437_sub9_nm5_bs15_s42_ex16_mel10_mts10000_k50_ec02_g099_lra3e-4_lrc1e-3/7ac8f9624e71b352d93dccd4dc48cb56e96c53c0_ligand_9.pdbqt
 14 15 0 0 0
SMALL
GASTEIGER

@<TRIPOS>ATOM
      1  C          8.5900    0.2410   -2.5190 C.3     1  UNL1        0.0800
      2  C          8.5020   -1.2290   -2.7430 C.2     1  UNL1        0.1300
      3  C          7.1910   -1.9230   -2.8610 C.3     1  UNL1        0.0870
      4  O          9.5100   -1.9100   -2.8380 O.2     1  UNL1       -0.3000
      5  C          9.0520    0.5550   -1.1100 C.3     1  UNL1        0.0430
      6  C          7.9620    0.4000   -0.1300 C.2     1  UNL1       -0.0440
      7  C          7.9970   -0.5970    0.8530 C.2     1  UNL1        0.0080
      8  C          6.8820    1.2510   -0.1700 C.2     1  UNL1        0.0540
      9  C          6.9460   -0.6940    1.7460 C.2     1  UNL1        0.0510
     10  C          5.8220    1.1490    0.7360 C.2     1  UNL1        0.1660
     11  C          5.8540    0.1680    1.7020 C.2     1  UNL1        0.1650
     12  O          4.6530    1.8620    0.9000 O.2     1  UNL1       -0.4540
     13  O          4.6930    0.3010    2.4470 O.2     1  UNL1       -0.4540
     14  C          3.9470    1.4190    2.0300 C.3     1  UNL1        0.4680
@<TRIPOS>BOND
     1     3     2    1
     2     4     2    2
     3     2     1    1
     4     1     5    1
     5     5     6    1
     6     8     6    2
     7     8    10    1
     8     6     7    1
     9    10    12    1
    10    10    11    2
    11     7     9    2
    12    12    14    1
    13    11     9    1
    14    11    13    1
    15    14    13    1
