@<TRIPOS>MOLECULE
/home/cewinharhar/GITHUB/reincatalyze/data/processed/docking_pred/2023-May-23-1437_sub9_nm5_bs15_s42_ex16_mel10_mts10000_k50_ec02_g099_lra3e-4_lrc1e-3/7c86502248d8ce059d377094dc2c2500eee92fd7_ligand_9.pdbqt
 14 15 0 0 0
SMALL
GASTEIGER

@<TRIPOS>ATOM
      1  C          5.9280    1.1300   -0.1970 C.3     1  UNL1        0.0800
      2  C          5.8820    1.1500    1.2920 C.2     1  UNL1        0.1300
      3  C          5.3480    0.0010    2.0720 C.3     1  UNL1        0.0870
      4  O          6.2830    2.1170    1.9180 O.2     1  UNL1       -0.3000
      5  C          7.3570    1.1170   -0.7030 C.3     1  UNL1        0.0430
      6  C          7.7530   -0.2170   -1.1870 C.2     1  UNL1       -0.0440
      7  C          7.9700   -0.4690   -2.5470 C.2     1  UNL1        0.0080
      8  C          7.9190   -1.2470   -0.2900 C.2     1  UNL1        0.0540
      9  C          8.3420   -1.7410   -2.9430 C.2     1  UNL1        0.0510
     10  C          8.2950   -2.5310   -0.6950 C.2     1  UNL1        0.1660
     11  C          8.5080   -2.7800   -2.0320 C.2     1  UNL1        0.1650
     12  O          8.5200   -3.7050   -0.0080 O.2     1  UNL1       -0.4540
     13  O          8.8640   -4.1150   -2.1400 O.2     1  UNL1       -0.4540
     14  C          8.9730   -4.7160   -0.8710 C.3     1  UNL1        0.4680
@<TRIPOS>BOND
     1     9     7    1
     2     9    11    2
     3     7     6    2
     4    13    11    1
     5    13    14    1
     6    11    10    1
     7     6     5    1
     8     6     8    1
     9    14    12    1
    10     5     1    1
    11    10     8    2
    12    10    12    1
    13     1     2    1
    14     2     4    2
    15     2     3    1
