MODEL 1
REMARK VINA RESULT:      -7.2      0.000      0.000
REMARK SMILES CC(=O)CCc1ccc2c(c1)OCO2
REMARK SMILES IDX 4 1 2 2 1 3 3 4 5 5 6 6 7 7 11 8 8 9 10 10 9 11 12 12 14 13
REMARK SMILES IDX 13 14
REMARK H PARENT
REMARK Flexibility Score: inf
ROOT
ATOM      1  C   UNL     1       5.886   1.550   1.225  1.00  0.00     0.080 C 
ENDROOT
BRANCH   1   2
ATOM      2  C   UNL     1       5.394   0.396   2.028  1.00  0.00     0.130 C 
ATOM      3  C   UNL     1       6.243  -0.799   2.280  1.00  0.00     0.087 C 
ATOM      4  O   UNL     1       4.271   0.398   2.505  1.00  0.00    -0.300 OA
ENDBRANCH   1   2
BRANCH   1   5
ATOM      5  C   UNL     1       5.660   1.325  -0.257  1.00  0.00     0.043 C 
BRANCH   5   6
ATOM      6  C   UNL     1       6.813   0.661  -0.890  1.00  0.00    -0.044 A 
ATOM      7  C   UNL     1       8.088   1.239  -0.881  1.00  0.00     0.008 A 
ATOM      8  C   UNL     1       6.645  -0.558  -1.507  1.00  0.00     0.054 A 
ATOM      9  C   UNL     1       9.133   0.569  -1.491  1.00  0.00     0.051 A 
ATOM     10  C   UNL     1       7.704  -1.232  -2.121  1.00  0.00     0.166 A 
ATOM     11  C   UNL     1       8.959  -0.663  -2.114  1.00  0.00     0.165 A 
ATOM     12  O   UNL     1       7.792  -2.434  -2.790  1.00  0.00    -0.454 OA
ATOM     13  O   UNL     1       9.799  -1.538  -2.784  1.00  0.00    -0.454 OA
ATOM     14  C   UNL     1       9.120  -2.715  -3.151  1.00  0.00     0.468 C 
ENDBRANCH   5   6
ENDBRANCH   1   5
TORSDOF 3
ENDMDL
MODEL 2
REMARK VINA RESULT:      -7.1      1.067      1.096
REMARK SMILES CC(=O)CCc1ccc2c(c1)OCO2
REMARK SMILES IDX 4 1 2 2 1 3 3 4 5 5 6 6 7 7 11 8 8 9 10 10 9 11 12 12 14 13
REMARK SMILES IDX 13 14
REMARK H PARENT
REMARK Flexibility Score: inf
ROOT
ATOM      1  C   UNL     1       6.369   1.186   0.966  1.00  0.00     0.080 C 
ENDROOT
BRANCH   1   2
ATOM      2  C   UNL     1       5.632   0.359   1.962  1.00  0.00     0.130 C 
ATOM      3  C   UNL     1       6.227  -0.872   2.548  1.00  0.00     0.087 C 
ATOM      4  O   UNL     1       4.510   0.670   2.327  1.00  0.00    -0.300 OA
ENDBRANCH   1   2
BRANCH   1   5
ATOM      5  C   UNL     1       5.865   0.931  -0.441  1.00  0.00     0.043 C 
BRANCH   5   6
ATOM      6  C   UNL     1       6.811   0.111  -1.220  1.00  0.00    -0.044 A 
ATOM      7  C   UNL     1       7.486   0.627  -2.332  1.00  0.00     0.008 A 
ATOM      8  C   UNL     1       7.045  -1.195  -0.852  1.00  0.00     0.054 A 
ATOM      9  C   UNL     1       8.362  -0.189  -3.023  1.00  0.00     0.051 A 
ATOM     10  C   UNL     1       7.932  -2.016  -1.554  1.00  0.00     0.166 A 
ATOM     11  C   UNL     1       8.596  -1.509  -2.649  1.00  0.00     0.165 A 
ATOM     12  O   UNL     1       8.330  -3.326  -1.390  1.00  0.00    -0.454 OA
ATOM     13  O   UNL     1       9.396  -2.529  -3.140  1.00  0.00    -0.454 OA
ATOM     14  C   UNL     1       9.327  -3.670  -2.318  1.00  0.00     0.468 C 
ENDBRANCH   5   6
ENDBRANCH   1   5
TORSDOF 3
ENDMDL
MODEL 3
REMARK VINA RESULT:      -7.0      1.784      2.242
REMARK SMILES CC(=O)CCc1ccc2c(c1)OCO2
REMARK SMILES IDX 4 1 2 2 1 3 3 4 5 5 6 6 7 7 11 8 8 9 10 10 9 11 12 12 14 13
REMARK SMILES IDX 13 14
REMARK H PARENT
REMARK Flexibility Score: inf
ROOT
ATOM      1  C   UNL     1       5.928   1.130  -0.197  1.00  0.00     0.080 C 
ENDROOT
BRANCH   1   2
ATOM      2  C   UNL     1       5.882   1.150   1.292  1.00  0.00     0.130 C 
ATOM      3  C   UNL     1       5.348   0.001   2.072  1.00  0.00     0.087 C 
ATOM      4  O   UNL     1       6.283   2.117   1.918  1.00  0.00    -0.300 OA
ENDBRANCH   1   2
BRANCH   1   5
ATOM      5  C   UNL     1       7.357   1.117  -0.703  1.00  0.00     0.043 C 
BRANCH   5   6
ATOM      6  C   UNL     1       7.753  -0.217  -1.187  1.00  0.00    -0.044 A 
ATOM      7  C   UNL     1       7.970  -0.469  -2.547  1.00  0.00     0.008 A 
ATOM      8  C   UNL     1       7.919  -1.247  -0.290  1.00  0.00     0.054 A 
ATOM      9  C   UNL     1       8.342  -1.741  -2.943  1.00  0.00     0.051 A 
ATOM     10  C   UNL     1       8.295  -2.531  -0.695  1.00  0.00     0.166 A 
ATOM     11  C   UNL     1       8.508  -2.780  -2.032  1.00  0.00     0.165 A 
ATOM     12  O   UNL     1       8.520  -3.705  -0.008  1.00  0.00    -0.454 OA
ATOM     13  O   UNL     1       8.864  -4.115  -2.140  1.00  0.00    -0.454 OA
ATOM     14  C   UNL     1       8.973  -4.716  -0.871  1.00  0.00     0.468 C 
ENDBRANCH   5   6
ENDBRANCH   1   5
TORSDOF 3
ENDMDL
MODEL 4
REMARK VINA RESULT:      -6.6      2.000      2.578
REMARK SMILES CC(=O)CCc1ccc2c(c1)OCO2
REMARK SMILES IDX 4 1 2 2 1 3 3 4 5 5 6 6 7 7 11 8 8 9 10 10 9 11 12 12 14 13
REMARK SMILES IDX 13 14
REMARK H PARENT
REMARK Flexibility Score: inf
ROOT
ATOM      1  C   UNL     1       6.148  -0.397   2.302  1.00  0.00     0.080 C 
ENDROOT
BRANCH   1   2
ATOM      2  C   UNL     1       5.111   0.574   1.855  1.00  0.00     0.130 C 
ATOM      3  C   UNL     1       5.290   1.402   0.633  1.00  0.00     0.087 C 
ATOM      4  O   UNL     1       4.076   0.719   2.485  1.00  0.00    -0.300 OA
ENDBRANCH   1   2
BRANCH   1   5
ATOM      5  C   UNL     1       7.488  -0.106   1.655  1.00  0.00     0.043 C 
BRANCH   5   6
ATOM      6  C   UNL     1       7.780  -1.046   0.558  1.00  0.00    -0.044 A 
ATOM      7  C   UNL     1       7.650  -0.670  -0.783  1.00  0.00     0.008 A 
ATOM      8  C   UNL     1       8.195  -2.326   0.849  1.00  0.00     0.054 A 
ATOM      9  C   UNL     1       7.939  -1.594  -1.771  1.00  0.00     0.051 A 
ATOM     10  C   UNL     1       8.486  -3.257  -0.153  1.00  0.00     0.166 A 
ATOM     11  C   UNL     1       8.357  -2.888  -1.474  1.00  0.00     0.165 A 
ATOM     12  O   UNL     1       8.908  -4.569  -0.123  1.00  0.00    -0.454 OA
ATOM     13  O   UNL     1       8.707  -3.992  -2.235  1.00  0.00    -0.454 OA
ATOM     14  C   UNL     1       9.150  -5.051  -1.420  1.00  0.00     0.468 C 
ENDBRANCH   5   6
ENDBRANCH   1   5
TORSDOF 3
ENDMDL
MODEL 5
REMARK VINA RESULT:      -6.3      0.930      1.008
REMARK SMILES CC(=O)CCc1ccc2c(c1)OCO2
REMARK SMILES IDX 4 1 2 2 1 3 3 4 5 5 6 6 7 7 11 8 8 9 10 10 9 11 12 12 14 13
REMARK SMILES IDX 13 14
REMARK H PARENT
REMARK Flexibility Score: inf
ROOT
ATOM      1  C   UNL     1       5.136   0.496   1.498  1.00  0.00     0.080 C 
ENDROOT
BRANCH   1   2
ATOM      2  C   UNL     1       6.285  -0.169   2.173  1.00  0.00     0.130 C 
ATOM      3  C   UNL     1       6.485  -1.641   2.107  1.00  0.00     0.087 C 
ATOM      4  O   UNL     1       7.102   0.481   2.805  1.00  0.00    -0.300 OA
ENDBRANCH   1   2
BRANCH   1   5
ATOM      5  C   UNL     1       5.606   1.418   0.391  1.00  0.00     0.043 C 
BRANCH   5   6
ATOM      6  C   UNL     1       6.705   0.821  -0.389  1.00  0.00    -0.044 A 
ATOM      7  C   UNL     1       7.979   1.400  -0.424  1.00  0.00     0.008 A 
ATOM      8  C   UNL     1       6.485  -0.336  -1.101  1.00  0.00     0.054 A 
ATOM      9  C   UNL     1       8.971   0.794  -1.173  1.00  0.00     0.051 A 
ATOM     10  C   UNL     1       7.492  -0.945  -1.856  1.00  0.00     0.166 A 
ATOM     11  C   UNL     1       8.745  -0.375  -1.892  1.00  0.00     0.165 A 
ATOM     12  O   UNL     1       7.523  -2.080  -2.639  1.00  0.00    -0.454 OA
ATOM     13  O   UNL     1       9.528  -1.180  -2.704  1.00  0.00    -0.454 OA
ATOM     14  C   UNL     1       8.819  -2.321  -3.125  1.00  0.00     0.468 C 
ENDBRANCH   5   6
ENDBRANCH   1   5
TORSDOF 3
ENDMDL
