@<TRIPOS>MOLECULE
/home/cewinharhar/GITHUB/reincatalyze/data/processed/docking_pred/2023-May-23-1437_sub9_nm5_bs15_s42_ex16_mel10_mts10000_k50_ec02_g099_lra3e-4_lrc1e-3/7d60c2a66717a3f4b6d307e9593656cfb0aaeeb8_ligand_9.pdbqt
 14 15 0 0 0
SMALL
GASTEIGER

@<TRIPOS>ATOM
      1  C          5.6860    1.3720   -0.2150 C.3     1  UNL1        0.0800
      2  C          5.0050    1.2230    1.1010 C.2     1  UNL1        0.1300
      3  C          5.2690    0.0600    1.9900 C.3     1  UNL1        0.0870
      4  O          4.2050    2.0580    1.4900 O.2     1  UNL1       -0.3000
      5  C          7.1750    1.1120   -0.0970 C.3     1  UNL1        0.0430
      6  C          7.5600   -0.1590   -0.7370 C.2     1  UNL1       -0.0440
      7  C          7.6320   -0.2860   -2.1290 C.2     1  UNL1        0.0080
      8  C          7.8610   -1.2520    0.0430 C.2     1  UNL1        0.0540
      9  C          8.0000   -1.5030   -2.6740 C.2     1  UNL1        0.0510
     10  C          8.2330   -2.4800   -0.5130 C.2     1  UNL1        0.1660
     11  C          8.3030   -2.6060   -1.8820 C.2     1  UNL1        0.1650
     12  O          8.5740   -3.6970    0.0400 O.2     1  UNL1       -0.4540
     13  O          8.6900   -3.9110   -2.1450 O.2     1  UNL1       -0.4540
     14  C          8.9610   -4.6110   -0.9540 C.3     1  UNL1        0.4680
@<TRIPOS>BOND
     1     9     7    1
     2     9    11    2
     3    13    11    1
     4    13    14    1
     5     7     6    2
     6    11    10    1
     7    14    12    1
     8     6     5    1
     9     6     8    1
    10    10    12    1
    11    10     8    2
    12     1     5    1
    13     1     2    1
    14     2     4    2
    15     2     3    1
