@<TRIPOS>MOLECULE
/home/cewinharhar/GITHUB/reincatalyze/data/processed/docking_pred/2023-May-23-1437_sub9_nm5_bs15_s42_ex16_mel10_mts10000_k50_ec02_g099_lra3e-4_lrc1e-3/7d60c2a66717a3f4b6d307e9593656cfb0aaeeb8_ligand_9.pdbqt
 14 15 0 0 0
SMALL
GASTEIGER

@<TRIPOS>ATOM
      1  C          5.4820    1.9000    1.2860 C.3     1  UNL1        0.0800
      2  C          4.9690    0.6890    1.9860 C.2     1  UNL1        0.1300
      3  C          5.7720   -0.5590    2.0800 C.3     1  UNL1        0.0870
      4  O          3.8640    0.6880    2.5060 O.2     1  UNL1       -0.3000
      5  C          5.3760    1.7520   -0.2190 C.3     1  UNL1        0.0430
      6  C          6.5430    1.0500   -0.7830 C.2     1  UNL1       -0.0440
      7  C          7.8500    1.4830   -0.5330 C.2     1  UNL1        0.0080
      8  C          6.3550   -0.0600   -1.5750 C.2     1  UNL1        0.0540
      9  C          8.9060    0.7850   -1.0880 C.2     1  UNL1        0.0510
     10  C          7.4260   -0.7630   -2.1330 C.2     1  UNL1        0.1660
     11  C          8.7120   -0.3370   -1.8890 C.2     1  UNL1        0.1650
     12  O          7.4990   -1.8780   -2.9420 O.2     1  UNL1       -0.4540
     13  O          9.5570   -1.2080   -2.5580 O.2     1  UNL1       -0.4540
     14  C          8.8340   -2.2530   -3.1630 C.3     1  UNL1        0.4680
@<TRIPOS>BOND
     1    14    12    1
     2    14    13    1
     3    12    10    1
     4    13    11    1
     5    10    11    2
     6    10     8    1
     7    11     9    1
     8     8     6    2
     9     9     7    2
    10     6     7    1
    11     6     5    1
    12     5     1    1
    13     1     2    1
    14     2     3    1
    15     2     4    2
