MODEL 1
REMARK VINA RESULT:      -7.3      0.000      0.000
REMARK SMILES CC(=O)CCc1ccc2c(c1)OCO2
REMARK SMILES IDX 4 1 2 2 1 3 3 4 5 5 6 6 7 7 11 8 8 9 10 10 9 11 12 12 14 13
REMARK SMILES IDX 13 14
REMARK H PARENT
REMARK Flexibility Score: inf
ROOT
ATOM      1  C   UNL     1       5.500   1.903   1.267  1.00  0.00     0.080 C 
ENDROOT
BRANCH   1   2
ATOM      2  C   UNL     1       5.035   0.688   1.993  1.00  0.00     0.130 C 
ATOM      3  C   UNL     1       5.894  -0.519   2.125  1.00  0.00     0.087 C 
ATOM      4  O   UNL     1       3.927   0.649   2.504  1.00  0.00    -0.300 OA
ENDBRANCH   1   2
BRANCH   1   5
ATOM      5  C   UNL     1       5.389   1.723  -0.234  1.00  0.00     0.043 C 
BRANCH   5   6
ATOM      6  C   UNL     1       6.558   1.017  -0.788  1.00  0.00    -0.044 A 
ATOM      7  C   UNL     1       7.865   1.430  -0.506  1.00  0.00     0.008 A 
ATOM      8  C   UNL     1       6.372  -0.078  -1.601  1.00  0.00     0.054 A 
ATOM      9  C   UNL     1       8.923   0.728  -1.053  1.00  0.00     0.051 A 
ATOM     10  C   UNL     1       7.445  -0.785  -2.151  1.00  0.00     0.166 A 
ATOM     11  C   UNL     1       8.732  -0.378  -1.875  1.00  0.00     0.165 A 
ATOM     12  O   UNL     1       7.521  -1.887  -2.976  1.00  0.00    -0.454 OA
ATOM     13  O   UNL     1       9.579  -1.248  -2.543  1.00  0.00    -0.454 OA
ATOM     14  C   UNL     1       8.856  -2.275  -3.179  1.00  0.00     0.468 C 
ENDBRANCH   5   6
ENDBRANCH   1   5
TORSDOF 3
ENDMDL
MODEL 2
REMARK VINA RESULT:      -7.2      1.962      2.448
REMARK SMILES CC(=O)CCc1ccc2c(c1)OCO2
REMARK SMILES IDX 4 1 2 2 1 3 3 4 5 5 6 6 7 7 11 8 8 9 10 10 9 11 12 12 14 13
REMARK SMILES IDX 13 14
REMARK H PARENT
REMARK Flexibility Score: inf
ROOT
ATOM      1  C   UNL     1       5.757   1.231  -0.290  1.00  0.00     0.080 C 
ENDROOT
BRANCH   1   2
ATOM      2  C   UNL     1       5.204   1.210   1.093  1.00  0.00     0.130 C 
ATOM      3  C   UNL     1       5.415   0.050   2.001  1.00  0.00     0.087 C 
ATOM      4  O   UNL     1       4.556   2.150   1.523  1.00  0.00    -0.300 OA
ENDBRANCH   1   2
BRANCH   1   5
ATOM      5  C   UNL     1       7.258   1.014  -0.285  1.00  0.00     0.043 C 
BRANCH   5   6
ATOM      6  C   UNL     1       7.624  -0.281  -0.886  1.00  0.00    -0.044 A 
ATOM      7  C   UNL     1       7.664  -0.460  -2.274  1.00  0.00     0.008 A 
ATOM      8  C   UNL     1       7.938  -1.346  -0.073  1.00  0.00     0.054 A 
ATOM      9  C   UNL     1       8.016  -1.697  -2.781  1.00  0.00     0.051 A 
ATOM     10  C   UNL     1       8.294  -2.595  -0.590  1.00  0.00     0.166 A 
ATOM     11  C   UNL     1       8.333  -2.772  -1.955  1.00  0.00     0.165 A 
ATOM     12  O   UNL     1       8.643  -3.791  -0.001  1.00  0.00    -0.454 OA
ATOM     13  O   UNL     1       8.710  -4.087  -2.178  1.00  0.00    -0.454 OA
ATOM     14  C   UNL     1       9.005  -4.743  -0.968  1.00  0.00     0.468 C 
ENDBRANCH   5   6
ENDBRANCH   1   5
TORSDOF 3
ENDMDL
MODEL 3
REMARK VINA RESULT:      -6.9      1.973      2.502
REMARK SMILES CC(=O)CCc1ccc2c(c1)OCO2
REMARK SMILES IDX 4 1 2 2 1 3 3 4 5 5 6 6 7 7 11 8 8 9 10 10 9 11 12 12 14 13
REMARK SMILES IDX 13 14
REMARK H PARENT
REMARK Flexibility Score: inf
ROOT
ATOM      1  C   UNL     1       6.954   0.935   1.569  1.00  0.00     0.080 C 
ENDROOT
BRANCH   1   2
ATOM      2  C   UNL     1       5.484   1.167   1.506  1.00  0.00     0.130 C 
ATOM      3  C   UNL     1       4.874   2.034   0.462  1.00  0.00     0.087 C 
ATOM      4  O   UNL     1       4.732   0.650   2.317  1.00  0.00    -0.300 OA
ENDBRANCH   1   2
BRANCH   1   5
ATOM      5  C   UNL     1       7.604   1.157   0.218  1.00  0.00     0.043 C 
BRANCH   5   6
ATOM      6  C   UNL     1       7.838  -0.113  -0.492  1.00  0.00    -0.044 A 
ATOM      7  C   UNL     1       7.780  -0.195  -1.888  1.00  0.00     0.008 A 
ATOM      8  C   UNL     1       8.123  -1.253   0.226  1.00  0.00     0.054 A 
ATOM      9  C   UNL     1       8.009  -1.414  -2.499  1.00  0.00     0.051 A 
ATOM     10  C   UNL     1       8.355  -2.483  -0.397  1.00  0.00     0.166 A 
ATOM     11  C   UNL     1       8.296  -2.564  -1.771  1.00  0.00     0.165 A 
ATOM     12  O   UNL     1       8.651  -3.740   0.086  1.00  0.00    -0.454 OA
ATOM     13  O   UNL     1       8.563  -3.883  -2.106  1.00  0.00    -0.454 OA
ATOM     14  C   UNL     1       8.883  -4.642  -0.965  1.00  0.00     0.468 C 
ENDBRANCH   5   6
ENDBRANCH   1   5
TORSDOF 3
ENDMDL
MODEL 4
REMARK VINA RESULT:      -6.9      1.261      1.470
REMARK SMILES CC(=O)CCc1ccc2c(c1)OCO2
REMARK SMILES IDX 4 1 2 2 1 3 3 4 5 5 6 6 7 7 11 8 8 9 10 10 9 11 12 12 14 13
REMARK SMILES IDX 13 14
REMARK H PARENT
REMARK Flexibility Score: inf
ROOT
ATOM      1  C   UNL     1       6.339   1.237   0.870  1.00  0.00     0.080 C 
ENDROOT
BRANCH   1   2
ATOM      2  C   UNL     1       5.660   0.429   1.922  1.00  0.00     0.130 C 
ATOM      3  C   UNL     1       6.286  -0.794   2.491  1.00  0.00     0.087 C 
ATOM      4  O   UNL     1       4.563   0.750   2.349  1.00  0.00    -0.300 OA
ENDBRANCH   1   2
BRANCH   1   5
ATOM      5  C   UNL     1       5.818   0.893  -0.511  1.00  0.00     0.043 C 
BRANCH   5   6
ATOM      6  C   UNL     1       6.786   0.086  -1.274  1.00  0.00    -0.044 A 
ATOM      7  C   UNL     1       7.484   0.617  -2.365  1.00  0.00     0.008 A 
ATOM      8  C   UNL     1       7.019  -1.222  -0.914  1.00  0.00     0.054 A 
ATOM      9  C   UNL     1       8.382  -0.187  -3.044  1.00  0.00     0.051 A 
ATOM     10  C   UNL     1       7.928  -2.030  -1.603  1.00  0.00     0.166 A 
ATOM     11  C   UNL     1       8.615  -1.509  -2.677  1.00  0.00     0.165 A 
ATOM     12  O   UNL     1       8.330  -3.340  -1.443  1.00  0.00    -0.454 OA
ATOM     13  O   UNL     1       9.433  -2.519  -3.159  1.00  0.00    -0.454 OA
ATOM     14  C   UNL     1       9.351  -3.668  -2.350  1.00  0.00     0.468 C 
ENDBRANCH   5   6
ENDBRANCH   1   5
TORSDOF 3
ENDMDL
MODEL 5
REMARK VINA RESULT:      -6.6      1.163      1.764
REMARK SMILES CC(=O)CCc1ccc2c(c1)OCO2
REMARK SMILES IDX 4 1 2 2 1 3 3 4 5 5 6 6 7 7 11 8 8 9 10 10 9 11 12 12 14 13
REMARK SMILES IDX 13 14
REMARK H PARENT
REMARK Flexibility Score: inf
ROOT
ATOM      1  C   UNL     1       5.042  -0.319   1.991  1.00  0.00     0.080 C 
ENDROOT
BRANCH   1   2
ATOM      2  C   UNL     1       4.429   1.028   1.820  1.00  0.00     0.130 C 
ATOM      3  C   UNL     1       4.927   1.988   0.799  1.00  0.00     0.087 C 
ATOM      4  O   UNL     1       3.493   1.384   2.518  1.00  0.00    -0.300 OA
ENDBRANCH   1   2
BRANCH   1   5
ATOM      5  C   UNL     1       6.528  -0.215   2.273  1.00  0.00     0.043 C 
BRANCH   5   6
ATOM      6  C   UNL     1       7.326  -0.298   1.036  1.00  0.00    -0.044 A 
ATOM      7  C   UNL     1       8.449   0.511   0.832  1.00  0.00     0.008 A 
ATOM      8  C   UNL     1       6.968  -1.193   0.053  1.00  0.00     0.054 A 
ATOM      9  C   UNL     1       9.160   0.388  -0.348  1.00  0.00     0.051 A 
ATOM     10  C   UNL     1       7.690  -1.314  -1.138  1.00  0.00     0.166 A 
ATOM     11  C   UNL     1       8.795  -0.517  -1.340  1.00  0.00     0.165 A 
ATOM     12  O   UNL     1       7.539  -2.113  -2.251  1.00  0.00    -0.454 OA
ATOM     13  O   UNL     1       9.305  -0.847  -2.586  1.00  0.00    -0.454 OA
ATOM     14  C   UNL     1       8.594  -1.918  -3.159  1.00  0.00     0.468 C 
ENDBRANCH   5   6
ENDBRANCH   1   5
TORSDOF 3
ENDMDL
