@<TRIPOS>MOLECULE
/home/cewinharhar/GITHUB/reincatalyze/data/processed/docking_pred/2023-May-23-1437_sub9_nm5_bs15_s42_ex16_mel10_mts10000_k50_ec02_g099_lra3e-4_lrc1e-3/7ff2a118a63670e32b3229f93cb76c105bf9ebe4_ligand_9.pdbqt
 14 15 0 0 0
SMALL
GASTEIGER

@<TRIPOS>ATOM
      1  C          5.0420   -0.3190    1.9910 C.3     1  UNL1        0.0800
      2  C          4.4290    1.0280    1.8200 C.2     1  UNL1        0.1300
      3  C          4.9270    1.9880    0.7990 C.3     1  UNL1        0.0870
      4  O          3.4930    1.3840    2.5180 O.2     1  UNL1       -0.3000
      5  C          6.5280   -0.2150    2.2730 C.3     1  UNL1        0.0430
      6  C          7.3260   -0.2980    1.0360 C.2     1  UNL1       -0.0440
      7  C          8.4490    0.5110    0.8320 C.2     1  UNL1        0.0080
      8  C          6.9680   -1.1930    0.0530 C.2     1  UNL1        0.0540
      9  C          9.1600    0.3880   -0.3480 C.2     1  UNL1        0.0510
     10  C          7.6900   -1.3140   -1.1380 C.2     1  UNL1        0.1660
     11  C          8.7950   -0.5170   -1.3400 C.2     1  UNL1        0.1650
     12  O          7.5390   -2.1130   -2.2510 O.2     1  UNL1       -0.4540
     13  O          9.3050   -0.8470   -2.5860 O.2     1  UNL1       -0.4540
     14  C          8.5940   -1.9180   -3.1590 C.3     1  UNL1        0.4680
@<TRIPOS>BOND
     1    14    13    1
     2    14    12    1
     3    13    11    1
     4    12    10    1
     5    11    10    2
     6    11     9    1
     7    10     8    1
     8     9     7    2
     9     8     6    2
    10     3     2    1
    11     7     6    1
    12     6     5    1
    13     2     1    1
    14     2     4    2
    15     1     5    1
