@<TRIPOS>MOLECULE
/home/cewinharhar/GITHUB/reincatalyze/data/processed/docking_pred/2023-May-23-1437_sub9_nm5_bs15_s42_ex16_mel10_mts10000_k50_ec02_g099_lra3e-4_lrc1e-3/80c9945afd0f5f9f0270d56cce32b054e5c09707_ligand_9.pdbqt
 14 15 0 0 0
SMALL
GASTEIGER

@<TRIPOS>ATOM
      1  C          6.3730    1.1980    0.9200 C.3     1  UNL1        0.0800
      2  C          5.6630    0.3790    1.9420 C.2     1  UNL1        0.1300
      3  C          6.2700   -0.8500    2.5170 C.3     1  UNL1        0.0870
      4  O          4.5530    0.6970    2.3390 O.2     1  UNL1       -0.3000
      5  C          5.8590    0.9040   -0.4750 C.3     1  UNL1        0.0430
      6  C          6.8120    0.0880   -1.2490 C.2     1  UNL1       -0.0440
      7  C          7.5030    0.6130   -2.3470 C.2     1  UNL1        0.0080
      8  C          7.0380   -1.2210   -0.8890 C.2     1  UNL1        0.0540
      9  C          8.3860   -0.2000   -3.0340 C.2     1  UNL1        0.0510
     10  C          7.9330   -2.0380   -1.5870 C.2     1  UNL1        0.1660
     11  C          8.6120   -1.5230   -2.6690 C.2     1  UNL1        0.1650
     12  O          8.3250   -3.3500   -1.4300 O.2     1  UNL1       -0.4540
     13  O          9.4170   -2.5400   -3.1580 O.2     1  UNL1       -0.4540
     14  C          9.3340   -3.6880   -2.3480 C.3     1  UNL1        0.4680
@<TRIPOS>BOND
     1    13    11    1
     2    13    14    1
     3     9    11    2
     4     9     7    1
     5    11    10    1
     6    14    12    1
     7     7     6    2
     8    10    12    1
     9    10     8    2
    10     6     8    1
    11     6     5    1
    12     5     1    1
    13     1     2    1
    14     2     4    2
    15     2     3    1
