MODEL 1
REMARK VINA RESULT:      -7.4      0.000      0.000
REMARK SMILES CC(=O)CCc1ccc2c(c1)OCO2
REMARK SMILES IDX 4 1 2 2 1 3 3 4 5 5 6 6 7 7 11 8 8 9 10 10 9 11 12 12 14 13
REMARK SMILES IDX 13 14
REMARK H PARENT
REMARK Flexibility Score: inf
ROOT
ATOM      1  C   UNL     1       5.598   2.056   1.155  1.00  0.00     0.080 C 
ENDROOT
BRANCH   1   2
ATOM      2  C   UNL     1       5.072   0.887   1.914  1.00  0.00     0.130 C 
ATOM      3  C   UNL     1       5.888  -0.339   2.124  1.00  0.00     0.087 C 
ATOM      4  O   UNL     1       3.948   0.902   2.389  1.00  0.00    -0.300 OA
ENDBRANCH   1   2
BRANCH   1   5
ATOM      5  C   UNL     1       5.452   1.851  -0.340  1.00  0.00     0.043 C 
BRANCH   5   6
ATOM      6  C   UNL     1       6.610   1.140  -0.910  1.00  0.00    -0.044 A 
ATOM      7  C   UNL     1       7.894   1.694  -0.888  1.00  0.00     0.008 A 
ATOM      8  C   UNL     1       6.435  -0.102  -1.477  1.00  0.00     0.054 A 
ATOM      9  C   UNL     1       8.943   0.980  -1.438  1.00  0.00     0.051 A 
ATOM     10  C   UNL     1       7.499  -0.821  -2.030  1.00  0.00     0.166 A 
ATOM     11  C   UNL     1       8.763  -0.275  -2.011  1.00  0.00     0.165 A 
ATOM     12  O   UNL     1       7.583  -2.053  -2.644  1.00  0.00    -0.454 OA
ATOM     13  O   UNL     1       9.606  -1.193  -2.618  1.00  0.00    -0.454 OA
ATOM     14  C   UNL     1       8.915  -2.373  -2.952  1.00  0.00     0.468 C 
ENDBRANCH   5   6
ENDBRANCH   1   5
TORSDOF 3
ENDMDL
MODEL 2
REMARK VINA RESULT:      -7.0      1.800      2.310
REMARK SMILES CC(=O)CCc1ccc2c(c1)OCO2
REMARK SMILES IDX 4 1 2 2 1 3 3 4 5 5 6 6 7 7 11 8 8 9 10 10 9 11 12 12 14 13
REMARK SMILES IDX 13 14
REMARK H PARENT
REMARK Flexibility Score: inf
ROOT
ATOM      1  C   UNL     1       5.730   1.235  -0.312  1.00  0.00     0.080 C 
ENDROOT
BRANCH   1   2
ATOM      2  C   UNL     1       5.137   1.209   1.054  1.00  0.00     0.130 C 
ATOM      3  C   UNL     1       5.488   0.150   2.037  1.00  0.00     0.087 C 
ATOM      4  O   UNL     1       4.340   2.063   1.407  1.00  0.00    -0.300 OA
ENDBRANCH   1   2
BRANCH   1   5
ATOM      5  C   UNL     1       7.234   1.047  -0.263  1.00  0.00     0.043 C 
BRANCH   5   6
ATOM      6  C   UNL     1       7.644  -0.232  -0.869  1.00  0.00    -0.044 A 
ATOM      7  C   UNL     1       7.799  -0.372  -2.253  1.00  0.00     0.008 A 
ATOM      8  C   UNL     1       7.886  -1.322  -0.064  1.00  0.00     0.054 A 
ATOM      9  C   UNL     1       8.187  -1.596  -2.765  1.00  0.00     0.051 A 
ATOM     10  C   UNL     1       8.279  -2.558  -0.586  1.00  0.00     0.166 A 
ATOM     11  C   UNL     1       8.430  -2.696  -1.948  1.00  0.00     0.165 A 
ATOM     12  O   UNL     1       8.573  -3.773  -0.005  1.00  0.00    -0.454 OA
ATOM     13  O   UNL     1       8.820  -4.007  -2.177  1.00  0.00    -0.454 OA
ATOM     14  C   UNL     1       9.011  -4.699  -0.966  1.00  0.00     0.468 C 
ENDBRANCH   5   6
ENDBRANCH   1   5
TORSDOF 3
ENDMDL
MODEL 3
REMARK VINA RESULT:      -7.0      1.979      2.617
REMARK SMILES CC(=O)CCc1ccc2c(c1)OCO2
REMARK SMILES IDX 4 1 2 2 1 3 3 4 5 5 6 6 7 7 11 8 8 9 10 10 9 11 12 12 14 13
REMARK SMILES IDX 13 14
REMARK H PARENT
REMARK Flexibility Score: inf
ROOT
ATOM      1  C   UNL     1       5.505  -0.034   1.947  1.00  0.00     0.080 C 
ENDROOT
BRANCH   1   2
ATOM      2  C   UNL     1       4.663   1.158   1.644  1.00  0.00     0.130 C 
ATOM      3  C   UNL     1       5.015   2.105   0.552  1.00  0.00     0.087 C 
ATOM      4  O   UNL     1       3.654   1.392   2.289  1.00  0.00    -0.300 OA
ENDBRANCH   1   2
BRANCH   1   5
ATOM      5  C   UNL     1       6.944   0.188   1.527  1.00  0.00     0.043 C 
BRANCH   5   6
ATOM      6  C   UNL     1       7.359  -0.759   0.476  1.00  0.00    -0.044 A 
ATOM      7  C   UNL     1       7.245  -0.442  -0.882  1.00  0.00     0.008 A 
ATOM      8  C   UNL     1       7.875  -1.985   0.828  1.00  0.00     0.054 A 
ATOM      9  C   UNL     1       7.651  -1.370  -1.824  1.00  0.00     0.051 A 
ATOM     10  C   UNL     1       8.285  -2.920  -0.128  1.00  0.00     0.166 A 
ATOM     11  C   UNL     1       8.172  -2.609  -1.465  1.00  0.00     0.165 A 
ATOM     12  O   UNL     1       8.821  -4.186  -0.034  1.00  0.00    -0.454 OA
ATOM     13  O   UNL     1       8.646  -3.703  -2.171  1.00  0.00    -0.454 OA
ATOM     14  C   UNL     1       9.152  -4.689  -1.303  1.00  0.00     0.468 C 
ENDBRANCH   5   6
ENDBRANCH   1   5
TORSDOF 3
ENDMDL
MODEL 4
REMARK VINA RESULT:      -6.8      1.084      1.112
REMARK SMILES CC(=O)CCc1ccc2c(c1)OCO2
REMARK SMILES IDX 4 1 2 2 1 3 3 4 5 5 6 6 7 7 11 8 8 9 10 10 9 11 12 12 14 13
REMARK SMILES IDX 13 14
REMARK H PARENT
REMARK Flexibility Score: inf
ROOT
ATOM      1  C   UNL     1       6.112   1.853   0.637  1.00  0.00     0.080 C 
ENDROOT
BRANCH   1   2
ATOM      2  C   UNL     1       5.160   1.167   1.555  1.00  0.00     0.130 C 
ATOM      3  C   UNL     1       5.488  -0.140   2.185  1.00  0.00     0.087 C 
ATOM      4  O   UNL     1       4.077   1.663   1.819  1.00  0.00    -0.300 OA
ENDBRANCH   1   2
BRANCH   1   5
ATOM      5  C   UNL     1       5.736   1.626  -0.814  1.00  0.00     0.043 C 
BRANCH   5   6
ATOM      6  C   UNL     1       6.673   0.706  -1.484  1.00  0.00    -0.044 A 
ATOM      7  C   UNL     1       7.478   1.126  -2.549  1.00  0.00     0.008 A 
ATOM      8  C   UNL     1       6.769  -0.599  -1.058  1.00  0.00     0.054 A 
ATOM      9  C   UNL     1       8.340   0.219  -3.138  1.00  0.00     0.051 A 
ATOM     10  C   UNL     1       7.642  -1.513  -1.656  1.00  0.00     0.166 A 
ATOM     11  C   UNL     1       8.434  -1.100  -2.705  1.00  0.00     0.165 A 
ATOM     12  O   UNL     1       7.917  -2.843  -1.420  1.00  0.00    -0.454 OA
ATOM     13  O   UNL     1       9.187  -2.197  -3.095  1.00  0.00    -0.454 OA
ATOM     14  C   UNL     1       8.957  -3.298  -2.248  1.00  0.00     0.468 C 
ENDBRANCH   5   6
ENDBRANCH   1   5
TORSDOF 3
ENDMDL
MODEL 5
REMARK VINA RESULT:      -6.6      1.410      5.255
REMARK SMILES CC(=O)CCc1ccc2c(c1)OCO2
REMARK SMILES IDX 4 1 2 2 1 3 3 4 5 5 6 6 7 7 11 8 8 9 10 10 9 11 12 12 14 13
REMARK SMILES IDX 13 14
REMARK H PARENT
REMARK Flexibility Score: inf
ROOT
ATOM      1  C   UNL     1       7.709  -1.705  -2.986  1.00  0.00     0.080 C 
ENDROOT
BRANCH   1   2
ATOM      2  C   UNL     1       8.807  -2.641  -2.614  1.00  0.00     0.130 C 
ATOM      3  C   UNL     1       8.661  -3.611  -1.496  1.00  0.00     0.087 C 
ATOM      4  O   UNL     1       9.866  -2.638  -3.222  1.00  0.00    -0.300 OA
ENDBRANCH   1   2
BRANCH   1   5
ATOM      5  C   UNL     1       8.096  -0.266  -2.708  1.00  0.00     0.043 C 
BRANCH   5   6
ATOM      6  C   UNL     1       7.158   0.381  -1.773  1.00  0.00    -0.044 A 
ATOM      7  C   UNL     1       6.525   1.589  -2.087  1.00  0.00     0.008 A 
ATOM      8  C   UNL     1       6.888  -0.210  -0.559  1.00  0.00     0.054 A 
ATOM      9  C   UNL     1       5.654   2.149  -1.171  1.00  0.00     0.051 A 
ATOM     10  C   UNL     1       6.006   0.360   0.364  1.00  0.00     0.166 A 
ATOM     11  C   UNL     1       5.384   1.549   0.055  1.00  0.00     0.165 A 
ATOM     12  O   UNL     1       5.579  -0.025   1.617  1.00  0.00    -0.454 OA
ATOM     13  O   UNL     1       4.579   1.873   1.136  1.00  0.00    -0.454 OA
ATOM     14  C   UNL     1       4.603   0.856   2.110  1.00  0.00     0.468 C 
ENDBRANCH   5   6
ENDBRANCH   1   5
TORSDOF 3
ENDMDL
