@<TRIPOS>MOLECULE
/home/cewinharhar/GITHUB/reincatalyze/data/processed/docking_pred/2023-May-23-1437_sub9_nm5_bs15_s42_ex16_mel10_mts10000_k50_ec02_g099_lra3e-4_lrc1e-3/80ffcc0cdcaea1df7ad243f542ab1163fa4dc1ce_ligand_9.pdbqt
 14 15 0 0 0
SMALL
GASTEIGER

@<TRIPOS>ATOM
      1  C          5.7300    1.2350   -0.3120 C.3     1  UNL1        0.0800
      2  C          5.1370    1.2090    1.0540 C.2     1  UNL1        0.1300
      3  C          5.4880    0.1500    2.0370 C.3     1  UNL1        0.0870
      4  O          4.3400    2.0630    1.4070 O.2     1  UNL1       -0.3000
      5  C          7.2340    1.0470   -0.2630 C.3     1  UNL1        0.0430
      6  C          7.6440   -0.2320   -0.8690 C.2     1  UNL1       -0.0440
      7  C          7.7990   -0.3720   -2.2530 C.2     1  UNL1        0.0080
      8  C          7.8860   -1.3220   -0.0640 C.2     1  UNL1        0.0540
      9  C          8.1870   -1.5960   -2.7650 C.2     1  UNL1        0.0510
     10  C          8.2790   -2.5580   -0.5860 C.2     1  UNL1        0.1660
     11  C          8.4300   -2.6960   -1.9480 C.2     1  UNL1        0.1650
     12  O          8.5730   -3.7730   -0.0050 O.2     1  UNL1       -0.4540
     13  O          8.8200   -4.0070   -2.1770 O.2     1  UNL1       -0.4540
     14  C          9.0110   -4.6990   -0.9660 C.3     1  UNL1        0.4680
@<TRIPOS>BOND
     1     9     7    1
     2     9    11    2
     3     7     6    2
     4    13    11    1
     5    13    14    1
     6    11    10    1
     7    14    12    1
     8     6     5    1
     9     6     8    1
    10    10     8    2
    11    10    12    1
    12     1     5    1
    13     1     2    1
    14     2     4    2
    15     2     3    1
