@<TRIPOS>MOLECULE
/home/cewinharhar/GITHUB/reincatalyze/data/processed/docking_pred/2023-May-23-1437_sub9_nm5_bs15_s42_ex16_mel10_mts10000_k50_ec02_g099_lra3e-4_lrc1e-3/80ffcc0cdcaea1df7ad243f542ab1163fa4dc1ce_ligand_9.pdbqt
 14 15 0 0 0
SMALL
GASTEIGER

@<TRIPOS>ATOM
      1  C          6.1120    1.8530    0.6370 C.3     1  UNL1        0.0800
      2  C          5.1600    1.1670    1.5550 C.2     1  UNL1        0.1300
      3  C          5.4880   -0.1400    2.1850 C.3     1  UNL1        0.0870
      4  O          4.0770    1.6630    1.8190 O.2     1  UNL1       -0.3000
      5  C          5.7360    1.6260   -0.8140 C.3     1  UNL1        0.0430
      6  C          6.6730    0.7060   -1.4840 C.2     1  UNL1       -0.0440
      7  C          7.4780    1.1260   -2.5490 C.2     1  UNL1        0.0080
      8  C          6.7690   -0.5990   -1.0580 C.2     1  UNL1        0.0540
      9  C          8.3400    0.2190   -3.1380 C.2     1  UNL1        0.0510
     10  C          7.6420   -1.5130   -1.6560 C.2     1  UNL1        0.1660
     11  C          8.4340   -1.1000   -2.7050 C.2     1  UNL1        0.1650
     12  O          7.9170   -2.8430   -1.4200 O.2     1  UNL1       -0.4540
     13  O          9.1870   -2.1970   -3.0950 O.2     1  UNL1       -0.4540
     14  C          8.9570   -3.2980   -2.2480 C.3     1  UNL1        0.4680
@<TRIPOS>BOND
     1     9    11    2
     2     9     7    1
     3    13    11    1
     4    13    14    1
     5    11    10    1
     6     7     6    2
     7    14    12    1
     8    10    12    1
     9    10     8    2
    10     6     8    1
    11     6     5    1
    12     5     1    1
    13     1     2    1
    14     2     4    2
    15     2     3    1
