@<TRIPOS>MOLECULE
/home/cewinharhar/GITHUB/reincatalyze/data/processed/docking_pred/2023-May-23-1437_sub9_nm5_bs15_s42_ex16_mel10_mts10000_k50_ec02_g099_lra3e-4_lrc1e-3/80ffcc0cdcaea1df7ad243f542ab1163fa4dc1ce_ligand_9.pdbqt
 14 15 0 0 0
SMALL
GASTEIGER

@<TRIPOS>ATOM
      1  C          7.7090   -1.7050   -2.9860 C.3     1  UNL1        0.0800
      2  C          8.8070   -2.6410   -2.6140 C.2     1  UNL1        0.1300
      3  C          8.6610   -3.6110   -1.4960 C.3     1  UNL1        0.0870
      4  O          9.8660   -2.6380   -3.2220 O.2     1  UNL1       -0.3000
      5  C          8.0960   -0.2660   -2.7080 C.3     1  UNL1        0.0430
      6  C          7.1580    0.3810   -1.7730 C.2     1  UNL1       -0.0440
      7  C          6.5250    1.5890   -2.0870 C.2     1  UNL1        0.0080
      8  C          6.8880   -0.2100   -0.5590 C.2     1  UNL1        0.0540
      9  C          5.6540    2.1490   -1.1710 C.2     1  UNL1        0.0510
     10  C          6.0060    0.3600    0.3640 C.2     1  UNL1        0.1660
     11  C          5.3840    1.5490    0.0550 C.2     1  UNL1        0.1650
     12  O          5.5790   -0.0250    1.6170 O.2     1  UNL1       -0.4540
     13  O          4.5790    1.8730    1.1360 O.2     1  UNL1       -0.4540
     14  C          4.6030    0.8560    2.1100 C.3     1  UNL1        0.4680
@<TRIPOS>BOND
     1     4     2    2
     2     1     5    1
     3     1     2    1
     4     5     6    1
     5     2     3    1
     6     7     6    2
     7     7     9    1
     8     6     8    1
     9     9    11    2
    10     8    10    2
    11    11    10    1
    12    11    13    1
    13    10    12    1
    14    13    14    1
    15    12    14    1
