@<TRIPOS>MOLECULE
/home/cewinharhar/GITHUB/reincatalyze/data/processed/docking_pred/2023-May-23-1437_sub9_nm5_bs15_s42_ex16_mel10_mts10000_k50_ec02_g099_lra3e-4_lrc1e-3/81487a167534eaf1a49a57d95a0bec7d9495d7bd_ligand_9.pdbqt
 14 15 0 0 0
SMALL
GASTEIGER

@<TRIPOS>ATOM
      1  C          6.3790    1.2180    0.9300 C.3     1  UNL1        0.0800
      2  C          5.6650    0.3790    1.9330 C.2     1  UNL1        0.1300
      3  C          6.2860   -0.8430    2.5110 C.3     1  UNL1        0.0870
      4  O          4.5430    0.6720    2.3100 O.2     1  UNL1       -0.3000
      5  C          5.8760    0.9460   -0.4740 C.3     1  UNL1        0.0430
      6  C          6.8230    0.1180   -1.2420 C.2     1  UNL1       -0.0440
      7  C          7.5160    0.6300   -2.3450 C.2     1  UNL1        0.0080
      8  C          7.0400   -1.1900   -0.8740 C.2     1  UNL1        0.0540
      9  C          8.3930   -0.1930   -3.0280 C.2     1  UNL1        0.0510
     10  C          7.9280   -2.0190   -1.5680 C.2     1  UNL1        0.1660
     11  C          8.6090   -1.5160   -2.6530 C.2     1  UNL1        0.1650
     12  O          8.3100   -3.3330   -1.4020 O.2     1  UNL1       -0.4540
     13  O          9.4060   -2.5420   -3.1370 O.2     1  UNL1       -0.4540
     14  C          9.3150   -3.6840   -2.3190 C.3     1  UNL1        0.4680
@<TRIPOS>BOND
     1    13    11    1
     2    13    14    1
     3     9    11    2
     4     9     7    1
     5    11    10    1
     6     7     6    2
     7    14    12    1
     8    10    12    1
     9    10     8    2
    10     6     8    1
    11     6     5    1
    12     5     1    1
    13     1     2    1
    14     2     4    2
    15     2     3    1
