@<TRIPOS>MOLECULE
/home/cewinharhar/GITHUB/reincatalyze/data/processed/docking_pred/2023-May-23-1437_sub9_nm5_bs15_s42_ex16_mel10_mts10000_k50_ec02_g099_lra3e-4_lrc1e-3/88c4e0f8a026884e113c16f062f94e0c253125d7_ligand_9.pdbqt
 14 15 0 0 0
SMALL
GASTEIGER

@<TRIPOS>ATOM
      1  C          5.9470    1.4940    1.2380 C.3     1  UNL1        0.0800
      2  C          5.4060    0.3550    2.0310 C.2     1  UNL1        0.1300
      3  C          6.2070   -0.8740    2.2800 C.3     1  UNL1        0.0870
      4  O          4.2820    0.3990    2.5040 O.2     1  UNL1       -0.3000
      5  C          5.7080    1.2930   -0.2460 C.3     1  UNL1        0.0430
      6  C          6.8470    0.6200   -0.8960 C.2     1  UNL1       -0.0440
      7  C          8.1190    1.2020   -0.9330 C.2     1  UNL1        0.0080
      8  C          6.6670   -0.6130   -1.4820 C.2     1  UNL1        0.0540
      9  C          9.1500    0.5230   -1.5570 C.2     1  UNL1        0.0510
     10  C          7.7120   -1.2960   -2.1100 C.2     1  UNL1        0.1660
     11  C          8.9640   -0.7230   -2.1490 C.2     1  UNL1        0.1650
     12  O          7.7860   -2.5120   -2.7560 O.2     1  UNL1       -0.4540
     13  O          9.7900   -1.6090   -2.8230 O.2     1  UNL1       -0.4540
     14  C          9.1050   -2.7960   -3.1460 C.3     1  UNL1        0.4680
@<TRIPOS>BOND
     1    14    13    1
     2    14    12    1
     3    13    11    1
     4    12    10    1
     5    11    10    2
     6    11     9    1
     7    10     8    1
     8     9     7    2
     9     8     6    2
    10     7     6    1
    11     6     5    1
    12     5     1    1
    13     1     2    1
    14     2     3    1
    15     2     4    2
