@<TRIPOS>MOLECULE
/home/cewinharhar/GITHUB/reincatalyze/data/processed/docking_pred/2023-May-23-1437_sub9_nm5_bs15_s42_ex16_mel10_mts10000_k50_ec02_g099_lra3e-4_lrc1e-3/88c4e0f8a026884e113c16f062f94e0c253125d7_ligand_9.pdbqt
 14 15 0 0 0
SMALL
GASTEIGER

@<TRIPOS>ATOM
      1  C          6.2680   -0.4340    2.3160 C.3     1  UNL1        0.0800
      2  C          5.1650    0.4660    1.8760 C.2     1  UNL1        0.1300
      3  C          5.2770    1.2950    0.6460 C.3     1  UNL1        0.0870
      4  O          4.1310    0.5490    2.5180 O.2     1  UNL1       -0.3000
      5  C          7.5610   -0.1150    1.5910 C.3     1  UNL1        0.0430
      6  C          7.8310   -1.0760    0.5060 C.2     1  UNL1       -0.0440
      7  C          7.6850   -0.7220   -0.8400 C.2     1  UNL1        0.0080
      8  C          8.2390   -2.3540    0.8130 C.2     1  UNL1        0.0540
      9  C          7.9540   -1.6650   -1.8150 C.2     1  UNL1        0.0510
     10  C          8.5090   -3.3040   -0.1760 C.2     1  UNL1        0.1660
     11  C          8.3650   -2.9570   -1.5010 C.2     1  UNL1        0.1650
     12  O          8.9210   -4.6190   -0.1280 O.2     1  UNL1       -0.4540
     13  O          8.6960   -4.0770   -2.2470 O.2     1  UNL1       -0.4540
     14  C          9.1410   -5.1260   -1.4200 C.3     1  UNL1        0.4680
@<TRIPOS>BOND
     1    13    11    1
     2    13    14    1
     3     9    11    2
     4     9     7    1
     5    11    10    1
     6    14    12    1
     7     7     6    2
     8    10    12    1
     9    10     8    2
    10     6     8    1
    11     6     5    1
    12     3     2    1
    13     5     1    1
    14     2     1    1
    15     2     4    2
