@<TRIPOS>MOLECULE
/home/cewinharhar/GITHUB/reincatalyze/data/processed/docking_pred/2023-May-23-1437_sub9_nm5_bs15_s42_ex16_mel10_mts10000_k50_ec02_g099_lra3e-4_lrc1e-3/895ea28dab147140afd805a2e235fc395d2e1c3a_ligand_9.pdbqt
 14 15 0 0 0
SMALL
GASTEIGER

@<TRIPOS>ATOM
      1  C          5.4240   -0.0460    2.0030 C.3     1  UNL1        0.0800
      2  C          4.5750    1.1530    1.7580 C.2     1  UNL1        0.1300
      3  C          4.9050    2.1390    0.6930 C.3     1  UNL1        0.0870
      4  O          3.5780    1.3640    2.4300 O.2     1  UNL1       -0.3000
      5  C          6.8600    0.2000    1.5850 C.3     1  UNL1        0.0430
      6  C          7.2880   -0.7310    0.5260 C.2     1  UNL1       -0.0440
      7  C          7.1670   -0.4060   -0.8290 C.2     1  UNL1        0.0080
      8  C          7.8250   -1.9520    0.8680 C.2     1  UNL1        0.0540
      9  C          7.5870   -1.3190   -1.7790 C.2     1  UNL1        0.0510
     10  C          8.2490   -2.8710   -0.0960 C.2     1  UNL1        0.1660
     11  C          8.1280   -2.5530   -1.4300 C.2     1  UNL1        0.1650
     12  O          8.8060   -4.1300   -0.0130 O.2     1  UNL1       -0.4540
     13  O          8.6200   -3.6330   -2.1460 O.2     1  UNL1       -0.4540
     14  C          9.1430   -4.6170   -1.2860 C.3     1  UNL1        0.4680
@<TRIPOS>BOND
     1    13    11    1
     2    13    14    1
     3     9    11    2
     4     9     7    1
     5    11    10    1
     6    14    12    1
     7     7     6    2
     8    10    12    1
     9    10     8    2
    10     6     8    1
    11     6     5    1
    12     3     2    1
    13     5     1    1
    14     2     1    1
    15     2     4    2
