@<TRIPOS>MOLECULE
/home/cewinharhar/GITHUB/reincatalyze/data/processed/docking_pred/2023-May-23-1437_sub9_nm5_bs15_s42_ex16_mel10_mts10000_k50_ec02_g099_lra3e-4_lrc1e-3/8d3077df06d226cded71bc62a2223dd87f430218_ligand_9.pdbqt
 14 15 0 0 0
SMALL
GASTEIGER

@<TRIPOS>ATOM
      1  C          5.4010   -0.0680    2.0050 C.3     1  UNL1        0.0800
      2  C          4.5660    1.1440    1.7690 C.2     1  UNL1        0.1300
      3  C          4.9130    2.1380    0.7180 C.3     1  UNL1        0.0870
      4  O          3.5670    1.3560    2.4360 O.2     1  UNL1       -0.3000
      5  C          6.8440    0.1720    1.6070 C.3     1  UNL1        0.0430
      6  C          7.2680   -0.7290    0.5200 C.2     1  UNL1       -0.0440
      7  C          7.1130   -0.3780   -0.8260 C.2     1  UNL1        0.0080
      8  C          7.8330   -1.9460    0.8250 C.2     1  UNL1        0.0540
      9  C          7.5300   -1.2630   -1.8020 C.2     1  UNL1        0.0510
     10  C          8.2540   -2.8380   -0.1660 C.2     1  UNL1        0.1660
     11  C          8.1010   -2.4940   -1.4910 C.2     1  UNL1        0.1650
     12  O          8.8350   -4.0880   -0.1210 O.2     1  UNL1       -0.4540
     13  O          8.5970   -3.5490   -2.2390 O.2     1  UNL1       -0.4540
     14  C          9.1550   -4.5420   -1.4110 C.3     1  UNL1        0.4680
@<TRIPOS>BOND
     1    13    11    1
     2    13    14    1
     3     9    11    2
     4     9     7    1
     5    11    10    1
     6    14    12    1
     7     7     6    2
     8    10    12    1
     9    10     8    2
    10     6     8    1
    11     6     5    1
    12     3     2    1
    13     5     1    1
    14     2     1    1
    15     2     4    2
