@<TRIPOS>MOLECULE
/home/cewinharhar/GITHUB/reincatalyze/data/processed/docking_pred/2023-May-23-1437_sub9_nm5_bs15_s42_ex16_mel10_mts10000_k50_ec02_g099_lra3e-4_lrc1e-3/8d3077df06d226cded71bc62a2223dd87f430218_ligand_9.pdbqt
 14 15 0 0 0
SMALL
GASTEIGER

@<TRIPOS>ATOM
      1  C          5.3270   -0.0680    1.9610 C.3     1  UNL1        0.0800
      2  C          4.4580    1.1290    1.7800 C.2     1  UNL1        0.1300
      3  C          4.7430    2.1500    0.7370 C.3     1  UNL1        0.0870
      4  O          3.4800    1.3070    2.4880 O.2     1  UNL1       -0.3000
      5  C          6.7950    0.3030    1.8980 C.3     1  UNL1        0.0430
      6  C          7.3950   -0.0620    0.6020 C.2     1  UNL1       -0.0440
      7  C          7.8760    0.9100   -0.2830 C.2     1  UNL1        0.0080
      8  C          7.4930   -1.3880    0.2450 C.2     1  UNL1        0.0540
      9  C          8.4300    0.5070   -1.4850 C.2     1  UNL1        0.0510
     10  C          8.0550   -1.7900   -0.9700 C.2     1  UNL1        0.1660
     11  C          8.5270   -0.8340   -1.8430 C.2     1  UNL1        0.1650
     12  O          8.2630   -3.0250   -1.5470 O.2     1  UNL1       -0.4540
     13  O          9.0210   -1.5090   -2.9480 O.2     1  UNL1       -0.4540
     14  C          8.9560   -2.9030   -2.7630 C.3     1  UNL1        0.4680
@<TRIPOS>BOND
     1    13    14    1
     2    13    11    1
     3    14    12    1
     4    11     9    2
     5    11    10    1
     6    12    10    1
     7     9     7    1
     8    10     8    2
     9     7     6    2
    10     8     6    1
    11     6     5    1
    12     3     2    1
    13     2     1    1
    14     2     4    2
    15     5     1    1
