@<TRIPOS>MOLECULE
/home/cewinharhar/GITHUB/reincatalyze/data/processed/docking_pred/2023-May-23-1437_sub9_nm5_bs15_s42_ex16_mel10_mts10000_k50_ec02_g099_lra3e-4_lrc1e-3/8d3077df06d226cded71bc62a2223dd87f430218_ligand_9.pdbqt
 14 15 0 0 0
SMALL
GASTEIGER

@<TRIPOS>ATOM
      1  C          5.7590    1.4690   -0.3110 C.3     1  UNL1        0.0800
      2  C          5.1150    1.3250    1.0240 C.2     1  UNL1        0.1300
      3  C          5.4520    0.1990    1.9370 C.3     1  UNL1        0.0870
      4  O          4.2850    2.1320    1.4100 O.2     1  UNL1       -0.3000
      5  C          7.2500    1.2030   -0.2340 C.3     1  UNL1        0.0430
      6  C          7.6120   -0.0710   -0.8820 C.2     1  UNL1       -0.0440
      7  C          7.6620   -0.1960   -2.2750 C.2     1  UNL1        0.0080
      8  C          7.9120   -1.1690   -0.1080 C.2     1  UNL1        0.0540
      9  C          8.0080   -1.4160   -2.8270 C.2     1  UNL1        0.0510
     10  C          8.2630   -2.4000   -0.6710 C.2     1  UNL1        0.1660
     11  C          8.3110   -2.5240   -2.0410 C.2     1  UNL1        0.1650
     12  O          8.5990   -3.6200   -0.1250 O.2     1  UNL1       -0.4540
     13  O          8.6810   -3.8330   -2.3120 O.2     1  UNL1       -0.4540
     14  C          8.9610   -4.5370   -1.1260 C.3     1  UNL1        0.4680
@<TRIPOS>BOND
     1     9     7    1
     2     9    11    2
     3    13    11    1
     4    13    14    1
     5     7     6    2
     6    11    10    1
     7    14    12    1
     8     6     5    1
     9     6     8    1
    10    10    12    1
    11    10     8    2
    12     1     5    1
    13     1     2    1
    14     2     4    2
    15     2     3    1
