MODEL 1
REMARK VINA RESULT:      -7.7      0.000      0.000
REMARK SMILES CC(=O)CCc1ccc2c(c1)OCO2
REMARK SMILES IDX 4 1 2 2 1 3 3 4 5 5 6 6 7 7 11 8 8 9 10 10 9 11 12 12 14 13
REMARK SMILES IDX 13 14
REMARK H PARENT
REMARK Flexibility Score: inf
ROOT
ATOM      1  C   UNL     1       5.503   1.924   1.256  1.00  0.00     0.080 C 
ENDROOT
BRANCH   1   2
ATOM      2  C   UNL     1       5.069   0.707   1.998  1.00  0.00     0.130 C 
ATOM      3  C   UNL     1       5.965  -0.468   2.163  1.00  0.00     0.087 C 
ATOM      4  O   UNL     1       3.956   0.640   2.495  1.00  0.00    -0.300 OA
ENDBRANCH   1   2
BRANCH   1   5
ATOM      5  C   UNL     1       5.382   1.727  -0.242  1.00  0.00     0.043 C 
BRANCH   5   6
ATOM      6  C   UNL     1       6.552   1.024  -0.797  1.00  0.00    -0.044 A 
ATOM      7  C   UNL     1       7.858   1.452  -0.532  1.00  0.00     0.008 A 
ATOM      8  C   UNL     1       6.368  -0.082  -1.595  1.00  0.00     0.054 A 
ATOM      9  C   UNL     1       8.918   0.753  -1.081  1.00  0.00     0.051 A 
ATOM     10  C   UNL     1       7.443  -0.786  -2.147  1.00  0.00     0.166 A 
ATOM     11  C   UNL     1       8.728  -0.365  -1.887  1.00  0.00     0.165 A 
ATOM     12  O   UNL     1       7.520  -1.898  -2.959  1.00  0.00    -0.454 OA
ATOM     13  O   UNL     1       9.577  -1.236  -2.552  1.00  0.00    -0.454 OA
ATOM     14  C   UNL     1       8.856  -2.276  -3.169  1.00  0.00     0.468 C 
ENDBRANCH   5   6
ENDBRANCH   1   5
TORSDOF 3
ENDMDL
MODEL 2
REMARK VINA RESULT:      -7.5      1.911      2.366
REMARK SMILES CC(=O)CCc1ccc2c(c1)OCO2
REMARK SMILES IDX 4 1 2 2 1 3 3 4 5 5 6 6 7 7 11 8 8 9 10 10 9 11 12 12 14 13
REMARK SMILES IDX 13 14
REMARK H PARENT
REMARK Flexibility Score: inf
ROOT
ATOM      1  C   UNL     1       5.676   1.333  -0.283  1.00  0.00     0.080 C 
ENDROOT
BRANCH   1   2
ATOM      2  C   UNL     1       5.087   1.248   1.083  1.00  0.00     0.130 C 
ATOM      3  C   UNL     1       5.385   0.109   1.992  1.00  0.00     0.087 C 
ATOM      4  O   UNL     1       4.337   2.117   1.497  1.00  0.00    -0.300 OA
ENDBRANCH   1   2
BRANCH   1   5
ATOM      5  C   UNL     1       7.175   1.115  -0.251  1.00  0.00     0.043 C 
BRANCH   5   6
ATOM      6  C   UNL     1       7.554  -0.172  -0.860  1.00  0.00    -0.044 A 
ATOM      7  C   UNL     1       7.615  -0.335  -2.249  1.00  0.00     0.008 A 
ATOM      8  C   UNL     1       7.860  -1.245  -0.054  1.00  0.00     0.054 A 
ATOM      9  C   UNL     1       7.977  -1.567  -2.765  1.00  0.00     0.051 A 
ATOM     10  C   UNL     1       8.226  -2.487  -0.581  1.00  0.00     0.166 A 
ATOM     11  C   UNL     1       8.285  -2.650  -1.947  1.00  0.00     0.165 A 
ATOM     12  O   UNL     1       8.570  -3.689   0.001  1.00  0.00    -0.454 OA
ATOM     13  O   UNL     1       8.669  -3.961  -2.179  1.00  0.00    -0.454 OA
ATOM     14  C   UNL     1       8.948  -4.630  -0.972  1.00  0.00     0.468 C 
ENDBRANCH   5   6
ENDBRANCH   1   5
TORSDOF 3
ENDMDL
MODEL 3
REMARK VINA RESULT:      -7.2      2.097      2.653
REMARK SMILES CC(=O)CCc1ccc2c(c1)OCO2
REMARK SMILES IDX 4 1 2 2 1 3 3 4 5 5 6 6 7 7 11 8 8 9 10 10 9 11 12 12 14 13
REMARK SMILES IDX 13 14
REMARK H PARENT
REMARK Flexibility Score: inf
ROOT
ATOM      1  C   UNL     1       5.522  -0.034   1.952  1.00  0.00     0.080 C 
ENDROOT
BRANCH   1   2
ATOM      2  C   UNL     1       4.660   1.144   1.656  1.00  0.00     0.130 C 
ATOM      3  C   UNL     1       4.992   2.102   0.568  1.00  0.00     0.087 C 
ATOM      4  O   UNL     1       3.648   1.359   2.305  1.00  0.00    -0.300 OA
ENDBRANCH   1   2
BRANCH   1   5
ATOM      5  C   UNL     1       6.949   0.201   1.499  1.00  0.00     0.043 C 
BRANCH   5   6
ATOM      6  C   UNL     1       7.355  -0.756   0.454  1.00  0.00    -0.044 A 
ATOM      7  C   UNL     1       7.216  -0.458  -0.906  1.00  0.00     0.008 A 
ATOM      8  C   UNL     1       7.887  -1.973   0.813  1.00  0.00     0.054 A 
ATOM      9  C   UNL     1       7.615  -1.395  -1.843  1.00  0.00     0.051 A 
ATOM     10  C   UNL     1       8.289  -2.917  -0.137  1.00  0.00     0.166 A 
ATOM     11  C   UNL     1       8.152  -2.625  -1.476  1.00  0.00     0.165 A 
ATOM     12  O   UNL     1       8.837  -4.178  -0.036  1.00  0.00    -0.454 OA
ATOM     13  O   UNL     1       8.624  -3.724  -2.176  1.00  0.00    -0.454 OA
ATOM     14  C   UNL     1       9.152  -4.694  -1.303  1.00  0.00     0.468 C 
ENDBRANCH   5   6
ENDBRANCH   1   5
TORSDOF 3
ENDMDL
MODEL 4
REMARK VINA RESULT:      -7.1      1.264      1.482
REMARK SMILES CC(=O)CCc1ccc2c(c1)OCO2
REMARK SMILES IDX 4 1 2 2 1 3 3 4 5 5 6 6 7 7 11 8 8 9 10 10 9 11 12 12 14 13
REMARK SMILES IDX 13 14
REMARK H PARENT
REMARK Flexibility Score: inf
ROOT
ATOM      1  C   UNL     1       6.412   1.194   0.938  1.00  0.00     0.080 C 
ENDROOT
BRANCH   1   2
ATOM      2  C   UNL     1       5.678   0.357   1.928  1.00  0.00     0.130 C 
ATOM      3  C   UNL     1       6.272  -0.883   2.495  1.00  0.00     0.087 C 
ATOM      4  O   UNL     1       4.559   0.668   2.304  1.00  0.00    -0.300 OA
ENDBRANCH   1   2
BRANCH   1   5
ATOM      5  C   UNL     1       5.907   0.951  -0.470  1.00  0.00     0.043 C 
BRANCH   5   6
ATOM      6  C   UNL     1       6.837   0.113  -1.247  1.00  0.00    -0.044 A 
ATOM      7  C   UNL     1       7.514   0.612  -2.366  1.00  0.00     0.008 A 
ATOM      8  C   UNL     1       7.055  -1.193  -0.871  1.00  0.00     0.054 A 
ATOM      9  C   UNL     1       8.376  -0.221  -3.056  1.00  0.00     0.051 A 
ATOM     10  C   UNL     1       7.928  -2.031  -1.572  1.00  0.00     0.166 A 
ATOM     11  C   UNL     1       8.593  -1.541  -2.673  1.00  0.00     0.165 A 
ATOM     12  O   UNL     1       8.308  -3.345  -1.402  1.00  0.00    -0.454 OA
ATOM     13  O   UNL     1       9.377  -2.575  -3.161  1.00  0.00    -0.454 OA
ATOM     14  C   UNL     1       9.296  -3.709  -2.331  1.00  0.00     0.468 C 
ENDBRANCH   5   6
ENDBRANCH   1   5
TORSDOF 3
ENDMDL
MODEL 5
REMARK VINA RESULT:      -6.8      1.263      1.760
REMARK SMILES CC(=O)CCc1ccc2c(c1)OCO2
REMARK SMILES IDX 4 1 2 2 1 3 3 4 5 5 6 6 7 7 11 8 8 9 10 10 9 11 12 12 14 13
REMARK SMILES IDX 13 14
REMARK H PARENT
REMARK Flexibility Score: inf
ROOT
ATOM      1  C   UNL     1       5.309  -0.087   1.971  1.00  0.00     0.080 C 
ENDROOT
BRANCH   1   2
ATOM      2  C   UNL     1       4.436   1.107   1.793  1.00  0.00     0.130 C 
ATOM      3  C   UNL     1       4.725   2.138   0.760  1.00  0.00     0.087 C 
ATOM      4  O   UNL     1       3.452   1.274   2.495  1.00  0.00    -0.300 OA
ENDBRANCH   1   2
BRANCH   1   5
ATOM      5  C   UNL     1       6.776   0.290   1.917  1.00  0.00     0.043 C 
BRANCH   5   6
ATOM      6  C   UNL     1       7.382  -0.058   0.619  1.00  0.00    -0.044 A 
ATOM      7  C   UNL     1       7.871   0.925  -0.249  1.00  0.00     0.008 A 
ATOM      8  C   UNL     1       7.476  -1.379   0.243  1.00  0.00     0.054 A 
ATOM      9  C   UNL     1       8.430   0.538  -1.453  1.00  0.00     0.051 A 
ATOM     10  C   UNL     1       8.043  -1.765  -0.975  1.00  0.00     0.166 A 
ATOM     11  C   UNL     1       8.524  -0.798  -1.831  1.00  0.00     0.165 A 
ATOM     12  O   UNL     1       8.249  -2.992  -1.569  1.00  0.00    -0.454 OA
ATOM     13  O   UNL     1       9.021  -1.459  -2.943  1.00  0.00    -0.454 OA
ATOM     14  C   UNL     1       8.949  -2.855  -2.779  1.00  0.00     0.468 C 
ENDBRANCH   5   6
ENDBRANCH   1   5
TORSDOF 3
ENDMDL
