@<TRIPOS>MOLECULE
/home/cewinharhar/GITHUB/reincatalyze/data/processed/docking_pred/2023-May-23-1437_sub9_nm5_bs15_s42_ex16_mel10_mts10000_k50_ec02_g099_lra3e-4_lrc1e-3/8f7c925e970cb887b69f6e81c5db99fda922d0ae_ligand_9.pdbqt
 14 15 0 0 0
SMALL
GASTEIGER

@<TRIPOS>ATOM
      1  C          6.8290    0.7740    0.9130 C.3     1  UNL1        0.0800
      2  C          5.4650    1.0810    1.4290 C.2     1  UNL1        0.1300
      3  C          4.6210    2.1420    0.8180 C.3     1  UNL1        0.0870
      4  O          5.0000    0.4650    2.3740 O.2     1  UNL1       -0.3000
      5  C          6.8550    0.7630   -0.6020 C.3     1  UNL1        0.0430
      6  C          7.4250   -0.4890   -1.1300 C.2     1  UNL1       -0.0440
      7  C          7.7110   -0.6480   -2.4910 C.2     1  UNL1        0.0080
      8  C          7.6880   -1.5330   -0.2730 C.2     1  UNL1        0.0540
      9  C          8.2460   -1.8450   -2.9290 C.2     1  UNL1        0.0510
     10  C          8.2300   -2.7420   -0.7210 C.2     1  UNL1        0.1660
     11  C          8.5110   -2.8990   -2.0600 C.2     1  UNL1        0.1650
     12  O          8.5760   -3.9120   -0.0790 O.2     1  UNL1       -0.4540
     13  O          9.0300   -4.1750   -2.2130 O.2     1  UNL1       -0.4540
     14  C          9.1730   -4.8190   -0.9690 C.3     1  UNL1        0.4680
@<TRIPOS>BOND
     1     9     7    1
     2     9    11    2
     3     7     6    2
     4    13    11    1
     5    13    14    1
     6    11    10    1
     7     6     5    1
     8     6     8    1
     9    14    12    1
    10    10     8    2
    11    10    12    1
    12     5     1    1
    13     3     2    1
    14     1     2    1
    15     2     4    2
