MODEL 1
REMARK VINA RESULT:      -7.6      0.000      0.000
REMARK SMILES CC(=O)CCc1ccc2c(c1)OCO2
REMARK SMILES IDX 4 1 2 2 1 3 3 4 5 5 6 6 7 7 11 8 8 9 10 10 9 11 12 12 14 13
REMARK SMILES IDX 13 14
REMARK H PARENT
REMARK Flexibility Score: inf
ROOT
ATOM      1  C   UNL     1       5.514   1.938   1.253  1.00  0.00     0.080 C 
ENDROOT
BRANCH   1   2
ATOM      2  C   UNL     1       5.089   0.721   2.000  1.00  0.00     0.130 C 
ATOM      3  C   UNL     1       5.999  -0.442   2.179  1.00  0.00     0.087 C 
ATOM      4  O   UNL     1       3.974   0.644   2.489  1.00  0.00    -0.300 OA
ENDBRANCH   1   2
BRANCH   1   5
ATOM      5  C   UNL     1       5.389   1.737  -0.244  1.00  0.00     0.043 C 
BRANCH   5   6
ATOM      6  C   UNL     1       6.558   1.033  -0.801  1.00  0.00    -0.044 A 
ATOM      7  C   UNL     1       7.865   1.463  -0.540  1.00  0.00     0.008 A 
ATOM      8  C   UNL     1       6.373  -0.075  -1.596  1.00  0.00     0.054 A 
ATOM      9  C   UNL     1       8.923   0.762  -1.089  1.00  0.00     0.051 A 
ATOM     10  C   UNL     1       7.447  -0.780  -2.148  1.00  0.00     0.166 A 
ATOM     11  C   UNL     1       8.733  -0.357  -1.892  1.00  0.00     0.165 A 
ATOM     12  O   UNL     1       7.524  -1.893  -2.958  1.00  0.00    -0.454 OA
ATOM     13  O   UNL     1       9.581  -1.230  -2.557  1.00  0.00    -0.454 OA
ATOM     14  C   UNL     1       8.859  -2.271  -3.170  1.00  0.00     0.468 C 
ENDBRANCH   5   6
ENDBRANCH   1   5
TORSDOF 3
ENDMDL
MODEL 2
REMARK VINA RESULT:      -7.4      1.906      2.339
REMARK SMILES CC(=O)CCc1ccc2c(c1)OCO2
REMARK SMILES IDX 4 1 2 2 1 3 3 4 5 5 6 6 7 7 11 8 8 9 10 10 9 11 12 12 14 13
REMARK SMILES IDX 13 14
REMARK H PARENT
REMARK Flexibility Score: inf
ROOT
ATOM      1  C   UNL     1       5.642   1.459  -0.214  1.00  0.00     0.080 C 
ENDROOT
BRANCH   1   2
ATOM      2  C   UNL     1       5.032   1.272   1.132  1.00  0.00     0.130 C 
ATOM      3  C   UNL     1       5.437   0.153   2.024  1.00  0.00     0.087 C 
ATOM      4  O   UNL     1       4.175   2.037   1.544  1.00  0.00    -0.300 OA
ENDBRANCH   1   2
BRANCH   1   5
ATOM      5  C   UNL     1       7.138   1.220  -0.178  1.00  0.00     0.043 C 
BRANCH   5   6
ATOM      6  C   UNL     1       7.498  -0.079  -0.775  1.00  0.00    -0.044 A 
ATOM      7  C   UNL     1       7.454  -0.286  -2.159  1.00  0.00     0.008 A 
ATOM      8  C   UNL     1       7.892  -1.118   0.037  1.00  0.00     0.054 A 
ATOM      9  C   UNL     1       7.804  -1.526  -2.663  1.00  0.00     0.051 A 
ATOM     10  C   UNL     1       8.245  -2.369  -0.478  1.00  0.00     0.166 A 
ATOM     11  C   UNL     1       8.201  -2.574  -1.839  1.00  0.00     0.165 A 
ATOM     12  O   UNL     1       8.663  -3.543   0.111  1.00  0.00    -0.454 OA
ATOM     13  O   UNL     1       8.597  -3.884  -2.059  1.00  0.00    -0.454 OA
ATOM     14  C   UNL     1       8.986  -4.507  -0.858  1.00  0.00     0.468 C 
ENDBRANCH   5   6
ENDBRANCH   1   5
TORSDOF 3
ENDMDL
MODEL 3
REMARK VINA RESULT:      -7.2      2.059      2.612
REMARK SMILES CC(=O)CCc1ccc2c(c1)OCO2
REMARK SMILES IDX 4 1 2 2 1 3 3 4 5 5 6 6 7 7 11 8 8 9 10 10 9 11 12 12 14 13
REMARK SMILES IDX 13 14
REMARK H PARENT
REMARK Flexibility Score: inf
ROOT
ATOM      1  C   UNL     1       5.494   0.005   1.991  1.00  0.00     0.080 C 
ENDROOT
BRANCH   1   2
ATOM      2  C   UNL     1       4.617   1.175   1.704  1.00  0.00     0.130 C 
ATOM      3  C   UNL     1       4.932   2.138   0.615  1.00  0.00     0.087 C 
ATOM      4  O   UNL     1       3.609   1.379   2.361  1.00  0.00    -0.300 OA
ENDBRANCH   1   2
BRANCH   1   5
ATOM      5  C   UNL     1       6.917   0.258   1.534  1.00  0.00     0.043 C 
BRANCH   5   6
ATOM      6  C   UNL     1       7.328  -0.686   0.480  1.00  0.00    -0.044 A 
ATOM      7  C   UNL     1       7.205  -0.369  -0.878  1.00  0.00     0.008 A 
ATOM      8  C   UNL     1       7.850  -1.912   0.828  1.00  0.00     0.054 A 
ATOM      9  C   UNL     1       7.609  -1.295  -1.822  1.00  0.00     0.051 A 
ATOM     10  C   UNL     1       8.257  -2.844  -0.131  1.00  0.00     0.166 A 
ATOM     11  C   UNL     1       8.135  -2.533  -1.467  1.00  0.00     0.165 A 
ATOM     12  O   UNL     1       8.797  -4.110  -0.041  1.00  0.00    -0.454 OA
ATOM     13  O   UNL     1       8.609  -3.625  -2.178  1.00  0.00    -0.454 OA
ATOM     14  C   UNL     1       9.122  -4.610  -1.313  1.00  0.00     0.468 C 
ENDBRANCH   5   6
ENDBRANCH   1   5
TORSDOF 3
ENDMDL
MODEL 4
REMARK VINA RESULT:      -7.1      1.260      1.473
REMARK SMILES CC(=O)CCc1ccc2c(c1)OCO2
REMARK SMILES IDX 4 1 2 2 1 3 3 4 5 5 6 6 7 7 11 8 8 9 10 10 9 11 12 12 14 13
REMARK SMILES IDX 13 14
REMARK H PARENT
REMARK Flexibility Score: inf
ROOT
ATOM      1  C   UNL     1       6.380   1.210   0.932  1.00  0.00     0.080 C 
ENDROOT
BRANCH   1   2
ATOM      2  C   UNL     1       5.695   0.362   1.947  1.00  0.00     0.130 C 
ATOM      3  C   UNL     1       6.350  -0.838   2.533  1.00  0.00     0.087 C 
ATOM      4  O   UNL     1       4.568   0.630   2.330  1.00  0.00    -0.300 OA
ENDBRANCH   1   2
BRANCH   1   5
ATOM      5  C   UNL     1       5.863   0.922  -0.464  1.00  0.00     0.043 C 
BRANCH   5   6
ATOM      6  C   UNL     1       6.810   0.101  -1.239  1.00  0.00    -0.044 A 
ATOM      7  C   UNL     1       7.492   0.617  -2.347  1.00  0.00     0.008 A 
ATOM      8  C   UNL     1       7.039  -1.206  -0.872  1.00  0.00     0.054 A 
ATOM      9  C   UNL     1       8.369  -0.201  -3.035  1.00  0.00     0.051 A 
ATOM     10  C   UNL     1       7.927  -2.028  -1.571  1.00  0.00     0.166 A 
ATOM     11  C   UNL     1       8.598  -1.522  -2.662  1.00  0.00     0.165 A 
ATOM     12  O   UNL     1       8.320  -3.340  -1.408  1.00  0.00    -0.454 OA
ATOM     13  O   UNL     1       9.398  -2.543  -3.150  1.00  0.00    -0.454 OA
ATOM     14  C   UNL     1       9.321  -3.685  -2.331  1.00  0.00     0.468 C 
ENDBRANCH   5   6
ENDBRANCH   1   5
TORSDOF 3
ENDMDL
MODEL 5
REMARK VINA RESULT:      -6.8      1.950      2.581
REMARK SMILES CC(=O)CCc1ccc2c(c1)OCO2
REMARK SMILES IDX 4 1 2 2 1 3 3 4 5 5 6 6 7 7 11 8 8 9 10 10 9 11 12 12 14 13
REMARK SMILES IDX 13 14
REMARK H PARENT
REMARK Flexibility Score: inf
ROOT
ATOM      1  C   UNL     1       6.829   0.774   0.913  1.00  0.00     0.080 C 
ENDROOT
BRANCH   1   2
ATOM      2  C   UNL     1       5.465   1.081   1.429  1.00  0.00     0.130 C 
ATOM      3  C   UNL     1       4.621   2.142   0.818  1.00  0.00     0.087 C 
ATOM      4  O   UNL     1       5.000   0.465   2.374  1.00  0.00    -0.300 OA
ENDBRANCH   1   2
BRANCH   1   5
ATOM      5  C   UNL     1       6.855   0.763  -0.602  1.00  0.00     0.043 C 
BRANCH   5   6
ATOM      6  C   UNL     1       7.425  -0.489  -1.130  1.00  0.00    -0.044 A 
ATOM      7  C   UNL     1       7.711  -0.648  -2.491  1.00  0.00     0.008 A 
ATOM      8  C   UNL     1       7.688  -1.533  -0.273  1.00  0.00     0.054 A 
ATOM      9  C   UNL     1       8.246  -1.845  -2.929  1.00  0.00     0.051 A 
ATOM     10  C   UNL     1       8.230  -2.742  -0.721  1.00  0.00     0.166 A 
ATOM     11  C   UNL     1       8.511  -2.899  -2.060  1.00  0.00     0.165 A 
ATOM     12  O   UNL     1       8.576  -3.912  -0.079  1.00  0.00    -0.454 OA
ATOM     13  O   UNL     1       9.030  -4.175  -2.213  1.00  0.00    -0.454 OA
ATOM     14  C   UNL     1       9.173  -4.819  -0.969  1.00  0.00     0.468 C 
ENDBRANCH   5   6
ENDBRANCH   1   5
TORSDOF 3
ENDMDL
