@<TRIPOS>MOLECULE
/home/cewinharhar/GITHUB/reincatalyze/data/processed/docking_pred/2023-May-23-1437_sub9_nm5_bs15_s42_ex16_mel10_mts10000_k50_ec02_g099_lra3e-4_lrc1e-3/8f7c925e970cb887b69f6e81c5db99fda922d0ae_ligand_9.pdbqt
 14 15 0 0 0
SMALL
GASTEIGER

@<TRIPOS>ATOM
      1  C          5.4940    0.0050    1.9910 C.3     1  UNL1        0.0800
      2  C          4.6170    1.1750    1.7040 C.2     1  UNL1        0.1300
      3  C          4.9320    2.1380    0.6150 C.3     1  UNL1        0.0870
      4  O          3.6090    1.3790    2.3610 O.2     1  UNL1       -0.3000
      5  C          6.9170    0.2580    1.5340 C.3     1  UNL1        0.0430
      6  C          7.3280   -0.6860    0.4800 C.2     1  UNL1       -0.0440
      7  C          7.2050   -0.3690   -0.8780 C.2     1  UNL1        0.0080
      8  C          7.8500   -1.9120    0.8280 C.2     1  UNL1        0.0540
      9  C          7.6090   -1.2950   -1.8220 C.2     1  UNL1        0.0510
     10  C          8.2570   -2.8440   -0.1310 C.2     1  UNL1        0.1660
     11  C          8.1350   -2.5330   -1.4670 C.2     1  UNL1        0.1650
     12  O          8.7970   -4.1100   -0.0410 O.2     1  UNL1       -0.4540
     13  O          8.6090   -3.6250   -2.1780 O.2     1  UNL1       -0.4540
     14  C          9.1220   -4.6100   -1.3130 C.3     1  UNL1        0.4680
@<TRIPOS>BOND
     1    13    11    1
     2    13    14    1
     3     9    11    2
     4     9     7    1
     5    11    10    1
     6    14    12    1
     7     7     6    2
     8    10    12    1
     9    10     8    2
    10     6     8    1
    11     6     5    1
    12     3     2    1
    13     5     1    1
    14     2     1    1
    15     2     4    2
