@<TRIPOS>MOLECULE
/home/cewinharhar/GITHUB/reincatalyze/data/processed/docking_pred/2023-May-23-1437_sub9_nm5_bs15_s42_ex16_mel10_mts10000_k50_ec02_g099_lra3e-4_lrc1e-3/90bec1d2941dc3e2c4ee946d92d9c3e8ec331448_ligand_9.pdbqt
 14 15 0 0 0
SMALL
GASTEIGER

@<TRIPOS>ATOM
      1  C          6.3310    1.2300    0.9500 C.3     1  UNL1        0.0800
      2  C          5.6570    0.3690    1.9610 C.2     1  UNL1        0.1300
      3  C          6.3100   -0.8500    2.5090 C.3     1  UNL1        0.0870
      4  O          4.5410    0.6410    2.3720 O.2     1  UNL1       -0.3000
      5  C          5.8140    0.9470   -0.4470 C.3     1  UNL1        0.0430
      6  C          6.7660    0.1380   -1.2280 C.2     1  UNL1       -0.0440
      7  C          7.4440    0.6680   -2.3330 C.2     1  UNL1        0.0080
      8  C          7.0050   -1.1690   -0.8710 C.2     1  UNL1        0.0540
      9  C          8.3270   -0.1380   -3.0280 C.2     1  UNL1        0.0510
     10  C          7.8990   -1.9800   -1.5770 C.2     1  UNL1        0.1660
     11  C          8.5650   -1.4600   -2.6640 C.2     1  UNL1        0.1650
     12  O          8.3020   -3.2900   -1.4230 O.2     1  UNL1       -0.4540
     13  O          9.3720   -2.4720   -3.1610 O.2     1  UNL1       -0.4540
     14  C          9.3050   -3.6200   -2.3500 C.3     1  UNL1        0.4680
@<TRIPOS>BOND
     1    13    11    1
     2    13    14    1
     3     9    11    2
     4     9     7    1
     5    11    10    1
     6    14    12    1
     7     7     6    2
     8    10    12    1
     9    10     8    2
    10     6     8    1
    11     6     5    1
    12     5     1    1
    13     1     2    1
    14     2     4    2
    15     2     3    1
