@<TRIPOS>MOLECULE
/home/cewinharhar/GITHUB/reincatalyze/data/processed/docking_pred/2023-May-23-1437_sub9_nm5_bs15_s42_ex16_mel10_mts10000_k50_ec02_g099_lra3e-4_lrc1e-3/90bec1d2941dc3e2c4ee946d92d9c3e8ec331448_ligand_9.pdbqt
 14 15 0 0 0
SMALL
GASTEIGER

@<TRIPOS>ATOM
      1  C          8.3610    0.2270   -2.6010 C.3     1  UNL1        0.0800
      2  C          8.0270   -1.2200   -2.7120 C.2     1  UNL1        0.1300
      3  C          9.0650   -2.2390   -3.0260 C.3     1  UNL1        0.0870
      4  O          6.8840   -1.6140   -2.5490 O.2     1  UNL1       -0.3000
      5  C          8.8740    0.5690   -1.2160 C.3     1  UNL1        0.0430
      6  C          7.8220    0.4280   -0.1940 C.2     1  UNL1       -0.0440
      7  C          7.9010   -0.5430    0.8110 C.2     1  UNL1        0.0080
      8  C          6.7330    1.2690   -0.2160 C.2     1  UNL1        0.0540
      9  C          6.8840   -0.6280    1.7440 C.2     1  UNL1        0.0510
     10  C          5.7070    1.1800    0.7310 C.2     1  UNL1        0.1660
     11  C          5.7840    0.2230    1.7180 C.2     1  UNL1        0.1650
     12  O          4.5390    1.8870    0.9200 O.2     1  UNL1       -0.4540
     13  O          4.6490    0.3650    2.5020 O.2     1  UNL1       -0.4540
     14  C          3.8780    1.4670    2.0850 C.3     1  UNL1        0.4680
@<TRIPOS>BOND
     1     3     2    1
     2     2     1    1
     3     2     4    2
     4     1     5    1
     5     5     6    1
     6     8     6    2
     7     8    10    1
     8     6     7    1
     9    10    12    1
    10    10    11    2
    11     7     9    2
    12    12    14    1
    13    11     9    1
    14    11    13    1
    15    14    13    1
