@<TRIPOS>MOLECULE
/home/cewinharhar/GITHUB/reincatalyze/data/processed/docking_pred/2023-May-23-1437_sub9_nm5_bs15_s42_ex16_mel10_mts10000_k50_ec02_g099_lra3e-4_lrc1e-3/91438d65c636cbfd2c8442c68b92b155f88758ee_ligand_9.pdbqt
 14 15 0 0 0
SMALL
GASTEIGER

@<TRIPOS>ATOM
      1  C          5.7460    1.3670   -0.2070 C.3     1  UNL1        0.0800
      2  C          5.0930    1.2550    1.1270 C.2     1  UNL1        0.1300
      3  C          5.4010    0.1340    2.0560 C.3     1  UNL1        0.0870
      4  O          4.2790    2.0850    1.4990 O.2     1  UNL1       -0.3000
      5  C          7.2350    1.1000   -0.1150 C.3     1  UNL1        0.0430
      6  C          7.6000   -0.1800   -0.7480 C.2     1  UNL1       -0.0440
      7  C          7.6390   -0.3250   -2.1390 C.2     1  UNL1        0.0080
      8  C          7.9160   -1.2640    0.0390 C.2     1  UNL1        0.0540
      9  C          7.9900   -1.5500   -2.6770 C.2     1  UNL1        0.0510
     10  C          8.2700   -2.5010   -0.5090 C.2     1  UNL1        0.1660
     11  C          8.3070   -2.6440   -1.8790 C.2     1  UNL1        0.1650
     12  O          8.6200   -3.7110    0.0500 O.2     1  UNL1       -0.4540
     13  O          8.6840   -3.9540   -2.1340 O.2     1  UNL1       -0.4540
     14  C          8.9810   -4.6390   -0.9410 C.3     1  UNL1        0.4680
@<TRIPOS>BOND
     1     9     7    1
     2     9    11    2
     3     7     6    2
     4    13    11    1
     5    13    14    1
     6    11    10    1
     7    14    12    1
     8     6     5    1
     9     6     8    1
    10    10     8    2
    11    10    12    1
    12     1     5    1
    13     1     2    1
    14     2     4    2
    15     2     3    1
