@<TRIPOS>MOLECULE
/home/cewinharhar/GITHUB/reincatalyze/data/processed/docking_pred/2023-May-23-1437_sub9_nm5_bs15_s42_ex16_mel10_mts10000_k50_ec02_g099_lra3e-4_lrc1e-3/9282b18981f6708324b0af4486d36de930a99903_ligand_9.pdbqt
 14 15 0 0 0
SMALL
GASTEIGER

@<TRIPOS>ATOM
      1  C         -0.1730  -12.0900    0.7750 C.3     1  UNL1        0.0800
      2  C         -1.1040  -11.4350    1.7350 C.2     1  UNL1        0.1300
      3  C         -1.5510  -12.1180    2.9790 C.3     1  UNL1        0.0870
      4  O         -1.5290  -10.3100    1.5280 O.2     1  UNL1       -0.3000
      5  C          1.2640  -11.6870    1.0390 C.3     1  UNL1        0.0430
      6  C          1.6220  -10.4450    0.3300 C.2     1  UNL1       -0.0440
      7  C          1.7910  -10.4170   -1.0590 C.2     1  UNL1        0.0080
      8  C          1.7950   -9.2790    1.0400 C.2     1  UNL1        0.0540
      9  C          2.1260   -9.2220   -1.6700 C.2     1  UNL1        0.0510
     10  C          2.1330   -8.0740    0.4180 C.2     1  UNL1        0.1660
     11  C          2.3010   -8.0460   -0.9490 C.2     1  UNL1        0.1650
     12  O          2.3580   -6.8000    0.8960 O.2     1  UNL1       -0.4540
     13  O          2.6270   -6.7410   -1.2850 O.2     1  UNL1       -0.4540
     14  C          2.5850   -5.9000   -0.1580 C.3     1  UNL1        0.4680
@<TRIPOS>BOND
     1     9     7    1
     2     9    11    2
     3    13    11    1
     4    13    14    1
     5     7     6    2
     6    11    10    1
     7    14    12    1
     8     6     5    1
     9     6     8    1
    10    10    12    1
    11    10     8    2
    12     1     5    1
    13     1     2    1
    14     4     2    2
    15     2     3    1
