@<TRIPOS>MOLECULE
/home/cewinharhar/GITHUB/reincatalyze/data/processed/docking_pred/2023-May-23-1437_sub9_nm5_bs15_s42_ex16_mel10_mts10000_k50_ec02_g099_lra3e-4_lrc1e-3/9282b18981f6708324b0af4486d36de930a99903_ligand_9.pdbqt
 14 15 0 0 0
SMALL
GASTEIGER

@<TRIPOS>ATOM
      1  C         -0.2230  -11.8740    2.3020 C.3     1  UNL1        0.0800
      2  C         -1.4070  -11.5680    1.4510 C.2     1  UNL1        0.1300
      3  C         -2.0350  -10.2190    1.4430 C.3     1  UNL1        0.0870
      4  O         -1.8990  -12.4210    0.7310 O.2     1  UNL1       -0.3000
      5  C          1.0140  -12.1130    1.4590 C.3     1  UNL1        0.0430
      6  C          1.3810  -10.9190    0.6770 C.2     1  UNL1       -0.0440
      7  C          1.4830  -10.9600   -0.7190 C.2     1  UNL1        0.0080
      8  C          1.6290   -9.7300    1.3230 C.2     1  UNL1        0.0540
      9  C          1.8300   -9.8080   -1.4000 C.2     1  UNL1        0.0510
     10  C          1.9800   -8.5670    0.6300 C.2     1  UNL1        0.1660
     11  C          2.0820   -8.6070   -0.7430 C.2     1  UNL1        0.1650
     12  O          2.2730   -7.2830    1.0360 O.2     1  UNL1       -0.4540
     13  O          2.4370   -7.3320   -1.1560 O.2     1  UNL1       -0.4540
     14  C          2.4810   -6.4400   -0.0680 C.3     1  UNL1        0.4680
@<TRIPOS>BOND
     1     9    11    2
     2     9     7    1
     3    13    11    1
     4    13    14    1
     5    11    10    1
     6     7     6    2
     7    14    12    1
     8    10    12    1
     9    10     8    2
    10     6     8    1
    11     6     5    1
    12     4     2    2
    13     3     2    1
    14     2     1    1
    15     5     1    1
