@<TRIPOS>MOLECULE
/home/cewinharhar/GITHUB/reincatalyze/data/processed/docking_pred/2023-May-23-1437_sub9_nm5_bs15_s42_ex16_mel10_mts10000_k50_ec02_g099_lra3e-4_lrc1e-3/93729015d2eae5d77a57d6a320781fee3b96b201_ligand_9.pdbqt
 14 15 0 0 0
SMALL
GASTEIGER

@<TRIPOS>ATOM
      1  C          6.3540    1.2310    0.9250 C.3     1  UNL1        0.0800
      2  C          5.6610    0.3830    1.9350 C.2     1  UNL1        0.1300
      3  C          6.3020   -0.8290    2.5100 C.3     1  UNL1        0.0870
      4  O          4.5370    0.6620    2.3220 O.2     1  UNL1       -0.3000
      5  C          5.8510    0.9410   -0.4750 C.3     1  UNL1        0.0430
      6  C          6.8030    0.1150   -1.2390 C.2     1  UNL1       -0.0440
      7  C          7.5000    0.6270   -2.3390 C.2     1  UNL1        0.0080
      8  C          7.0230   -1.1920   -0.8680 C.2     1  UNL1        0.0540
      9  C          8.3820   -0.1940   -3.0170 C.2     1  UNL1        0.0510
     10  C          7.9160   -2.0190   -1.5550 C.2     1  UNL1        0.1660
     11  C          8.6010   -1.5160   -2.6390 C.2     1  UNL1        0.1650
     12  O          8.3020   -3.3310   -1.3870 O.2     1  UNL1       -0.4540
     13  O          9.4030   -2.5400   -3.1170 O.2     1  UNL1       -0.4540
     14  C          9.3120   -3.6810   -2.2980 C.3     1  UNL1        0.4680
@<TRIPOS>BOND
     1    13    11    1
     2    13    14    1
     3     9    11    2
     4     9     7    1
     5    11    10    1
     6     7     6    2
     7    14    12    1
     8    10    12    1
     9    10     8    2
    10     6     8    1
    11     6     5    1
    12     5     1    1
    13     1     2    1
    14     2     4    2
    15     2     3    1
