@<TRIPOS>MOLECULE
/home/cewinharhar/GITHUB/reincatalyze/data/processed/docking_pred/2023-May-23-1437_sub9_nm5_bs15_s42_ex16_mel10_mts10000_k50_ec02_g099_lra3e-4_lrc1e-3/93729015d2eae5d77a57d6a320781fee3b96b201_ligand_9.pdbqt
 14 15 0 0 0
SMALL
GASTEIGER

@<TRIPOS>ATOM
      1  C          5.5630    1.9180    1.2840 C.3     1  UNL1        0.0800
      2  C          5.1280    0.7000    2.0240 C.2     1  UNL1        0.1300
      3  C          6.0320   -0.4660    2.2080 C.3     1  UNL1        0.0870
      4  O          4.0080    0.6250    2.5030 O.2     1  UNL1       -0.3000
      5  C          5.4260    1.7310   -0.2140 C.3     1  UNL1        0.0430
      6  C          6.5880    1.0270   -0.7850 C.2     1  UNL1       -0.0440
      7  C          7.8980    1.4590   -0.5440 C.2     1  UNL1        0.0080
      8  C          6.3930   -0.0840   -1.5740 C.2     1  UNL1        0.0540
      9  C          8.9490    0.7590   -1.1060 C.2     1  UNL1        0.0510
     10  C          7.4600   -0.7890   -2.1390 C.2     1  UNL1        0.1660
     11  C          8.7490   -0.3640   -1.9030 C.2     1  UNL1        0.1650
     12  O          7.5260   -1.9040   -2.9470 O.2     1  UNL1       -0.4540
     13  O          9.5880   -1.2370   -2.5770 O.2     1  UNL1       -0.4540
     14  C          8.8600   -2.2810   -3.1770 C.3     1  UNL1        0.4680
@<TRIPOS>BOND
     1    14    12    1
     2    14    13    1
     3    12    10    1
     4    13    11    1
     5    10    11    2
     6    10     8    1
     7    11     9    1
     8     8     6    2
     9     9     7    2
    10     6     7    1
    11     6     5    1
    12     5     1    1
    13     1     2    1
    14     2     3    1
    15     2     4    2
