@<TRIPOS>MOLECULE
/home/cewinharhar/GITHUB/reincatalyze/data/processed/docking_pred/2023-May-23-1437_sub9_nm5_bs15_s42_ex16_mel10_mts10000_k50_ec02_g099_lra3e-4_lrc1e-3/93b19c8378935853b44d27bbf459025f9fc44a5e_ligand_9.pdbqt
 14 15 0 0 0
SMALL
GASTEIGER

@<TRIPOS>ATOM
      1  C          5.7390    1.3870   -0.3080 C.3     1  UNL1        0.0800
      2  C          5.1080    1.2850    1.0380 C.2     1  UNL1        0.1300
      3  C          5.4010    0.1500    1.9530 C.3     1  UNL1        0.0870
      4  O          4.3260    2.1360    1.4300 O.2     1  UNL1       -0.3000
      5  C          7.2320    1.1340   -0.2360 C.3     1  UNL1        0.0430
      6  C          7.5970   -0.1550   -0.8490 C.2     1  UNL1       -0.0440
      7  C          7.6420   -0.3200   -2.2390 C.2     1  UNL1        0.0080
      8  C          7.9060   -1.2290   -0.0460 C.2     1  UNL1        0.0540
      9  C          7.9930   -1.5530   -2.7570 C.2     1  UNL1        0.0510
     10  C          8.2610   -2.4740   -0.5760 C.2     1  UNL1        0.1660
     11  C          8.3040   -2.6370   -1.9420 C.2     1  UNL1        0.1650
     12  O          8.6050   -3.6770    0.0020 O.2     1  UNL1       -0.4540
     13  O          8.6790   -3.9500   -2.1780 O.2     1  UNL1       -0.4540
     14  C          8.9680   -4.6200   -0.9740 C.3     1  UNL1        0.4680
@<TRIPOS>BOND
     1     9     7    1
     2     9    11    2
     3     7     6    2
     4    13    11    1
     5    13    14    1
     6    11    10    1
     7    14    12    1
     8     6     5    1
     9     6     8    1
    10    10     8    2
    11    10    12    1
    12     1     5    1
    13     1     2    1
    14     2     4    2
    15     2     3    1
