MODEL 1
REMARK VINA RESULT:      -7.6      0.000      0.000
REMARK SMILES CC(=O)CCc1ccc2c(c1)OCO2
REMARK SMILES IDX 4 1 2 2 1 3 3 4 5 5 6 6 7 7 11 8 8 9 10 10 9 11 12 12 14 13
REMARK SMILES IDX 13 14
REMARK H PARENT
REMARK Flexibility Score: inf
ROOT
ATOM      1  C   UNL     1       5.552   1.921   1.277  1.00  0.00     0.080 C 
ENDROOT
BRANCH   1   2
ATOM      2  C   UNL     1       5.125   0.702   2.019  1.00  0.00     0.130 C 
ATOM      3  C   UNL     1       6.035  -0.460   2.200  1.00  0.00     0.087 C 
ATOM      4  O   UNL     1       4.008   0.622   2.503  1.00  0.00    -0.300 OA
ENDBRANCH   1   2
BRANCH   1   5
ATOM      5  C   UNL     1       5.417   1.729  -0.221  1.00  0.00     0.043 C 
BRANCH   5   6
ATOM      6  C   UNL     1       6.581   1.026  -0.789  1.00  0.00    -0.044 A 
ATOM      7  C   UNL     1       7.890   1.454  -0.537  1.00  0.00     0.008 A 
ATOM      8  C   UNL     1       6.389  -0.080  -1.585  1.00  0.00     0.054 A 
ATOM      9  C   UNL     1       8.944   0.755  -1.096  1.00  0.00     0.051 A 
ATOM     10  C   UNL     1       7.459  -0.784  -2.147  1.00  0.00     0.166 A 
ATOM     11  C   UNL     1       8.746  -0.362  -1.901  1.00  0.00     0.165 A 
ATOM     12  O   UNL     1       7.528  -1.895  -2.960  1.00  0.00    -0.454 OA
ATOM     13  O   UNL     1       9.589  -1.234  -2.574  1.00  0.00    -0.454 OA
ATOM     14  C   UNL     1       8.862  -2.273  -3.184  1.00  0.00     0.468 C 
ENDBRANCH   5   6
ENDBRANCH   1   5
TORSDOF 3
ENDMDL
MODEL 2
REMARK VINA RESULT:      -7.5      1.916      2.374
REMARK SMILES CC(=O)CCc1ccc2c(c1)OCO2
REMARK SMILES IDX 4 1 2 2 1 3 3 4 5 5 6 6 7 7 11 8 8 9 10 10 9 11 12 12 14 13
REMARK SMILES IDX 13 14
REMARK H PARENT
REMARK Flexibility Score: inf
ROOT
ATOM      1  C   UNL     1       5.739   1.387  -0.308  1.00  0.00     0.080 C 
ENDROOT
BRANCH   1   2
ATOM      2  C   UNL     1       5.108   1.285   1.038  1.00  0.00     0.130 C 
ATOM      3  C   UNL     1       5.401   0.150   1.953  1.00  0.00     0.087 C 
ATOM      4  O   UNL     1       4.326   2.136   1.430  1.00  0.00    -0.300 OA
ENDBRANCH   1   2
BRANCH   1   5
ATOM      5  C   UNL     1       7.232   1.134  -0.236  1.00  0.00     0.043 C 
BRANCH   5   6
ATOM      6  C   UNL     1       7.597  -0.155  -0.849  1.00  0.00    -0.044 A 
ATOM      7  C   UNL     1       7.642  -0.320  -2.239  1.00  0.00     0.008 A 
ATOM      8  C   UNL     1       7.906  -1.229  -0.046  1.00  0.00     0.054 A 
ATOM      9  C   UNL     1       7.993  -1.553  -2.757  1.00  0.00     0.051 A 
ATOM     10  C   UNL     1       8.261  -2.474  -0.576  1.00  0.00     0.166 A 
ATOM     11  C   UNL     1       8.304  -2.637  -1.942  1.00  0.00     0.165 A 
ATOM     12  O   UNL     1       8.605  -3.677   0.002  1.00  0.00    -0.454 OA
ATOM     13  O   UNL     1       8.679  -3.950  -2.178  1.00  0.00    -0.454 OA
ATOM     14  C   UNL     1       8.968  -4.620  -0.974  1.00  0.00     0.468 C 
ENDBRANCH   5   6
ENDBRANCH   1   5
TORSDOF 3
ENDMDL
MODEL 3
REMARK VINA RESULT:      -7.2      2.074      2.619
REMARK SMILES CC(=O)CCc1ccc2c(c1)OCO2
REMARK SMILES IDX 4 1 2 2 1 3 3 4 5 5 6 6 7 7 11 8 8 9 10 10 9 11 12 12 14 13
REMARK SMILES IDX 13 14
REMARK H PARENT
REMARK Flexibility Score: inf
ROOT
ATOM      1  C   UNL     1       5.534   0.018   1.978  1.00  0.00     0.080 C 
ENDROOT
BRANCH   1   2
ATOM      2  C   UNL     1       4.648   1.172   1.658  1.00  0.00     0.130 C 
ATOM      3  C   UNL     1       4.967   2.119   0.557  1.00  0.00     0.087 C 
ATOM      4  O   UNL     1       3.628   1.375   2.297  1.00  0.00    -0.300 OA
ENDBRANCH   1   2
BRANCH   1   5
ATOM      5  C   UNL     1       6.953   0.265   1.507  1.00  0.00     0.043 C 
BRANCH   5   6
ATOM      6  C   UNL     1       7.355  -0.690   0.459  1.00  0.00    -0.044 A 
ATOM      7  C   UNL     1       7.235  -0.380  -0.901  1.00  0.00     0.008 A 
ATOM      8  C   UNL     1       7.864  -1.918   0.815  1.00  0.00     0.054 A 
ATOM      9  C   UNL     1       7.630  -1.316  -1.839  1.00  0.00     0.051 A 
ATOM     10  C   UNL     1       8.262  -2.861  -0.138  1.00  0.00     0.166 A 
ATOM     11  C   UNL     1       8.144  -2.557  -1.476  1.00  0.00     0.165 A 
ATOM     12  O   UNL     1       8.790  -4.131  -0.040  1.00  0.00    -0.454 OA
ATOM     13  O   UNL     1       8.606  -3.658  -2.179  1.00  0.00    -0.454 OA
ATOM     14  C   UNL     1       9.110  -4.643  -1.308  1.00  0.00     0.468 C 
ENDBRANCH   5   6
ENDBRANCH   1   5
TORSDOF 3
ENDMDL
MODEL 4
REMARK VINA RESULT:      -7.1      1.237      1.441
REMARK SMILES CC(=O)CCc1ccc2c(c1)OCO2
REMARK SMILES IDX 4 1 2 2 1 3 3 4 5 5 6 6 7 7 11 8 8 9 10 10 9 11 12 12 14 13
REMARK SMILES IDX 13 14
REMARK H PARENT
REMARK Flexibility Score: inf
ROOT
ATOM      1  C   UNL     1       6.350   1.248   0.872  1.00  0.00     0.080 C 
ENDROOT
BRANCH   1   2
ATOM      2  C   UNL     1       5.652   0.427   1.900  1.00  0.00     0.130 C 
ATOM      3  C   UNL     1       6.276  -0.792   2.481  1.00  0.00     0.087 C 
ATOM      4  O   UNL     1       4.540   0.734   2.298  1.00  0.00    -0.300 OA
ENDBRANCH   1   2
BRANCH   1   5
ATOM      5  C   UNL     1       5.847   0.930  -0.522  1.00  0.00     0.043 C 
BRANCH   5   6
ATOM      6  C   UNL     1       6.812   0.113  -1.278  1.00  0.00    -0.044 A 
ATOM      7  C   UNL     1       7.535   0.641  -2.354  1.00  0.00     0.008 A 
ATOM      8  C   UNL     1       7.016  -1.202  -0.925  1.00  0.00     0.054 A 
ATOM      9  C   UNL     1       8.428  -0.174  -3.026  1.00  0.00     0.051 A 
ATOM     10  C   UNL     1       7.921  -2.021  -1.608  1.00  0.00     0.166 A 
ATOM     11  C   UNL     1       8.632  -1.503  -2.667  1.00  0.00     0.165 A 
ATOM     12  O   UNL     1       8.296  -3.339  -1.454  1.00  0.00    -0.454 OA
ATOM     13  O   UNL     1       9.439  -2.523  -3.146  1.00  0.00    -0.454 OA
ATOM     14  C   UNL     1       9.324  -3.678  -2.349  1.00  0.00     0.468 C 
ENDBRANCH   5   6
ENDBRANCH   1   5
TORSDOF 3
ENDMDL
MODEL 5
REMARK VINA RESULT:      -6.8      1.254      1.752
REMARK SMILES CC(=O)CCc1ccc2c(c1)OCO2
REMARK SMILES IDX 4 1 2 2 1 3 3 4 5 5 6 6 7 7 11 8 8 9 10 10 9 11 12 12 14 13
REMARK SMILES IDX 13 14
REMARK H PARENT
REMARK Flexibility Score: inf
ROOT
ATOM      1  C   UNL     1       5.307  -0.096   1.936  1.00  0.00     0.080 C 
ENDROOT
BRANCH   1   2
ATOM      2  C   UNL     1       4.442   1.107   1.785  1.00  0.00     0.130 C 
ATOM      3  C   UNL     1       4.727   2.150   0.763  1.00  0.00     0.087 C 
ATOM      4  O   UNL     1       3.469   1.273   2.502  1.00  0.00    -0.300 OA
ENDBRANCH   1   2
BRANCH   1   5
ATOM      5  C   UNL     1       6.776   0.274   1.901  1.00  0.00     0.043 C 
BRANCH   5   6
ATOM      6  C   UNL     1       7.394  -0.064   0.606  1.00  0.00    -0.044 A 
ATOM      7  C   UNL     1       7.904   0.925  -0.243  1.00  0.00     0.008 A 
ATOM      8  C   UNL     1       7.480  -1.380   0.214  1.00  0.00     0.054 A 
ATOM      9  C   UNL     1       8.474   0.548  -1.446  1.00  0.00     0.051 A 
ATOM     10  C   UNL     1       8.057  -1.756  -1.003  1.00  0.00     0.166 A 
ATOM     11  C   UNL     1       8.558  -0.784  -1.839  1.00  0.00     0.165 A 
ATOM     12  O   UNL     1       8.258  -2.978  -1.610  1.00  0.00    -0.454 OA
ATOM     13  O   UNL     1       9.062  -1.435  -2.954  1.00  0.00    -0.454 OA
ATOM     14  C   UNL     1       8.974  -2.833  -2.810  1.00  0.00     0.468 C 
ENDBRANCH   5   6
ENDBRANCH   1   5
TORSDOF 3
ENDMDL
