@<TRIPOS>MOLECULE
/home/cewinharhar/GITHUB/reincatalyze/data/processed/docking_pred/2023-May-23-1437_sub9_nm5_bs15_s42_ex16_mel10_mts10000_k50_ec02_g099_lra3e-4_lrc1e-3/93b19c8378935853b44d27bbf459025f9fc44a5e_ligand_9.pdbqt
 14 15 0 0 0
SMALL
GASTEIGER

@<TRIPOS>ATOM
      1  C          5.5520    1.9210    1.2770 C.3     1  UNL1        0.0800
      2  C          5.1250    0.7020    2.0190 C.2     1  UNL1        0.1300
      3  C          6.0350   -0.4600    2.2000 C.3     1  UNL1        0.0870
      4  O          4.0080    0.6220    2.5030 O.2     1  UNL1       -0.3000
      5  C          5.4170    1.7290   -0.2210 C.3     1  UNL1        0.0430
      6  C          6.5810    1.0260   -0.7890 C.2     1  UNL1       -0.0440
      7  C          7.8900    1.4540   -0.5370 C.2     1  UNL1        0.0080
      8  C          6.3890   -0.0800   -1.5850 C.2     1  UNL1        0.0540
      9  C          8.9440    0.7550   -1.0960 C.2     1  UNL1        0.0510
     10  C          7.4590   -0.7840   -2.1470 C.2     1  UNL1        0.1660
     11  C          8.7460   -0.3620   -1.9010 C.2     1  UNL1        0.1650
     12  O          7.5280   -1.8950   -2.9600 O.2     1  UNL1       -0.4540
     13  O          9.5890   -1.2340   -2.5740 O.2     1  UNL1       -0.4540
     14  C          8.8620   -2.2730   -3.1840 C.3     1  UNL1        0.4680
@<TRIPOS>BOND
     1    14    12    1
     2    14    13    1
     3    12    10    1
     4    13    11    1
     5    10    11    2
     6    10     8    1
     7    11     9    1
     8     8     6    2
     9     9     7    2
    10     6     7    1
    11     6     5    1
    12     5     1    1
    13     1     2    1
    14     2     3    1
    15     2     4    2
