@<TRIPOS>MOLECULE
/home/cewinharhar/GITHUB/reincatalyze/data/processed/docking_pred/2023-May-23-1437_sub9_nm5_bs15_s42_ex16_mel10_mts10000_k50_ec02_g099_lra3e-4_lrc1e-3/93c3770ef064b633c902e85f3368d9330fbaaeb8_ligand_9.pdbqt
 14 15 0 0 0
SMALL
GASTEIGER

@<TRIPOS>ATOM
      1  C          6.3700    1.2050    0.9190 C.3     1  UNL1        0.0800
      2  C          5.6680    0.3790    1.9410 C.2     1  UNL1        0.1300
      3  C          6.2920   -0.8370    2.5250 C.3     1  UNL1        0.0870
      4  O          4.5510    0.6800    2.3300 O.2     1  UNL1       -0.3000
      5  C          5.8540    0.9110   -0.4760 C.3     1  UNL1        0.0430
      6  C          6.8070    0.0950   -1.2500 C.2     1  UNL1       -0.0440
      7  C          7.4940    0.6180   -2.3510 C.2     1  UNL1        0.0080
      8  C          7.0370   -1.2130   -0.8880 C.2     1  UNL1        0.0540
      9  C          8.3770   -0.1950   -3.0390 C.2     1  UNL1        0.0510
     10  C          7.9310   -2.0300   -1.5860 C.2     1  UNL1        0.1660
     11  C          8.6060   -1.5170   -2.6710 C.2     1  UNL1        0.1650
     12  O          8.3250   -3.3420   -1.4270 O.2     1  UNL1       -0.4540
     13  O          9.4100   -2.5340   -3.1600 O.2     1  UNL1       -0.4540
     14  C          9.3320   -3.6800   -2.3460 C.3     1  UNL1        0.4680
@<TRIPOS>BOND
     1    13    11    1
     2    13    14    1
     3     9    11    2
     4     9     7    1
     5    11    10    1
     6     7     6    2
     7    14    12    1
     8    10    12    1
     9    10     8    2
    10     6     8    1
    11     6     5    1
    12     5     1    1
    13     1     2    1
    14     2     4    2
    15     2     3    1
