@<TRIPOS>MOLECULE
/home/cewinharhar/GITHUB/reincatalyze/data/processed/docking_pred/2023-May-23-1437_sub9_nm5_bs15_s42_ex16_mel10_mts10000_k50_ec02_g099_lra3e-4_lrc1e-3/9545d038953ad0bd3b50a81295f717fe73892d7b_ligand_9.pdbqt
 14 15 0 0 0
SMALL
GASTEIGER

@<TRIPOS>ATOM
      1  C          6.3910    1.1580    0.9710 C.3     1  UNL1        0.0800
      2  C          5.6630    0.3370    1.9790 C.2     1  UNL1        0.1300
      3  C          6.2700   -0.8820    2.5780 C.3     1  UNL1        0.0870
      4  O          4.5390    0.6430    2.3430 O.2     1  UNL1       -0.3000
      5  C          5.8710    0.8990   -0.4290 C.3     1  UNL1        0.0430
      6  C          6.8070    0.0780   -1.2170 C.2     1  UNL1       -0.0440
      7  C          7.4610    0.5890   -2.3440 C.2     1  UNL1        0.0080
      8  C          7.0530   -1.2240   -0.8430 C.2     1  UNL1        0.0540
      9  C          8.3290   -0.2280   -3.0440 C.2     1  UNL1        0.0510
     10  C          7.9330   -2.0460   -1.5540 C.2     1  UNL1        0.1660
     11  C          8.5760   -1.5440   -2.6640 C.2     1  UNL1        0.1650
     12  O          8.3390   -3.3530   -1.3880 O.2     1  UNL1       -0.4540
     13  O          9.3730   -2.5640   -3.1610 O.2     1  UNL1       -0.4540
     14  C          9.3220   -3.6990   -2.3300 C.3     1  UNL1        0.4680
@<TRIPOS>BOND
     1    13    11    1
     2    13    14    1
     3     9    11    2
     4     9     7    1
     5    11    10    1
     6     7     6    2
     7    14    12    1
     8    10    12    1
     9    10     8    2
    10     6     8    1
    11     6     5    1
    12     5     1    1
    13     1     2    1
    14     2     4    2
    15     2     3    1
