@<TRIPOS>MOLECULE
/home/cewinharhar/GITHUB/reincatalyze/data/processed/docking_pred/2023-May-23-1437_sub9_nm5_bs15_s42_ex16_mel10_mts10000_k50_ec02_g099_lra3e-4_lrc1e-3/9545d038953ad0bd3b50a81295f717fe73892d7b_ligand_9.pdbqt
 14 15 0 0 0
SMALL
GASTEIGER

@<TRIPOS>ATOM
      1  C          5.7420    1.3880   -0.3190 C.3     1  UNL1        0.0800
      2  C          5.1080    1.3090    1.0270 C.2     1  UNL1        0.1300
      3  C          5.4320    0.2140    1.9790 C.3     1  UNL1        0.0870
      4  O          4.2980    2.1470    1.3880 O.2     1  UNL1       -0.3000
      5  C          7.2350    1.1360   -0.2400 C.3     1  UNL1        0.0430
      6  C          7.6040   -0.1550   -0.8480 C.2     1  UNL1       -0.0440
      7  C          7.6710   -0.3190   -2.2360 C.2     1  UNL1        0.0080
      8  C          7.8940   -1.2310   -0.0400 C.2     1  UNL1        0.0540
      9  C          8.0240   -1.5530   -2.7500 C.2     1  UNL1        0.0510
     10  C          8.2520   -2.4770   -0.5640 C.2     1  UNL1        0.1660
     11  C          8.3170   -2.6390   -1.9300 C.2     1  UNL1        0.1650
     12  O          8.5800   -3.6820    0.0190 O.2     1  UNL1       -0.4540
     13  O          8.6890   -3.9550   -2.1600 O.2     1  UNL1       -0.4540
     14  C          8.9550   -4.6260   -0.9520 C.3     1  UNL1        0.4680
@<TRIPOS>BOND
     1     9     7    1
     2     9    11    2
     3     7     6    2
     4    13    11    1
     5    13    14    1
     6    11    10    1
     7    14    12    1
     8     6     5    1
     9     6     8    1
    10    10     8    2
    11    10    12    1
    12     1     5    1
    13     1     2    1
    14     2     4    2
    15     2     3    1
