MODEL 1
REMARK VINA RESULT:      -7.4      0.000      0.000
REMARK SMILES CC(=O)CCc1ccc2c(c1)OCO2
REMARK SMILES IDX 4 1 2 2 1 3 3 4 5 5 6 6 7 7 11 8 8 9 10 10 9 11 12 12 14 13
REMARK SMILES IDX 13 14
REMARK H PARENT
REMARK Flexibility Score: inf
ROOT
ATOM      1  C   UNL     1       5.697   1.309  -0.329  1.00  0.00     0.080 C 
ENDROOT
BRANCH   1   2
ATOM      2  C   UNL     1       5.282   1.359   1.101  1.00  0.00     0.130 C 
ATOM      3  C   UNL     1       5.990   0.573   2.147  1.00  0.00     0.087 C 
ATOM      4  O   UNL     1       4.343   2.052   1.458  1.00  0.00    -0.300 OA
ENDBRANCH   1   2
BRANCH   1   5
ATOM      5  C   UNL     1       7.202   1.188  -0.462  1.00  0.00     0.043 C 
BRANCH   5   6
ATOM      6  C   UNL     1       7.599  -0.119  -1.013  1.00  0.00    -0.044 A 
ATOM      7  C   UNL     1       7.745  -0.320  -2.391  1.00  0.00     0.008 A 
ATOM      8  C   UNL     1       7.836  -1.175  -0.163  1.00  0.00     0.054 A 
ATOM      9  C   UNL     1       8.120  -1.569  -2.851  1.00  0.00     0.051 A 
ATOM     10  C   UNL     1       8.216  -2.436  -0.633  1.00  0.00     0.166 A 
ATOM     11  C   UNL     1       8.359  -2.634  -1.988  1.00  0.00     0.165 A 
ATOM     12  O   UNL     1       8.504  -3.627  -0.001  1.00  0.00    -0.454 OA
ATOM     13  O   UNL     1       8.737  -3.957  -2.162  1.00  0.00    -0.454 OA
ATOM     14  C   UNL     1       8.929  -4.597  -0.923  1.00  0.00     0.468 C 
ENDBRANCH   5   6
ENDBRANCH   1   5
TORSDOF 3
ENDMDL
MODEL 2
REMARK VINA RESULT:      -7.3      1.824      2.274
REMARK SMILES CC(=O)CCc1ccc2c(c1)OCO2
REMARK SMILES IDX 4 1 2 2 1 3 3 4 5 5 6 6 7 7 11 8 8 9 10 10 9 11 12 12 14 13
REMARK SMILES IDX 13 14
REMARK H PARENT
REMARK Flexibility Score: inf
ROOT
ATOM      1  C   UNL     1       5.645   2.118   1.111  1.00  0.00     0.080 C 
ENDROOT
BRANCH   1   2
ATOM      2  C   UNL     1       5.420   0.941   1.995  1.00  0.00     0.130 C 
ATOM      3  C   UNL     1       6.524   0.012   2.357  1.00  0.00     0.087 C 
ATOM      4  O   UNL     1       4.313   0.703   2.451  1.00  0.00    -0.300 OA
ENDBRANCH   1   2
BRANCH   1   5
ATOM      5  C   UNL     1       5.447   1.756  -0.348  1.00  0.00     0.043 C 
BRANCH   5   6
ATOM      6  C   UNL     1       6.604   1.021  -0.891  1.00  0.00    -0.044 A 
ATOM      7  C   UNL     1       7.915   1.466  -0.689  1.00  0.00     0.008 A 
ATOM      8  C   UNL     1       6.401  -0.133  -1.612  1.00  0.00     0.054 A 
ATOM      9  C   UNL     1       8.961   0.734  -1.222  1.00  0.00     0.051 A 
ATOM     10  C   UNL     1       7.462  -0.870  -2.147  1.00  0.00     0.166 A 
ATOM     11  C   UNL     1       8.752  -0.432  -1.951  1.00  0.00     0.165 A 
ATOM     12  O   UNL     1       7.520  -2.030  -2.890  1.00  0.00    -0.454 OA
ATOM     13  O   UNL     1       9.585  -1.343  -2.583  1.00  0.00    -0.454 OA
ATOM     14  C   UNL     1       8.850  -2.420  -3.113  1.00  0.00     0.468 C 
ENDBRANCH   5   6
ENDBRANCH   1   5
TORSDOF 3
ENDMDL
MODEL 3
REMARK VINA RESULT:      -7.3      0.542      1.050
REMARK SMILES CC(=O)CCc1ccc2c(c1)OCO2
REMARK SMILES IDX 4 1 2 2 1 3 3 4 5 5 6 6 7 7 11 8 8 9 10 10 9 11 12 12 14 13
REMARK SMILES IDX 13 14
REMARK H PARENT
REMARK Flexibility Score: inf
ROOT
ATOM      1  C   UNL     1       6.491   0.942   1.216  1.00  0.00     0.080 C 
ENDROOT
BRANCH   1   2
ATOM      2  C   UNL     1       5.217   1.614   0.835  1.00  0.00     0.130 C 
ATOM      3  C   UNL     1       4.997   2.150  -0.535  1.00  0.00     0.087 C 
ATOM      4  O   UNL     1       4.312   1.745   1.643  1.00  0.00    -0.300 OA
ENDBRANCH   1   2
BRANCH   1   5
ATOM      5  C   UNL     1       7.540   1.095   0.132  1.00  0.00     0.043 C 
BRANCH   5   6
ATOM      6  C   UNL     1       7.786  -0.175  -0.573  1.00  0.00    -0.044 A 
ATOM      7  C   UNL     1       7.731  -0.261  -1.969  1.00  0.00     0.008 A 
ATOM      8  C   UNL     1       8.080  -1.310   0.148  1.00  0.00     0.054 A 
ATOM      9  C   UNL     1       7.972  -1.480  -2.576  1.00  0.00     0.051 A 
ATOM     10  C   UNL     1       8.323  -2.540  -0.471  1.00  0.00     0.166 A 
ATOM     11  C   UNL     1       8.268  -2.626  -1.844  1.00  0.00     0.165 A 
ATOM     12  O   UNL     1       8.630  -3.793   0.017  1.00  0.00    -0.454 OA
ATOM     13  O   UNL     1       8.547  -3.943  -2.175  1.00  0.00    -0.454 OA
ATOM     14  C   UNL     1       8.871  -4.696  -1.031  1.00  0.00     0.468 C 
ENDBRANCH   5   6
ENDBRANCH   1   5
TORSDOF 3
ENDMDL
MODEL 4
REMARK VINA RESULT:      -6.9      1.128      1.359
REMARK SMILES CC(=O)CCc1ccc2c(c1)OCO2
REMARK SMILES IDX 4 1 2 2 1 3 3 4 5 5 6 6 7 7 11 8 8 9 10 10 9 11 12 12 14 13
REMARK SMILES IDX 13 14
REMARK H PARENT
REMARK Flexibility Score: inf
ROOT
ATOM      1  C   UNL     1       6.405   1.527   0.667  1.00  0.00     0.080 C 
ENDROOT
BRANCH   1   2
ATOM      2  C   UNL     1       5.939   0.741   1.843  1.00  0.00     0.130 C 
ATOM      3  C   UNL     1       6.817  -0.256   2.513  1.00  0.00     0.087 C 
ATOM      4  O   UNL     1       4.815   0.893   2.294  1.00  0.00    -0.300 OA
ENDBRANCH   1   2
BRANCH   1   5
ATOM      5  C   UNL     1       5.824   0.984  -0.623  1.00  0.00     0.043 C 
BRANCH   5   6
ATOM      6  C   UNL     1       6.796   0.150  -1.352  1.00  0.00    -0.044 A 
ATOM      7  C   UNL     1       7.539   0.658  -2.424  1.00  0.00     0.008 A 
ATOM      8  C   UNL     1       6.989  -1.160  -0.976  1.00  0.00     0.054 A 
ATOM      9  C   UNL     1       8.438  -0.171  -3.070  1.00  0.00     0.051 A 
ATOM     10  C   UNL     1       7.900  -1.994  -1.632  1.00  0.00     0.166 A 
ATOM     11  C   UNL     1       8.630  -1.495  -2.688  1.00  0.00     0.165 A 
ATOM     12  O   UNL     1       8.266  -3.310  -1.452  1.00  0.00    -0.454 OA
ATOM     13  O   UNL     1       9.439  -2.526  -3.138  1.00  0.00    -0.454 OA
ATOM     14  C   UNL     1       9.307  -3.668  -2.326  1.00  0.00     0.468 C 
ENDBRANCH   5   6
ENDBRANCH   1   5
TORSDOF 3
ENDMDL
MODEL 5
REMARK VINA RESULT:      -6.7      1.015      1.582
REMARK SMILES CC(=O)CCc1ccc2c(c1)OCO2
REMARK SMILES IDX 4 1 2 2 1 3 3 4 5 5 6 6 7 7 11 8 8 9 10 10 9 11 12 12 14 13
REMARK SMILES IDX 13 14
REMARK H PARENT
REMARK Flexibility Score: inf
ROOT
ATOM      1  C   UNL     1       6.973   1.142   1.321  1.00  0.00     0.080 C 
ENDROOT
BRANCH   1   2
ATOM      2  C   UNL     1       5.593   1.609   1.008  1.00  0.00     0.130 C 
ATOM      3  C   UNL     1       5.237   2.150  -0.331  1.00  0.00     0.087 C 
ATOM      4  O   UNL     1       4.710   1.561   1.848  1.00  0.00    -0.300 OA
ENDBRANCH   1   2
BRANCH   1   5
ATOM      5  C   UNL     1       6.983  -0.324   1.706  1.00  0.00     0.043 C 
BRANCH   5   6
ATOM      6  C   UNL     1       7.444  -1.177   0.596  1.00  0.00    -0.044 A 
ATOM      7  C   UNL     1       7.336  -0.766  -0.738  1.00  0.00     0.008 A 
ATOM      8  C   UNL     1       7.997  -2.408   0.866  1.00  0.00     0.054 A 
ATOM      9  C   UNL     1       7.785  -1.609  -1.738  1.00  0.00     0.051 A 
ATOM     10  C   UNL     1       8.450  -3.256  -0.149  1.00  0.00     0.166 A 
ATOM     11  C   UNL     1       8.343  -2.854  -1.461  1.00  0.00     0.165 A 
ATOM     12  O   UNL     1       9.028  -4.508  -0.139  1.00  0.00    -0.454 OA
ATOM     13  O   UNL     1       8.864  -3.877  -2.238  1.00  0.00    -0.454 OA
ATOM     14  C   UNL     1       9.392  -4.906  -1.436  1.00  0.00     0.468 C 
ENDBRANCH   5   6
ENDBRANCH   1   5
TORSDOF 3
ENDMDL
