@<TRIPOS>MOLECULE
/home/cewinharhar/GITHUB/reincatalyze/data/processed/docking_pred/2023-May-23-1437_sub9_nm5_bs15_s42_ex16_mel10_mts10000_k50_ec02_g099_lra3e-4_lrc1e-3/97b80f67ae9ab19215981068b7c743dd8d1e9d0d_ligand_9.pdbqt
 14 15 0 0 0
SMALL
GASTEIGER

@<TRIPOS>ATOM
      1  C          6.3910    1.2110    0.9250 C.3     1  UNL1        0.0800
      2  C          5.6630    0.3820    1.9260 C.2     1  UNL1        0.1300
      3  C          6.2660   -0.8460    2.5090 C.3     1  UNL1        0.0870
      4  O          4.5430    0.6890    2.2980 O.2     1  UNL1       -0.3000
      5  C          5.8860    0.9480   -0.4790 C.3     1  UNL1        0.0430
      6  C          6.8260    0.1170   -1.2520 C.2     1  UNL1       -0.0440
      7  C          7.5150    0.6260   -2.3590 C.2     1  UNL1        0.0080
      8  C          7.0430   -1.1910   -0.8820 C.2     1  UNL1        0.0540
      9  C          8.3850   -0.2010   -3.0450 C.2     1  UNL1        0.0510
     10  C          7.9250   -2.0220   -1.5790 C.2     1  UNL1        0.1660
     11  C          8.6010   -1.5230   -2.6700 C.2     1  UNL1        0.1650
     12  O          8.3060   -3.3370   -1.4130 O.2     1  UNL1       -0.4540
     13  O          9.3930   -2.5520   -3.1550 O.2     1  UNL1       -0.4540
     14  C          9.3050   -3.6930   -2.3340 C.3     1  UNL1        0.4680
@<TRIPOS>BOND
     1    13    11    1
     2    13    14    1
     3     9    11    2
     4     9     7    1
     5    11    10    1
     6     7     6    2
     7    14    12    1
     8    10    12    1
     9    10     8    2
    10     6     8    1
    11     6     5    1
    12     5     1    1
    13     1     2    1
    14     2     4    2
    15     2     3    1
