MODEL 1
REMARK VINA RESULT:      -7.5      0.000      0.000
REMARK SMILES CC(=O)CCc1ccc2c(c1)OCO2
REMARK SMILES IDX 4 1 2 2 1 3 3 4 5 5 6 6 7 7 11 8 8 9 10 10 9 11 12 12 14 13
REMARK SMILES IDX 13 14
REMARK H PARENT
REMARK Flexibility Score: inf
ROOT
ATOM      1  C   UNL     1       5.592  -0.248   1.999  1.00  0.00     0.080 C 
ENDROOT
BRANCH   1   2
ATOM      2  C   UNL     1       5.260   0.954   1.184  1.00  0.00     0.130 C 
ATOM      3  C   UNL     1       5.786   1.131  -0.196  1.00  0.00     0.087 C 
ATOM      4  O   UNL     1       4.543   1.836   1.630  1.00  0.00    -0.300 OA
ENDBRANCH   1   2
BRANCH   1   5
ATOM      5  C   UNL     1       6.572  -1.150   1.276  1.00  0.00     0.043 C 
BRANCH   5   6
ATOM      6  C   UNL     1       7.691  -1.551   2.147  1.00  0.00    -0.044 A 
ATOM      7  C   UNL     1       7.726  -1.202   3.502  1.00  0.00     0.008 A 
ATOM      8  C   UNL     1       8.729  -2.290   1.628  1.00  0.00     0.054 A 
ATOM      9  C   UNL     1       8.802  -1.607   4.272  1.00  0.00     0.051 A 
ATOM     10  C   UNL     1       9.814  -2.698   2.410  1.00  0.00     0.166 A 
ATOM     11  C   UNL     1       9.850  -2.353   3.743  1.00  0.00     0.165 A 
ATOM     12  O   UNL     1      10.951  -3.426   2.133  1.00  0.00    -0.454 OA
ATOM     13  O   UNL     1      11.021  -2.883   4.262  1.00  0.00    -0.454 OA
ATOM     14  C   UNL     1      11.704  -3.648   3.297  1.00  0.00     0.468 C 
ENDBRANCH   5   6
ENDBRANCH   1   5
TORSDOF 3
ENDMDL
MODEL 2
REMARK VINA RESULT:      -7.4      3.886      4.890
REMARK SMILES CC(=O)CCc1ccc2c(c1)OCO2
REMARK SMILES IDX 4 1 2 2 1 3 3 4 5 5 6 6 7 7 11 8 8 9 10 10 9 11 12 12 14 13
REMARK SMILES IDX 13 14
REMARK H PARENT
REMARK Flexibility Score: inf
ROOT
ATOM      1  C   UNL     1       5.581   1.873   1.321  1.00  0.00     0.080 C 
ENDROOT
BRANCH   1   2
ATOM      2  C   UNL     1       5.036   0.664   1.998  1.00  0.00     0.130 C 
ATOM      3  C   UNL     1       5.814  -0.601   2.081  1.00  0.00     0.087 C 
ATOM      4  O   UNL     1       3.928   0.677   2.509  1.00  0.00    -0.300 OA
ENDBRANCH   1   2
BRANCH   1   5
ATOM      5  C   UNL     1       5.461   1.761  -0.186  1.00  0.00     0.043 C 
BRANCH   5   6
ATOM      6  C   UNL     1       6.611   1.050  -0.774  1.00  0.00    -0.044 A 
ATOM      7  C   UNL     1       7.925   1.484  -0.567  1.00  0.00     0.008 A 
ATOM      8  C   UNL     1       6.398  -0.071  -1.545  1.00  0.00     0.054 A 
ATOM      9  C   UNL     1       8.964   0.776  -1.143  1.00  0.00     0.051 A 
ATOM     10  C   UNL     1       7.452  -0.783  -2.124  1.00  0.00     0.166 A 
ATOM     11  C   UNL     1       8.745  -0.356  -1.922  1.00  0.00     0.165 A 
ATOM     12  O   UNL     1       7.500  -1.909  -2.919  1.00  0.00    -0.454 OA
ATOM     13  O   UNL     1       9.570  -1.238  -2.603  1.00  0.00    -0.454 OA
ATOM     14  C   UNL     1       8.828  -2.290  -3.174  1.00  0.00     0.468 C 
ENDBRANCH   5   6
ENDBRANCH   1   5
TORSDOF 3
ENDMDL
MODEL 3
REMARK VINA RESULT:      -7.1      3.095      4.239
REMARK SMILES CC(=O)CCc1ccc2c(c1)OCO2
REMARK SMILES IDX 4 1 2 2 1 3 3 4 5 5 6 6 7 7 11 8 8 9 10 10 9 11 12 12 14 13
REMARK SMILES IDX 13 14
REMARK H PARENT
REMARK Flexibility Score: inf
ROOT
ATOM      1  C   UNL     1       5.767   1.391  -0.254  1.00  0.00     0.080 C 
ENDROOT
BRANCH   1   2
ATOM      2  C   UNL     1       5.125   1.274   1.086  1.00  0.00     0.130 C 
ATOM      3  C   UNL     1       5.391   0.116   1.980  1.00  0.00     0.087 C 
ATOM      4  O   UNL     1       4.357   2.132   1.490  1.00  0.00    -0.300 OA
ENDBRANCH   1   2
BRANCH   1   5
ATOM      5  C   UNL     1       7.252   1.099  -0.180  1.00  0.00     0.043 C 
BRANCH   5   6
ATOM      6  C   UNL     1       7.587  -0.191  -0.808  1.00  0.00    -0.044 A 
ATOM      7  C   UNL     1       7.572  -0.356  -2.198  1.00  0.00     0.008 A 
ATOM      8  C   UNL     1       7.928  -1.266  -0.019  1.00  0.00     0.054 A 
ATOM      9  C   UNL     1       7.896  -1.590  -2.731  1.00  0.00     0.051 A 
ATOM     10  C   UNL     1       8.256  -2.512  -0.563  1.00  0.00     0.166 A 
ATOM     11  C   UNL     1       8.240  -2.675  -1.930  1.00  0.00     0.165 A 
ATOM     12  O   UNL     1       8.622  -3.716   0.000  1.00  0.00    -0.454 OA
ATOM     13  O   UNL     1       8.601  -3.990  -2.181  1.00  0.00    -0.454 OA
ATOM     14  C   UNL     1       8.940  -4.660  -0.990  1.00  0.00     0.468 C 
ENDBRANCH   5   6
ENDBRANCH   1   5
TORSDOF 3
ENDMDL
MODEL 4
REMARK VINA RESULT:      -7.1      0.949      1.277
REMARK SMILES CC(=O)CCc1ccc2c(c1)OCO2
REMARK SMILES IDX 4 1 2 2 1 3 3 4 5 5 6 6 7 7 11 8 8 9 10 10 9 11 12 12 14 13
REMARK SMILES IDX 13 14
REMARK H PARENT
REMARK Flexibility Score: inf
ROOT
ATOM      1  C   UNL     1       7.017  -0.421   1.794  1.00  0.00     0.080 C 
ENDROOT
BRANCH   1   2
ATOM      2  C   UNL     1       5.790   0.381   1.524  1.00  0.00     0.130 C 
ATOM      3  C   UNL     1       5.603   1.114   0.243  1.00  0.00     0.087 C 
ATOM      4  O   UNL     1       4.897   0.458   2.352  1.00  0.00    -0.300 OA
ENDBRANCH   1   2
BRANCH   1   5
ATOM      5  C   UNL     1       7.054  -0.902   3.231  1.00  0.00     0.043 C 
BRANCH   5   6
ATOM      6  C   UNL     1       8.359  -1.494   3.575  1.00  0.00    -0.044 A 
ATOM      7  C   UNL     1       8.939  -1.307   4.835  1.00  0.00     0.008 A 
ATOM      8  C   UNL     1       9.031  -2.253   2.644  1.00  0.00     0.054 A 
ATOM      9  C   UNL     1      10.166  -1.887   5.102  1.00  0.00     0.051 A 
ATOM     10  C   UNL     1      10.271  -2.838   2.919  1.00  0.00     0.166 A 
ATOM     11  C   UNL     1      10.843  -2.653   4.158  1.00  0.00     0.165 A 
ATOM     12  O   UNL     1      11.126  -3.622   2.174  1.00  0.00    -0.454 OA
ATOM     13  O   UNL     1      12.049  -3.335   4.149  1.00  0.00    -0.454 OA
ATOM     14  C   UNL     1      12.225  -4.039   2.942  1.00  0.00     0.468 C 
ENDBRANCH   5   6
ENDBRANCH   1   5
TORSDOF 3
ENDMDL
MODEL 5
REMARK VINA RESULT:      -7.0      1.042      1.995
REMARK SMILES CC(=O)CCc1ccc2c(c1)OCO2
REMARK SMILES IDX 4 1 2 2 1 3 3 4 5 5 6 6 7 7 11 8 8 9 10 10 9 11 12 12 14 13
REMARK SMILES IDX 13 14
REMARK H PARENT
REMARK Flexibility Score: inf
ROOT
ATOM      1  C   UNL     1       5.346  -0.120   1.945  1.00  0.00     0.080 C 
ENDROOT
BRANCH   1   2
ATOM      2  C   UNL     1       5.324   1.078   1.059  1.00  0.00     0.130 C 
ATOM      3  C   UNL     1       5.840   1.027  -0.335  1.00  0.00     0.087 C 
ATOM      4  O   UNL     1       4.880   2.143   1.456  1.00  0.00    -0.300 OA
ENDBRANCH   1   2
BRANCH   1   5
ATOM      5  C   UNL     1       6.105  -1.265   1.304  1.00  0.00     0.043 C 
BRANCH   5   6
ATOM      6  C   UNL     1       7.353  -1.567   2.028  1.00  0.00    -0.044 A 
ATOM      7  C   UNL     1       8.391  -2.289   1.430  1.00  0.00     0.008 A 
ATOM      8  C   UNL     1       7.512  -1.130   3.324  1.00  0.00     0.054 A 
ATOM      9  C   UNL     1       9.540  -2.542   2.158  1.00  0.00     0.051 A 
ATOM     10  C   UNL     1       8.675  -1.387   4.056  1.00  0.00     0.166 A 
ATOM     11  C   UNL     1       9.697  -2.100   3.468  1.00  0.00     0.165 A 
ATOM     12  O   UNL     1       9.069  -1.067   5.338  1.00  0.00    -0.454 OA
ATOM     13  O   UNL     1      10.708  -2.202   4.411  1.00  0.00    -0.454 OA
ATOM     14  C   UNL     1      10.389  -1.484   5.579  1.00  0.00     0.468 C 
ENDBRANCH   5   6
ENDBRANCH   1   5
TORSDOF 3
ENDMDL
