@<TRIPOS>MOLECULE
/home/cewinharhar/GITHUB/reincatalyze/data/processed/docking_pred/2023-May-23-1437_sub9_nm5_bs15_s42_ex16_mel10_mts10000_k50_ec02_g099_lra3e-4_lrc1e-3/98720eda2f8b5e3d73e45599e80051818594e19a_ligand_9.pdbqt
 14 15 0 0 0
SMALL
GASTEIGER

@<TRIPOS>ATOM
      1  C          7.0170   -0.4210    1.7940 C.3     1  UNL1        0.0800
      2  C          5.7900    0.3810    1.5240 C.2     1  UNL1        0.1300
      3  C          5.6030    1.1140    0.2430 C.3     1  UNL1        0.0870
      4  O          4.8970    0.4580    2.3520 O.2     1  UNL1       -0.3000
      5  C          7.0540   -0.9020    3.2310 C.3     1  UNL1        0.0430
      6  C          8.3590   -1.4940    3.5750 C.2     1  UNL1       -0.0440
      7  C          8.9390   -1.3070    4.8350 C.2     1  UNL1        0.0080
      8  C          9.0310   -2.2530    2.6440 C.2     1  UNL1        0.0540
      9  C         10.1660   -1.8870    5.1020 C.2     1  UNL1        0.0510
     10  C         10.2710   -2.8380    2.9190 C.2     1  UNL1        0.1660
     11  C         10.8430   -2.6530    4.1580 C.2     1  UNL1        0.1650
     12  O         11.1260   -3.6220    2.1740 O.2     1  UNL1       -0.4540
     13  O         12.0490   -3.3350    4.1490 O.2     1  UNL1       -0.4540
     14  C         12.2250   -4.0390    2.9420 C.3     1  UNL1        0.4680
@<TRIPOS>BOND
     1     3     2    1
     2     2     1    1
     3     2     4    2
     4     1     5    1
     5    12    10    1
     6    12    14    1
     7     8    10    1
     8     8     6    2
     9    10    11    2
    10    14    13    1
    11     5     6    1
    12     6     7    1
    13    13    11    1
    14    11     9    1
    15     7     9    2
