@<TRIPOS>MOLECULE
/home/cewinharhar/GITHUB/reincatalyze/data/processed/docking_pred/2023-May-23-1437_sub9_nm5_bs15_s42_ex16_mel10_mts10000_k50_ec02_g099_lra3e-4_lrc1e-3/98720eda2f8b5e3d73e45599e80051818594e19a_ligand_9.pdbqt
 14 15 0 0 0
SMALL
GASTEIGER

@<TRIPOS>ATOM
      1  C          5.5810    1.8730    1.3210 C.3     1  UNL1        0.0800
      2  C          5.0360    0.6640    1.9980 C.2     1  UNL1        0.1300
      3  C          5.8140   -0.6010    2.0810 C.3     1  UNL1        0.0870
      4  O          3.9280    0.6770    2.5090 O.2     1  UNL1       -0.3000
      5  C          5.4610    1.7610   -0.1860 C.3     1  UNL1        0.0430
      6  C          6.6110    1.0500   -0.7740 C.2     1  UNL1       -0.0440
      7  C          7.9250    1.4840   -0.5670 C.2     1  UNL1        0.0080
      8  C          6.3980   -0.0710   -1.5450 C.2     1  UNL1        0.0540
      9  C          8.9640    0.7760   -1.1430 C.2     1  UNL1        0.0510
     10  C          7.4520   -0.7830   -2.1240 C.2     1  UNL1        0.1660
     11  C          8.7450   -0.3560   -1.9220 C.2     1  UNL1        0.1650
     12  O          7.5000   -1.9090   -2.9190 O.2     1  UNL1       -0.4540
     13  O          9.5700   -1.2380   -2.6030 O.2     1  UNL1       -0.4540
     14  C          8.8280   -2.2900   -3.1740 C.3     1  UNL1        0.4680
@<TRIPOS>BOND
     1    14    12    1
     2    14    13    1
     3    12    10    1
     4    13    11    1
     5    10    11    2
     6    10     8    1
     7    11     9    1
     8     8     6    2
     9     9     7    2
    10     6     7    1
    11     6     5    1
    12     5     1    1
    13     1     2    1
    14     2     3    1
    15     2     4    2
