@<TRIPOS>MOLECULE
/home/cewinharhar/GITHUB/reincatalyze/data/processed/docking_pred/2023-May-23-1437_sub9_nm5_bs15_s42_ex16_mel10_mts10000_k50_ec02_g099_lra3e-4_lrc1e-3/98ce2146f260201d1ebb2f82702d5d512d51d1e1_ligand_9.pdbqt
 14 15 0 0 0
SMALL
GASTEIGER

@<TRIPOS>ATOM
      1  C          5.3350   -0.0660    1.9770 C.3     1  UNL1        0.0800
      2  C          4.4470    1.1140    1.7860 C.2     1  UNL1        0.1300
      3  C          4.7280    2.1430    0.7500 C.3     1  UNL1        0.0870
      4  O          3.4560    1.2710    2.4810 O.2     1  UNL1       -0.3000
      5  C          6.7970    0.3280    1.9060 C.3     1  UNL1        0.0430
      6  C          7.3970   -0.0290    0.6080 C.2     1  UNL1       -0.0440
      7  C          7.8870    0.9470   -0.2670 C.2     1  UNL1        0.0080
      8  C          7.4860   -1.3520    0.2380 C.2     1  UNL1        0.0540
      9  C          8.4400    0.5520   -1.4720 C.2     1  UNL1        0.0510
     10  C          8.0460   -1.7460   -0.9800 C.2     1  UNL1        0.1660
     11  C          8.5270   -0.7860   -1.8420 C.2     1  UNL1        0.1650
     12  O          8.2450   -2.9770   -1.5690 O.2     1  UNL1       -0.4540
     13  O          9.0170   -1.4540   -2.9530 O.2     1  UNL1       -0.4540
     14  C          8.9410   -2.8490   -2.7820 C.3     1  UNL1        0.4680
@<TRIPOS>BOND
     1    13    14    1
     2    13    11    1
     3    14    12    1
     4    11     9    2
     5    11    10    1
     6    12    10    1
     7     9     7    1
     8    10     8    2
     9     7     6    2
    10     8     6    1
    11     6     5    1
    12     3     2    1
    13     2     1    1
    14     2     4    2
    15     5     1    1
