MODEL 1
REMARK VINA RESULT:      -7.7      0.000      0.000
REMARK SMILES CC(=O)CCc1ccc2c(c1)OCO2
REMARK SMILES IDX 4 1 2 2 1 3 3 4 5 5 6 6 7 7 11 8 8 9 10 10 9 11 12 12 14 13
REMARK SMILES IDX 13 14
REMARK H PARENT
REMARK Flexibility Score: inf
ROOT
ATOM      1  C   UNL     1       5.535   1.892   1.290  1.00  0.00     0.080 C 
ENDROOT
BRANCH   1   2
ATOM      2  C   UNL     1       5.093   0.668   2.016  1.00  0.00     0.130 C 
ATOM      3  C   UNL     1       5.985  -0.512   2.172  1.00  0.00     0.087 C 
ATOM      4  O   UNL     1       3.978   0.599   2.507  1.00  0.00    -0.300 OA
ENDBRANCH   1   2
BRANCH   1   5
ATOM      5  C   UNL     1       5.405   1.718  -0.210  1.00  0.00     0.043 C 
BRANCH   5   6
ATOM      6  C   UNL     1       6.569   1.018  -0.782  1.00  0.00    -0.044 A 
ATOM      7  C   UNL     1       7.877   1.454  -0.542  1.00  0.00     0.008 A 
ATOM      8  C   UNL     1       6.377  -0.094  -1.571  1.00  0.00     0.054 A 
ATOM      9  C   UNL     1       8.931   0.757  -1.105  1.00  0.00     0.051 A 
ATOM     10  C   UNL     1       7.446  -0.795  -2.136  1.00  0.00     0.166 A 
ATOM     11  C   UNL     1       8.733  -0.366  -1.902  1.00  0.00     0.165 A 
ATOM     12  O   UNL     1       7.515  -1.911  -2.944  1.00  0.00    -0.454 OA
ATOM     13  O   UNL     1       9.575  -1.237  -2.576  1.00  0.00    -0.454 OA
ATOM     14  C   UNL     1       8.849  -2.284  -3.175  1.00  0.00     0.468 C 
ENDBRANCH   5   6
ENDBRANCH   1   5
TORSDOF 3
ENDMDL
MODEL 2
REMARK VINA RESULT:      -7.4      1.942      2.415
REMARK SMILES CC(=O)CCc1ccc2c(c1)OCO2
REMARK SMILES IDX 4 1 2 2 1 3 3 4 5 5 6 6 7 7 11 8 8 9 10 10 9 11 12 12 14 13
REMARK SMILES IDX 13 14
REMARK H PARENT
REMARK Flexibility Score: inf
ROOT
ATOM      1  C   UNL     1       5.799   1.346  -0.279  1.00  0.00     0.080 C 
ENDROOT
BRANCH   1   2
ATOM      2  C   UNL     1       5.202   1.248   1.082  1.00  0.00     0.130 C 
ATOM      3  C   UNL     1       5.417   0.055   1.945  1.00  0.00     0.087 C 
ATOM      4  O   UNL     1       4.514   2.150   1.531  1.00  0.00    -0.300 OA
ENDBRANCH   1   2
BRANCH   1   5
ATOM      5  C   UNL     1       7.292   1.088  -0.245  1.00  0.00     0.043 C 
BRANCH   5   6
ATOM      6  C   UNL     1       7.636  -0.211  -0.851  1.00  0.00    -0.044 A 
ATOM      7  C   UNL     1       7.652  -0.391  -2.239  1.00  0.00     0.008 A 
ATOM      8  C   UNL     1       7.954  -1.278  -0.042  1.00  0.00     0.054 A 
ATOM      9  C   UNL     1       7.983  -1.633  -2.750  1.00  0.00     0.051 A 
ATOM     10  C   UNL     1       8.289  -2.531  -0.563  1.00  0.00     0.166 A 
ATOM     11  C   UNL     1       8.304  -2.710  -1.929  1.00  0.00     0.165 A 
ATOM     12  O   UNL     1       8.637  -3.730   0.022  1.00  0.00    -0.454 OA
ATOM     13  O   UNL     1       8.665  -4.028  -2.156  1.00  0.00    -0.454 OA
ATOM     14  C   UNL     1       8.974  -4.686  -0.951  1.00  0.00     0.468 C 
ENDBRANCH   5   6
ENDBRANCH   1   5
TORSDOF 3
ENDMDL
MODEL 3
REMARK VINA RESULT:      -7.2      2.049      2.614
REMARK SMILES CC(=O)CCc1ccc2c(c1)OCO2
REMARK SMILES IDX 4 1 2 2 1 3 3 4 5 5 6 6 7 7 11 8 8 9 10 10 9 11 12 12 14 13
REMARK SMILES IDX 13 14
REMARK H PARENT
REMARK Flexibility Score: inf
ROOT
ATOM      1  C   UNL     1       5.429  -0.044   2.001  1.00  0.00     0.080 C 
ENDROOT
BRANCH   1   2
ATOM      2  C   UNL     1       4.577   1.153   1.758  1.00  0.00     0.130 C 
ATOM      3  C   UNL     1       4.899   2.137   0.690  1.00  0.00     0.087 C 
ATOM      4  O   UNL     1       3.582   1.362   2.434  1.00  0.00    -0.300 OA
ENDBRANCH   1   2
BRANCH   1   5
ATOM      5  C   UNL     1       6.863   0.206   1.576  1.00  0.00     0.043 C 
BRANCH   5   6
ATOM      6  C   UNL     1       7.287  -0.723   0.513  1.00  0.00    -0.044 A 
ATOM      7  C   UNL     1       7.159  -0.394  -0.841  1.00  0.00     0.008 A 
ATOM      8  C   UNL     1       7.826  -1.944   0.849  1.00  0.00     0.054 A 
ATOM      9  C   UNL     1       7.575  -1.305  -1.795  1.00  0.00     0.051 A 
ATOM     10  C   UNL     1       8.246  -2.861  -0.119  1.00  0.00     0.166 A 
ATOM     11  C   UNL     1       8.119  -2.539  -1.452  1.00  0.00     0.165 A 
ATOM     12  O   UNL     1       8.803  -4.120  -0.042  1.00  0.00    -0.454 OA
ATOM     13  O   UNL     1       8.608  -3.617  -2.173  1.00  0.00    -0.454 OA
ATOM     14  C   UNL     1       9.135  -4.603  -1.318  1.00  0.00     0.468 C 
ENDBRANCH   5   6
ENDBRANCH   1   5
TORSDOF 3
ENDMDL
MODEL 4
REMARK VINA RESULT:      -7.1      1.256      1.469
REMARK SMILES CC(=O)CCc1ccc2c(c1)OCO2
REMARK SMILES IDX 4 1 2 2 1 3 3 4 5 5 6 6 7 7 11 8 8 9 10 10 9 11 12 12 14 13
REMARK SMILES IDX 13 14
REMARK H PARENT
REMARK Flexibility Score: inf
ROOT
ATOM      1  C   UNL     1       6.385   1.178   0.955  1.00  0.00     0.080 C 
ENDROOT
BRANCH   1   2
ATOM      2  C   UNL     1       5.646   0.364   1.961  1.00  0.00     0.130 C 
ATOM      3  C   UNL     1       6.236  -0.865   2.555  1.00  0.00     0.087 C 
ATOM      4  O   UNL     1       4.527   0.685   2.327  1.00  0.00    -0.300 OA
ENDBRANCH   1   2
BRANCH   1   5
ATOM      5  C   UNL     1       5.873   0.917  -0.448  1.00  0.00     0.043 C 
BRANCH   5   6
ATOM      6  C   UNL     1       6.813   0.092  -1.227  1.00  0.00    -0.044 A 
ATOM      7  C   UNL     1       7.477   0.598  -2.350  1.00  0.00     0.008 A 
ATOM      8  C   UNL     1       7.054  -1.210  -0.848  1.00  0.00     0.054 A 
ATOM      9  C   UNL     1       8.349  -0.223  -3.042  1.00  0.00     0.051 A 
ATOM     10  C   UNL     1       7.936  -2.036  -1.551  1.00  0.00     0.166 A 
ATOM     11  C   UNL     1       8.589  -1.538  -2.657  1.00  0.00     0.165 A 
ATOM     12  O   UNL     1       8.338  -3.343  -1.379  1.00  0.00    -0.454 OA
ATOM     13  O   UNL     1       9.387  -2.561  -3.145  1.00  0.00    -0.454 OA
ATOM     14  C   UNL     1       9.327  -3.694  -2.312  1.00  0.00     0.468 C 
ENDBRANCH   5   6
ENDBRANCH   1   5
TORSDOF 3
ENDMDL
MODEL 5
REMARK VINA RESULT:      -6.8      1.260      1.746
REMARK SMILES CC(=O)CCc1ccc2c(c1)OCO2
REMARK SMILES IDX 4 1 2 2 1 3 3 4 5 5 6 6 7 7 11 8 8 9 10 10 9 11 12 12 14 13
REMARK SMILES IDX 13 14
REMARK H PARENT
REMARK Flexibility Score: inf
ROOT
ATOM      1  C   UNL     1       5.335  -0.066   1.977  1.00  0.00     0.080 C 
ENDROOT
BRANCH   1   2
ATOM      2  C   UNL     1       4.447   1.114   1.786  1.00  0.00     0.130 C 
ATOM      3  C   UNL     1       4.728   2.143   0.750  1.00  0.00     0.087 C 
ATOM      4  O   UNL     1       3.456   1.271   2.481  1.00  0.00    -0.300 OA
ENDBRANCH   1   2
BRANCH   1   5
ATOM      5  C   UNL     1       6.797   0.328   1.906  1.00  0.00     0.043 C 
BRANCH   5   6
ATOM      6  C   UNL     1       7.397  -0.029   0.608  1.00  0.00    -0.044 A 
ATOM      7  C   UNL     1       7.887   0.947  -0.267  1.00  0.00     0.008 A 
ATOM      8  C   UNL     1       7.486  -1.352   0.238  1.00  0.00     0.054 A 
ATOM      9  C   UNL     1       8.440   0.552  -1.472  1.00  0.00     0.051 A 
ATOM     10  C   UNL     1       8.046  -1.746  -0.980  1.00  0.00     0.166 A 
ATOM     11  C   UNL     1       8.527  -0.786  -1.842  1.00  0.00     0.165 A 
ATOM     12  O   UNL     1       8.245  -2.977  -1.569  1.00  0.00    -0.454 OA
ATOM     13  O   UNL     1       9.017  -1.454  -2.953  1.00  0.00    -0.454 OA
ATOM     14  C   UNL     1       8.941  -2.849  -2.782  1.00  0.00     0.468 C 
ENDBRANCH   5   6
ENDBRANCH   1   5
TORSDOF 3
ENDMDL
