@<TRIPOS>MOLECULE
/home/cewinharhar/GITHUB/reincatalyze/data/processed/docking_pred/2023-May-23-1437_sub9_nm5_bs15_s42_ex16_mel10_mts10000_k50_ec02_g099_lra3e-4_lrc1e-3/9a7d3f5f853688f06c0e35b58fb12e655ab1ce10_ligand_9.pdbqt
 14 15 0 0 0
SMALL
GASTEIGER

@<TRIPOS>ATOM
      1  C          5.3750   -0.2940    2.1230 C.3     1  UNL1        0.0800
      2  C          4.4690    0.8710    1.9210 C.2     1  UNL1        0.1300
      3  C          4.6910    1.8520    0.8250 C.3     1  UNL1        0.0870
      4  O          3.5110    1.0540    2.6550 O.2     1  UNL1       -0.3000
      5  C          6.7890    0.0250    1.6780 C.3     1  UNL1        0.0430
      6  C          7.2350   -0.8680    0.5940 C.2     1  UNL1       -0.0440
      7  C          7.0830   -0.5190   -0.7530 C.2     1  UNL1        0.0080
      8  C          7.8200   -2.0760    0.9020 C.2     1  UNL1        0.0540
      9  C          7.5220   -1.3970   -1.7270 C.2     1  UNL1        0.0510
     10  C          8.2620   -2.9600   -0.0860 C.2     1  UNL1        0.1660
     11  C          8.1120   -2.6180   -1.4120 C.2     1  UNL1        0.1650
     12  O          8.8640   -4.1990   -0.0370 O.2     1  UNL1       -0.4540
     13  O          8.6310   -3.6650   -2.1570 O.2     1  UNL1       -0.4540
     14  C          9.2010   -4.6470   -1.3250 C.3     1  UNL1        0.4680
@<TRIPOS>BOND
     1    13    11    1
     2    13    14    1
     3     9    11    2
     4     9     7    1
     5    11    10    1
     6    14    12    1
     7     7     6    2
     8    10    12    1
     9    10     8    2
    10     6     8    1
    11     6     5    1
    12     3     2    1
    13     5     1    1
    14     2     1    1
    15     2     4    2
