@<TRIPOS>MOLECULE
/home/cewinharhar/GITHUB/reincatalyze/data/processed/docking_pred/2023-May-23-1437_sub9_nm5_bs15_s42_ex16_mel10_mts10000_k50_ec02_g099_lra3e-4_lrc1e-3/9a7d3f5f853688f06c0e35b58fb12e655ab1ce10_ligand_9.pdbqt
 14 15 0 0 0
SMALL
GASTEIGER

@<TRIPOS>ATOM
      1  C          8.7320   -3.9390   -0.3710 C.3     1  UNL1        0.0800
      2  C          9.2670   -4.8230   -1.4440 C.2     1  UNL1        0.1300
      3  C          8.9040   -6.2630   -1.5230 C.3     1  UNL1        0.0870
      4  O         10.0270   -4.3870   -2.2940 O.2     1  UNL1       -0.3000
      5  C          8.3270   -2.5870   -0.9230 C.3     1  UNL1        0.0430
      6  C          7.4890   -1.8360    0.0280 C.2     1  UNL1       -0.0440
      7  C          7.4280   -2.1830    1.3830 C.2     1  UNL1        0.0080
      8  C          6.7450   -0.7660   -0.4140 C.2     1  UNL1        0.0540
      9  C          6.6240   -1.4420    2.2300 C.2     1  UNL1        0.0510
     10  C          5.9340   -0.0190    0.4460 C.2     1  UNL1        0.1660
     11  C          5.8730   -0.3600    1.7790 C.2     1  UNL1        0.1650
     12  O          5.1120    1.0700    0.2530 O.2     1  UNL1       -0.4540
     13  O          5.0060    0.5370    2.3830 O.2     1  UNL1       -0.4540
     14  C          4.5720    1.5160    1.4700 C.3     1  UNL1        0.4680
@<TRIPOS>BOND
     1     4     2    2
     2     3     2    1
     3     2     1    1
     4     5     1    1
     5     5     6    1
     6     8     6    2
     7     8    10    1
     8     6     7    1
     9    12    10    1
    10    12    14    1
    11    10    11    2
    12     7     9    2
    13    14    13    1
    14    11     9    1
    15    11    13    1
