@<TRIPOS>MOLECULE
/home/cewinharhar/GITHUB/reincatalyze/data/processed/docking_pred/2023-May-23-1437_sub9_nm5_bs15_s42_ex16_mel10_mts10000_k50_ec02_g099_lra3e-4_lrc1e-3/9a7d3f5f853688f06c0e35b58fb12e655ab1ce10_ligand_9.pdbqt
 14 15 0 0 0
SMALL
GASTEIGER

@<TRIPOS>ATOM
      1  C          5.2770   -0.1890    2.2960 C.3     1  UNL1        0.0800
      2  C          4.3730    0.9520    1.9810 C.2     1  UNL1        0.1300
      3  C          4.6570    1.8860    0.8590 C.3     1  UNL1        0.0870
      4  O          3.3660    1.1540    2.6410 O.2     1  UNL1       -0.3000
      5  C          6.7200    0.1470    1.9740 C.3     1  UNL1        0.0430
      6  C          7.2680   -0.7420    0.9340 C.2     1  UNL1       -0.0440
      7  C          7.5960   -2.0750    1.2070 C.2     1  UNL1        0.0080
      8  C          7.4650   -0.2610   -0.3410 C.2     1  UNL1        0.0540
      9  C          8.1060   -2.8620    0.1900 C.2     1  UNL1        0.0510
     10  C          7.9800   -1.0610   -1.3650 C.2     1  UNL1        0.1660
     11  C          8.3040   -2.3720   -1.0970 C.2     1  UNL1        0.1650
     12  O          8.2650   -0.8200   -2.6920 O.2     1  UNL1       -0.4540
     13  O          8.7840   -2.9160   -2.2780 O.2     1  UNL1       -0.4540
     14  C          8.6920   -1.9930   -3.3370 C.3     1  UNL1        0.4680
@<TRIPOS>BOND
     1    14    12    1
     2    14    13    1
     3    12    10    1
     4    13    11    1
     5    10    11    2
     6    10     8    1
     7    11     9    1
     8     8     6    2
     9     9     7    2
    10     3     2    1
    11     6     7    1
    12     6     5    1
    13     5     1    1
    14     2     1    1
    15     2     4    2
