@<TRIPOS>MOLECULE
/home/cewinharhar/GITHUB/reincatalyze/data/processed/docking_pred/2023-May-23-1437_sub9_nm5_bs15_s42_ex16_mel10_mts10000_k50_ec02_g099_lra3e-4_lrc1e-3/9cf679a9c5542d052f5b9fd38195e755841f8057_ligand_9.pdbqt
 14 15 0 0 0
SMALL
GASTEIGER

@<TRIPOS>ATOM
      1  C          6.9160    0.9200    1.1050 C.3     1  UNL1        0.0800
      2  C          5.4740    1.1190    1.4210 C.2     1  UNL1        0.1300
      3  C          4.6560    2.1460    0.7230 C.3     1  UNL1        0.0870
      4  O          4.9190    0.4390    2.2690 O.2     1  UNL1       -0.3000
      5  C          7.1700    1.0080   -0.3870 C.3     1  UNL1        0.0430
      6  C          7.6070   -0.2840   -0.9440 C.2     1  UNL1       -0.0440
      7  C          7.8010   -0.4620   -2.3190 C.2     1  UNL1        0.0080
      8  C          7.8360   -1.3480   -0.1010 C.2     1  UNL1        0.0540
      9  C          8.2130   -1.6970   -2.7840 C.2     1  UNL1        0.0510
     10  C          8.2530   -2.5950   -0.5770 C.2     1  UNL1        0.1660
     11  C          8.4430   -2.7710   -1.9290 C.2     1  UNL1        0.1650
     12  O          8.5420   -3.7900    0.0470 O.2     1  UNL1       -0.4540
     13  O          8.8500   -4.0830   -2.1090 O.2     1  UNL1       -0.4540
     14  C          9.0130   -4.7390   -0.8740 C.3     1  UNL1        0.4680
@<TRIPOS>BOND
     1     9     7    1
     2     9    11    2
     3     7     6    2
     4    13    11    1
     5    13    14    1
     6    11    10    1
     7     6     5    1
     8     6     8    1
     9    14    12    1
    10    10     8    2
    11    10    12    1
    12     5     1    1
    13     3     2    1
    14     1     2    1
    15     2     4    2
