@<TRIPOS>MOLECULE
/home/cewinharhar/GITHUB/reincatalyze/data/processed/docking_pred/2023-May-23-1437_sub9_nm5_bs15_s42_ex16_mel10_mts10000_k50_ec02_g099_lra3e-4_lrc1e-3/9e6208548f5309b91e7f4e881f40d3475c8e3dc2_ligand_9.pdbqt
 14 15 0 0 0
SMALL
GASTEIGER

@<TRIPOS>ATOM
      1  C          6.3350    1.2520    0.8680 C.3     1  UNL1        0.0800
      2  C          5.6590    0.4360    1.9140 C.2     1  UNL1        0.1300
      3  C          6.2920   -0.7830    2.4850 C.3     1  UNL1        0.0870
      4  O          4.5560    0.7470    2.3360 O.2     1  UNL1       -0.3000
      5  C          5.8240    0.9050   -0.5160 C.3     1  UNL1        0.0430
      6  C          6.7970    0.0970   -1.2720 C.2     1  UNL1       -0.0440
      7  C          7.5230    0.6350   -2.3410 C.2     1  UNL1        0.0080
      8  C          7.0080   -1.2180   -0.9260 C.2     1  UNL1        0.0540
      9  C          8.4250   -0.1700   -3.0130 C.2     1  UNL1        0.0510
     10  C          7.9210   -2.0280   -1.6080 C.2     1  UNL1        0.1660
     11  C          8.6340   -1.5000   -2.6610 C.2     1  UNL1        0.1650
     12  O          8.3030   -3.3440   -1.4590 O.2     1  UNL1       -0.4540
     13  O          9.4500   -2.5130   -3.1410 O.2     1  UNL1       -0.4540
     14  C          9.3380   -3.6730   -2.3510 C.3     1  UNL1        0.4680
@<TRIPOS>BOND
     1    13    11    1
     2    13    14    1
     3     9    11    2
     4     9     7    1
     5    11    10    1
     6    14    12    1
     7     7     6    2
     8    10    12    1
     9    10     8    2
    10     6     8    1
    11     6     5    1
    12     5     1    1
    13     1     2    1
    14     2     4    2
    15     2     3    1
