@<TRIPOS>MOLECULE
/home/cewinharhar/GITHUB/reincatalyze/data/processed/docking_pred/2023-May-23-1437_sub9_nm5_bs15_s42_ex16_mel10_mts10000_k50_ec02_g099_lra3e-4_lrc1e-3/9e6208548f5309b91e7f4e881f40d3475c8e3dc2_ligand_9.pdbqt
 14 15 0 0 0
SMALL
GASTEIGER

@<TRIPOS>ATOM
      1  C          6.8590    0.8540    1.0710 C.3     1  UNL1        0.0800
      2  C          5.4240    1.1530    1.3390 C.2     1  UNL1        0.1300
      3  C          4.6700    2.1490    0.5310 C.3     1  UNL1        0.0870
      4  O          4.8230    0.5850    2.2360 O.2     1  UNL1       -0.3000
      5  C          7.1800    0.9750   -0.4060 C.3     1  UNL1        0.0430
      6  C          7.6190   -0.3100   -0.9770 C.2     1  UNL1       -0.0440
      7  C          7.8050   -0.4750   -2.3540 C.2     1  UNL1        0.0080
      8  C          7.8560   -1.3810   -0.1450 C.2     1  UNL1        0.0540
      9  C          8.2190   -1.7040   -2.8330 C.2     1  UNL1        0.0510
     10  C          8.2750   -2.6220   -0.6340 C.2     1  UNL1        0.1660
     11  C          8.4580   -2.7850   -1.9890 C.2     1  UNL1        0.1650
     12  O          8.5710   -3.8210   -0.0230 O.2     1  UNL1       -0.4540
     13  O          8.8680   -4.0950   -2.1840 O.2     1  UNL1       -0.4540
     14  C          9.0410   -4.7610   -0.9560 C.3     1  UNL1        0.4680
@<TRIPOS>BOND
     1     9     7    1
     2     9    11    2
     3     7     6    2
     4    13    11    1
     5    13    14    1
     6    11    10    1
     7     6     5    1
     8     6     8    1
     9    14    12    1
    10    10     8    2
    11    10    12    1
    12     5     1    1
    13     3     2    1
    14     1     2    1
    15     2     4    2
