@<TRIPOS>MOLECULE
/home/cewinharhar/GITHUB/reincatalyze/data/processed/docking_pred/2023-May-23-1437_sub9_nm5_bs15_s42_ex16_mel10_mts10000_k50_ec02_g099_lra3e-4_lrc1e-3/9f92c22f58037dfd31510195396f5f62a4e9f4e3_ligand_9.pdbqt
 14 15 0 0 0
SMALL
GASTEIGER

@<TRIPOS>ATOM
      1  C          5.5440    1.8000    1.1690 C.3     1  UNL1        0.0800
      2  C          5.1260    0.6050    1.9540 C.2     1  UNL1        0.1300
      3  C          5.9890   -0.6020    2.0580 C.3     1  UNL1        0.0870
      4  O          4.0540    0.5820    2.5360 O.2     1  UNL1       -0.3000
      5  C          5.4340    1.5470   -0.3210 C.3     1  UNL1        0.0430
      6  C          6.6810    0.9870   -0.8740 C.2     1  UNL1       -0.0440
      7  C          7.9370    1.4470   -0.4620 C.2     1  UNL1        0.0080
      8  C          6.6200   -0.0130   -1.8170 C.2     1  UNL1        0.0540
      9  C          9.0720    0.8840   -1.0150 C.2     1  UNL1        0.0510
     10  C          7.7710   -0.5800   -2.3730 C.2     1  UNL1        0.1660
     11  C          9.0070   -0.1270   -1.9690 C.2     1  UNL1        0.1650
     12  O          7.9720   -1.5700   -3.3110 O.2     1  UNL1       -0.4540
     13  O          9.9510   -0.8570   -2.6740 O.2     1  UNL1       -0.4540
     14  C          9.3400   -1.8450   -3.4690 C.3     1  UNL1        0.4680
@<TRIPOS>BOND
     1    14    12    1
     2    14    13    1
     3    12    10    1
     4    13    11    1
     5    10    11    2
     6    10     8    1
     7    11     9    1
     8     8     6    2
     9     9     7    2
    10     6     7    1
    11     6     5    1
    12     5     1    1
    13     1     2    1
    14     2     3    1
    15     2     4    2
