@<TRIPOS>MOLECULE
/home/cewinharhar/GITHUB/reincatalyze/data/processed/docking_pred/2023-May-23-1437_sub9_nm5_bs15_s42_ex16_mel10_mts10000_k50_ec02_g099_lra3e-4_lrc1e-3/9f92c22f58037dfd31510195396f5f62a4e9f4e3_ligand_9.pdbqt
 14 15 0 0 0
SMALL
GASTEIGER

@<TRIPOS>ATOM
      1  C          6.0720    1.3720    1.0890 C.3     1  UNL1        0.0800
      2  C          5.5590    0.3160    2.0060 C.2     1  UNL1        0.1300
      3  C          6.3620   -0.8930    2.3320 C.3     1  UNL1        0.0870
      4  O          4.4560    0.4140    2.5190 O.2     1  UNL1       -0.3000
      5  C          5.6830    1.0890   -0.3490 C.3     1  UNL1        0.0430
      6  C          6.7960    0.4960   -1.1100 C.2     1  UNL1       -0.0440
      7  C          6.6480   -0.7090   -1.8070 C.2     1  UNL1        0.0080
      8  C          8.0150    1.1340   -1.1450 C.2     1  UNL1        0.0540
      9  C          7.7280   -1.2180   -2.5050 C.2     1  UNL1        0.0510
     10  C          9.1040    0.6150   -1.8530 C.2     1  UNL1        0.1660
     11  C          8.9590   -0.5700   -2.5380 C.2     1  UNL1        0.1650
     12  O         10.3980    1.0530   -2.0390 O.2     1  UNL1       -0.4540
     13  O         10.1790   -0.8390   -3.1380 O.2     1  UNL1       -0.4540
     14  C         11.0930    0.2100   -2.9220 C.3     1  UNL1        0.4680
@<TRIPOS>BOND
     1    13    14    1
     2    13    11    1
     3    14    12    1
     4    11     9    2
     5    11    10    1
     6     9     7    1
     7    12    10    1
     8    10     8    2
     9     7     6    2
    10     8     6    1
    11     6     5    1
    12     5     1    1
    13     1     2    1
    14     2     3    1
    15     2     4    2
