@<TRIPOS>MOLECULE
/home/cewinharhar/GITHUB/reincatalyze/data/processed/docking_pred/2023-May-23-1437_sub9_nm5_bs15_s42_ex16_mel10_mts10000_k50_ec02_g099_lra3e-4_lrc1e-3/9f92c22f58037dfd31510195396f5f62a4e9f4e3_ligand_9.pdbqt
 14 15 0 0 0
SMALL
GASTEIGER

@<TRIPOS>ATOM
      1  C          5.6790    1.2600   -0.3170 C.3     1  UNL1        0.0800
      2  C          5.1590    1.2660    1.0790 C.2     1  UNL1        0.1300
      3  C          5.5440    0.2150    2.0600 C.3     1  UNL1        0.0870
      4  O          4.3970    2.1390    1.4610 O.2     1  UNL1       -0.3000
      5  C          7.1840    1.0840   -0.3430 C.3     1  UNL1        0.0430
      6  C          7.5720   -0.2170   -0.9170 C.2     1  UNL1       -0.0440
      7  C          7.6520   -0.4120   -2.3010 C.2     1  UNL1        0.0080
      8  C          7.8680   -1.2710   -0.0830 C.2     1  UNL1        0.0540
      9  C          8.0230   -1.6550   -2.7830 C.2     1  UNL1        0.0510
     10  C          8.2420   -2.5240   -0.5750 C.2     1  UNL1        0.1660
     11  C          8.3200   -2.7180   -1.9360 C.2     1  UNL1        0.1650
     12  O          8.5800   -3.7120    0.0390 O.2     1  UNL1       -0.4540
     13  O          8.7080   -4.0340   -2.1320 O.2     1  UNL1       -0.4540
     14  C          8.9720   -4.6740   -0.9060 C.3     1  UNL1        0.4680
@<TRIPOS>BOND
     1     9     7    1
     2     9    11    2
     3     7     6    2
     4    13    11    1
     5    13    14    1
     6    11    10    1
     7     6     5    1
     8     6     8    1
     9    14    12    1
    10    10     8    2
    11    10    12    1
    12     5     1    1
    13     1     2    1
    14     2     4    2
    15     2     3    1
