@<TRIPOS>MOLECULE
/home/cewinharhar/GITHUB/reincatalyze/data/processed/docking_pred/2023-May-23-1437_sub9_nm5_bs15_s42_ex16_mel10_mts10000_k50_ec02_g099_lra3e-4_lrc1e-3/9f92c22f58037dfd31510195396f5f62a4e9f4e3_ligand_9.pdbqt
 14 15 0 0 0
SMALL
GASTEIGER

@<TRIPOS>ATOM
      1  C          8.7290    0.4050   -3.3650 C.3     1  UNL1        0.0800
      2  C         10.1600    0.6400   -3.0270 C.2     1  UNL1        0.1300
      3  C         11.0650    1.3910   -3.9390 C.3     1  UNL1        0.0870
      4  O         10.6350    0.2200   -1.9840 O.2     1  UNL1       -0.3000
      5  C          8.1790   -0.7980   -2.6250 C.3     1  UNL1        0.0430
      6  C          7.4250   -0.4020   -1.4220 C.2     1  UNL1       -0.0440
      7  C          7.5820   -1.0750   -0.2050 C.2     1  UNL1        0.0080
      8  C          6.5460    0.6550   -1.4850 C.2     1  UNL1        0.0540
      9  C          6.8480   -0.6580    0.8910 C.2     1  UNL1        0.0510
     10  C          5.8080    1.0730   -0.3740 C.2     1  UNL1        0.1660
     11  C          5.9600    0.4110    0.8240 C.2     1  UNL1        0.1650
     12  O          4.8840    2.0790   -0.1840 O.2     1  UNL1       -0.4540
     13  O          5.1180    1.0310    1.7340 O.2     1  UNL1       -0.4540
     14  C          4.4850    2.1500    1.1610 C.3     1  UNL1        0.4680
@<TRIPOS>BOND
     1     3     2    1
     2     1     2    1
     3     1     5    1
     4     2     4    2
     5     5     6    1
     6     8     6    2
     7     8    10    1
     8     6     7    1
     9    10    12    1
    10    10    11    2
    11     7     9    2
    12    12    14    1
    13    11     9    1
    14    11    13    1
    15    14    13    1
