MODEL 1
REMARK VINA RESULT:      -7.7      0.000      0.000
REMARK SMILES CC(=O)CCc1ccc2c(c1)OCO2
REMARK SMILES IDX 4 1 2 2 1 3 3 4 5 5 6 6 7 7 11 8 8 9 10 10 9 11 12 12 14 13
REMARK SMILES IDX 13 14
REMARK H PARENT
REMARK Flexibility Score: inf
ROOT
ATOM      1  C   UNL     1       5.544   1.900   1.281  1.00  0.00     0.080 C 
ENDROOT
BRANCH   1   2
ATOM      2  C   UNL     1       5.107   0.678   2.014  1.00  0.00     0.130 C 
ATOM      3  C   UNL     1       6.005  -0.496   2.179  1.00  0.00     0.087 C 
ATOM      4  O   UNL     1       3.991   0.606   2.502  1.00  0.00    -0.300 OA
ENDBRANCH   1   2
BRANCH   1   5
ATOM      5  C   UNL     1       5.414   1.718  -0.218  1.00  0.00     0.043 C 
BRANCH   5   6
ATOM      6  C   UNL     1       6.578   1.014  -0.786  1.00  0.00    -0.044 A 
ATOM      7  C   UNL     1       7.887   1.442  -0.536  1.00  0.00     0.008 A 
ATOM      8  C   UNL     1       6.384  -0.092  -1.581  1.00  0.00     0.054 A 
ATOM      9  C   UNL     1       8.940   0.741  -1.096  1.00  0.00     0.051 A 
ATOM     10  C   UNL     1       7.452  -0.798  -2.144  1.00  0.00     0.166 A 
ATOM     11  C   UNL     1       8.741  -0.377  -1.899  1.00  0.00     0.165 A 
ATOM     12  O   UNL     1       7.520  -1.910  -2.956  1.00  0.00    -0.454 OA
ATOM     13  O   UNL     1       9.581  -1.250  -2.572  1.00  0.00    -0.454 OA
ATOM     14  C   UNL     1       8.853  -2.290  -3.181  1.00  0.00     0.468 C 
ENDBRANCH   5   6
ENDBRANCH   1   5
TORSDOF 3
ENDMDL
MODEL 2
REMARK VINA RESULT:      -7.4      1.931      2.371
REMARK SMILES CC(=O)CCc1ccc2c(c1)OCO2
REMARK SMILES IDX 4 1 2 2 1 3 3 4 5 5 6 6 7 7 11 8 8 9 10 10 9 11 12 12 14 13
REMARK SMILES IDX 13 14
REMARK H PARENT
REMARK Flexibility Score: inf
ROOT
ATOM      1  C   UNL     1       5.745   1.339  -0.242  1.00  0.00     0.080 C 
ENDROOT
BRANCH   1   2
ATOM      2  C   UNL     1       5.107   1.248   1.101  1.00  0.00     0.130 C 
ATOM      3  C   UNL     1       5.352   0.093   2.005  1.00  0.00     0.087 C 
ATOM      4  O   UNL     1       4.359   2.125   1.500  1.00  0.00    -0.300 OA
ENDBRANCH   1   2
BRANCH   1   5
ATOM      5  C   UNL     1       7.238   1.085  -0.161  1.00  0.00     0.043 C 
BRANCH   5   6
ATOM      6  C   UNL     1       7.610  -0.194  -0.793  1.00  0.00    -0.044 A 
ATOM      7  C   UNL     1       7.676  -0.331  -2.184  1.00  0.00     0.008 A 
ATOM      8  C   UNL     1       7.903  -1.284  -0.006  1.00  0.00     0.054 A 
ATOM      9  C   UNL     1       8.032  -1.555  -2.721  1.00  0.00     0.051 A 
ATOM     10  C   UNL     1       8.262  -2.519  -0.554  1.00  0.00     0.166 A 
ATOM     11  C   UNL     1       8.327  -2.656  -1.923  1.00  0.00     0.165 A 
ATOM     12  O   UNL     1       8.594  -3.735   0.006  1.00  0.00    -0.454 OA
ATOM     13  O   UNL     1       8.702  -3.965  -2.178  1.00  0.00    -0.454 OA
ATOM     14  C   UNL     1       8.970  -4.659  -0.983  1.00  0.00     0.468 C 
ENDBRANCH   5   6
ENDBRANCH   1   5
TORSDOF 3
ENDMDL
MODEL 3
REMARK VINA RESULT:      -7.2      2.050      2.622
REMARK SMILES CC(=O)CCc1ccc2c(c1)OCO2
REMARK SMILES IDX 4 1 2 2 1 3 3 4 5 5 6 6 7 7 11 8 8 9 10 10 9 11 12 12 14 13
REMARK SMILES IDX 13 14
REMARK H PARENT
REMARK Flexibility Score: inf
ROOT
ATOM      1  C   UNL     1       5.406  -0.060   2.018  1.00  0.00     0.080 C 
ENDROOT
BRANCH   1   2
ATOM      2  C   UNL     1       4.566   1.145   1.772  1.00  0.00     0.130 C 
ATOM      3  C   UNL     1       4.908   2.133   0.713  1.00  0.00     0.087 C 
ATOM      4  O   UNL     1       3.566   1.358   2.437  1.00  0.00    -0.300 OA
ENDBRANCH   1   2
BRANCH   1   5
ATOM      5  C   UNL     1       6.847   0.182   1.613  1.00  0.00     0.043 C 
BRANCH   5   6
ATOM      6  C   UNL     1       7.276  -0.738   0.544  1.00  0.00    -0.044 A 
ATOM      7  C   UNL     1       7.152  -0.400  -0.808  1.00  0.00     0.008 A 
ATOM      8  C   UNL     1       7.816  -1.961   0.873  1.00  0.00     0.054 A 
ATOM      9  C   UNL     1       7.572  -1.303  -1.767  1.00  0.00     0.051 A 
ATOM     10  C   UNL     1       8.240  -2.870  -0.101  1.00  0.00     0.166 A 
ATOM     11  C   UNL     1       8.117  -2.539  -1.432  1.00  0.00     0.165 A 
ATOM     12  O   UNL     1       8.800  -4.128  -0.031  1.00  0.00    -0.454 OA
ATOM     13  O   UNL     1       8.609  -3.611  -2.159  1.00  0.00    -0.454 OA
ATOM     14  C   UNL     1       9.136  -4.602  -1.310  1.00  0.00     0.468 C 
ENDBRANCH   5   6
ENDBRANCH   1   5
TORSDOF 3
ENDMDL
MODEL 4
REMARK VINA RESULT:      -7.1      1.247      1.449
REMARK SMILES CC(=O)CCc1ccc2c(c1)OCO2
REMARK SMILES IDX 4 1 2 2 1 3 3 4 5 5 6 6 7 7 11 8 8 9 10 10 9 11 12 12 14 13
REMARK SMILES IDX 13 14
REMARK H PARENT
REMARK Flexibility Score: inf
ROOT
ATOM      1  C   UNL     1       6.371   1.231   0.924  1.00  0.00     0.080 C 
ENDROOT
BRANCH   1   2
ATOM      2  C   UNL     1       5.660   0.402   1.936  1.00  0.00     0.130 C 
ATOM      3  C   UNL     1       6.282  -0.813   2.527  1.00  0.00     0.087 C 
ATOM      4  O   UNL     1       4.537   0.698   2.311  1.00  0.00    -0.300 OA
ENDBRANCH   1   2
BRANCH   1   5
ATOM      5  C   UNL     1       5.865   0.946  -0.476  1.00  0.00     0.043 C 
BRANCH   5   6
ATOM      6  C   UNL     1       6.814   0.117  -1.242  1.00  0.00    -0.044 A 
ATOM      7  C   UNL     1       7.503   0.626  -2.349  1.00  0.00     0.008 A 
ATOM      8  C   UNL     1       7.037  -1.188  -0.867  1.00  0.00     0.054 A 
ATOM      9  C   UNL     1       8.382  -0.198  -3.028  1.00  0.00     0.051 A 
ATOM     10  C   UNL     1       7.927  -2.017  -1.556  1.00  0.00     0.166 A 
ATOM     11  C   UNL     1       8.604  -1.518  -2.647  1.00  0.00     0.165 A 
ATOM     12  O   UNL     1       8.315  -3.328  -1.384  1.00  0.00    -0.454 OA
ATOM     13  O   UNL     1       9.404  -2.544  -3.126  1.00  0.00    -0.454 OA
ATOM     14  C   UNL     1       9.319  -3.681  -2.300  1.00  0.00     0.468 C 
ENDBRANCH   5   6
ENDBRANCH   1   5
TORSDOF 3
ENDMDL
MODEL 5
REMARK VINA RESULT:      -7.0      1.944      2.502
REMARK SMILES CC(=O)CCc1ccc2c(c1)OCO2
REMARK SMILES IDX 4 1 2 2 1 3 3 4 5 5 6 6 7 7 11 8 8 9 10 10 9 11 12 12 14 13
REMARK SMILES IDX 13 14
REMARK H PARENT
REMARK Flexibility Score: inf
ROOT
ATOM      1  C   UNL     1       6.863   0.849   1.294  1.00  0.00     0.080 C 
ENDROOT
BRANCH   1   2
ATOM      2  C   UNL     1       5.407   1.109   1.468  1.00  0.00     0.130 C 
ATOM      3  C   UNL     1       4.699   2.150   0.675  1.00  0.00     0.087 C 
ATOM      4  O   UNL     1       4.748   0.471   2.273  1.00  0.00    -0.300 OA
ENDBRANCH   1   2
BRANCH   1   5
ATOM      5  C   UNL     1       7.289   1.042  -0.148  1.00  0.00     0.043 C 
BRANCH   5   6
ATOM      6  C   UNL     1       7.628  -0.239  -0.793  1.00  0.00    -0.044 A 
ATOM      7  C   UNL     1       7.650  -0.375  -2.186  1.00  0.00     0.008 A 
ATOM      8  C   UNL     1       7.934  -1.334  -0.017  1.00  0.00     0.054 A 
ATOM      9  C   UNL     1       7.976  -1.601  -2.736  1.00  0.00     0.051 A 
ATOM     10  C   UNL     1       8.265  -2.571  -0.578  1.00  0.00     0.166 A 
ATOM     11  C   UNL     1       8.285  -2.706  -1.948  1.00  0.00     0.165 A 
ATOM     12  O   UNL     1       8.602  -3.791  -0.030  1.00  0.00    -0.454 OA
ATOM     13  O   UNL     1       8.639  -4.019  -2.216  1.00  0.00    -0.454 OA
ATOM     14  C   UNL     1       8.938  -4.717  -1.031  1.00  0.00     0.468 C 
ENDBRANCH   5   6
ENDBRANCH   1   5
TORSDOF 3
ENDMDL
