@<TRIPOS>MOLECULE
/home/cewinharhar/GITHUB/reincatalyze/data/processed/docking_pred/2023-May-23-1437_sub9_nm5_bs15_s42_ex16_mel10_mts10000_k50_ec02_g099_lra3e-4_lrc1e-3/a450f47ca4f24610d4ad642e19216dd37a68a7e2_ligand_9.pdbqt
 14 15 0 0 0
SMALL
GASTEIGER

@<TRIPOS>ATOM
      1  C          5.7650    1.3340   -0.3440 C.3     1  UNL1        0.0800
      2  C          5.1770    1.2760    1.0240 C.2     1  UNL1        0.1300
      3  C          5.4820    0.1590    1.9580 C.3     1  UNL1        0.0870
      4  O          4.4230    2.1500    1.4190 O.2     1  UNL1       -0.3000
      5  C          7.2590    1.0780   -0.3120 C.3     1  UNL1        0.0430
      6  C          7.6050   -0.2170   -0.9250 C.2     1  UNL1       -0.0440
      7  C          7.6030   -0.3950   -2.3130 C.2     1  UNL1        0.0080
      8  C          7.9420   -1.2830   -0.1220 C.2     1  UNL1        0.0540
      9  C          7.9380   -1.6330   -2.8310 C.2     1  UNL1        0.0510
     10  C          8.2790   -2.5320   -0.6500 C.2     1  UNL1        0.1660
     11  C          8.2770   -2.7090   -2.0160 C.2     1  UNL1        0.1650
     12  O          8.6440   -3.7290   -0.0730 O.2     1  UNL1       -0.4540
     13  O          8.6450   -4.0240   -2.2510 O.2     1  UNL1       -0.4540
     14  C          8.9750   -4.6810   -1.0510 C.3     1  UNL1        0.4680
@<TRIPOS>BOND
     1     9     7    1
     2     9    11    2
     3     7     6    2
     4    13    11    1
     5    13    14    1
     6    11    10    1
     7    14    12    1
     8     6     5    1
     9     6     8    1
    10    10     8    2
    11    10    12    1
    12     1     5    1
    13     1     2    1
    14     2     4    2
    15     2     3    1
