MODEL 1
REMARK VINA RESULT:      -7.7      0.000      0.000
REMARK SMILES CC(=O)CCc1ccc2c(c1)OCO2
REMARK SMILES IDX 4 1 2 2 1 3 3 4 5 5 6 6 7 7 11 8 8 9 10 10 9 11 12 12 14 13
REMARK SMILES IDX 13 14
REMARK H PARENT
REMARK Flexibility Score: inf
ROOT
ATOM      1  C   UNL     1       5.532   1.881   1.298  1.00  0.00     0.080 C 
ENDROOT
BRANCH   1   2
ATOM      2  C   UNL     1       5.025   0.673   2.007  1.00  0.00     0.130 C 
ATOM      3  C   UNL     1       5.826  -0.578   2.090  1.00  0.00     0.087 C 
ATOM      4  O   UNL     1       3.929   0.676   2.543  1.00  0.00    -0.300 OA
ENDBRANCH   1   2
BRANCH   1   5
ATOM      5  C   UNL     1       5.411   1.728  -0.206  1.00  0.00     0.043 C 
BRANCH   5   6
ATOM      6  C   UNL     1       6.576   1.030  -0.779  1.00  0.00    -0.044 A 
ATOM      7  C   UNL     1       7.884   1.468  -0.541  1.00  0.00     0.008 A 
ATOM      8  C   UNL     1       6.385  -0.082  -1.568  1.00  0.00     0.054 A 
ATOM      9  C   UNL     1       8.938   0.773  -1.105  1.00  0.00     0.051 A 
ATOM     10  C   UNL     1       7.454  -0.782  -2.136  1.00  0.00     0.166 A 
ATOM     11  C   UNL     1       8.741  -0.350  -1.902  1.00  0.00     0.165 A 
ATOM     12  O   UNL     1       7.524  -1.897  -2.943  1.00  0.00    -0.454 OA
ATOM     13  O   UNL     1       9.583  -1.220  -2.578  1.00  0.00    -0.454 OA
ATOM     14  C   UNL     1       8.858  -2.268  -3.176  1.00  0.00     0.468 C 
ENDBRANCH   5   6
ENDBRANCH   1   5
TORSDOF 3
ENDMDL
MODEL 2
REMARK VINA RESULT:      -7.4      1.906      2.412
REMARK SMILES CC(=O)CCc1ccc2c(c1)OCO2
REMARK SMILES IDX 4 1 2 2 1 3 3 4 5 5 6 6 7 7 11 8 8 9 10 10 9 11 12 12 14 13
REMARK SMILES IDX 13 14
REMARK H PARENT
REMARK Flexibility Score: inf
ROOT
ATOM      1  C   UNL     1       5.765   1.334  -0.344  1.00  0.00     0.080 C 
ENDROOT
BRANCH   1   2
ATOM      2  C   UNL     1       5.177   1.276   1.024  1.00  0.00     0.130 C 
ATOM      3  C   UNL     1       5.482   0.159   1.958  1.00  0.00     0.087 C 
ATOM      4  O   UNL     1       4.423   2.150   1.419  1.00  0.00    -0.300 OA
ENDBRANCH   1   2
BRANCH   1   5
ATOM      5  C   UNL     1       7.259   1.078  -0.312  1.00  0.00     0.043 C 
BRANCH   5   6
ATOM      6  C   UNL     1       7.605  -0.217  -0.925  1.00  0.00    -0.044 A 
ATOM      7  C   UNL     1       7.603  -0.395  -2.313  1.00  0.00     0.008 A 
ATOM      8  C   UNL     1       7.942  -1.283  -0.122  1.00  0.00     0.054 A 
ATOM      9  C   UNL     1       7.938  -1.633  -2.831  1.00  0.00     0.051 A 
ATOM     10  C   UNL     1       8.279  -2.532  -0.650  1.00  0.00     0.166 A 
ATOM     11  C   UNL     1       8.277  -2.709  -2.016  1.00  0.00     0.165 A 
ATOM     12  O   UNL     1       8.644  -3.729  -0.073  1.00  0.00    -0.454 OA
ATOM     13  O   UNL     1       8.645  -4.024  -2.251  1.00  0.00    -0.454 OA
ATOM     14  C   UNL     1       8.975  -4.681  -1.051  1.00  0.00     0.468 C 
ENDBRANCH   5   6
ENDBRANCH   1   5
TORSDOF 3
ENDMDL
MODEL 3
REMARK VINA RESULT:      -7.2      2.073      2.632
REMARK SMILES CC(=O)CCc1ccc2c(c1)OCO2
REMARK SMILES IDX 4 1 2 2 1 3 3 4 5 5 6 6 7 7 11 8 8 9 10 10 9 11 12 12 14 13
REMARK SMILES IDX 13 14
REMARK H PARENT
REMARK Flexibility Score: inf
ROOT
ATOM      1  C   UNL     1       5.402  -0.061   1.984  1.00  0.00     0.080 C 
ENDROOT
BRANCH   1   2
ATOM      2  C   UNL     1       4.567   1.147   1.730  1.00  0.00     0.130 C 
ATOM      3  C   UNL     1       4.899   2.111   0.648  1.00  0.00     0.087 C 
ATOM      4  O   UNL     1       3.581   1.381   2.409  1.00  0.00    -0.300 OA
ENDBRANCH   1   2
BRANCH   1   5
ATOM      5  C   UNL     1       6.847   0.176   1.591  1.00  0.00     0.043 C 
BRANCH   5   6
ATOM      6  C   UNL     1       7.283  -0.749   0.530  1.00  0.00    -0.044 A 
ATOM      7  C   UNL     1       7.156  -0.421  -0.825  1.00  0.00     0.008 A 
ATOM      8  C   UNL     1       7.832  -1.965   0.867  1.00  0.00     0.054 A 
ATOM      9  C   UNL     1       7.583  -1.328  -1.778  1.00  0.00     0.051 A 
ATOM     10  C   UNL     1       8.263  -2.878  -0.100  1.00  0.00     0.166 A 
ATOM     11  C   UNL     1       8.137  -2.557  -1.433  1.00  0.00     0.165 A 
ATOM     12  O   UNL     1       8.833  -4.131  -0.021  1.00  0.00    -0.454 OA
ATOM     13  O   UNL     1       8.638  -3.631  -2.153  1.00  0.00    -0.454 OA
ATOM     14  C   UNL     1       9.173  -4.612  -1.296  1.00  0.00     0.468 C 
ENDBRANCH   5   6
ENDBRANCH   1   5
TORSDOF 3
ENDMDL
MODEL 4
REMARK VINA RESULT:      -7.1      1.266      1.484
REMARK SMILES CC(=O)CCc1ccc2c(c1)OCO2
REMARK SMILES IDX 4 1 2 2 1 3 3 4 5 5 6 6 7 7 11 8 8 9 10 10 9 11 12 12 14 13
REMARK SMILES IDX 13 14
REMARK H PARENT
REMARK Flexibility Score: inf
ROOT
ATOM      1  C   UNL     1       6.383   1.179   0.943  1.00  0.00     0.080 C 
ENDROOT
BRANCH   1   2
ATOM      2  C   UNL     1       5.655   0.356   1.949  1.00  0.00     0.130 C 
ATOM      3  C   UNL     1       6.254  -0.872   2.535  1.00  0.00     0.087 C 
ATOM      4  O   UNL     1       4.536   0.670   2.324  1.00  0.00    -0.300 OA
ENDBRANCH   1   2
BRANCH   1   5
ATOM      5  C   UNL     1       5.877   0.907  -0.460  1.00  0.00     0.043 C 
BRANCH   5   6
ATOM      6  C   UNL     1       6.824   0.083  -1.232  1.00  0.00    -0.044 A 
ATOM      7  C   UNL     1       7.508   0.595  -2.340  1.00  0.00     0.008 A 
ATOM      8  C   UNL     1       7.052  -1.223  -0.861  1.00  0.00     0.054 A 
ATOM      9  C   UNL     1       8.386  -0.225  -3.025  1.00  0.00     0.051 A 
ATOM     10  C   UNL     1       7.940  -2.048  -1.557  1.00  0.00     0.166 A 
ATOM     11  C   UNL     1       8.613  -1.545  -2.648  1.00  0.00     0.165 A 
ATOM     12  O   UNL     1       8.332  -3.360  -1.390  1.00  0.00    -0.454 OA
ATOM     13  O   UNL     1       9.412  -2.568  -3.133  1.00  0.00    -0.454 OA
ATOM     14  C   UNL     1       9.333  -3.708  -2.311  1.00  0.00     0.468 C 
ENDBRANCH   5   6
ENDBRANCH   1   5
TORSDOF 3
ENDMDL
MODEL 5
REMARK VINA RESULT:      -7.1      1.947      2.529
REMARK SMILES CC(=O)CCc1ccc2c(c1)OCO2
REMARK SMILES IDX 4 1 2 2 1 3 3 4 5 5 6 6 7 7 11 8 8 9 10 10 9 11 12 12 14 13
REMARK SMILES IDX 13 14
REMARK H PARENT
REMARK Flexibility Score: inf
ROOT
ATOM      1  C   UNL     1       6.916   0.934   1.165  1.00  0.00     0.080 C 
ENDROOT
BRANCH   1   2
ATOM      2  C   UNL     1       5.453   1.156   1.335  1.00  0.00     0.130 C 
ATOM      3  C   UNL     1       4.712   2.148   0.511  1.00  0.00     0.087 C 
ATOM      4  O   UNL     1       4.815   0.524   2.162  1.00  0.00    -0.300 OA
ENDBRANCH   1   2
BRANCH   1   5
ATOM      5  C   UNL     1       7.330   1.080  -0.286  1.00  0.00     0.043 C 
BRANCH   5   6
ATOM      6  C   UNL     1       7.687  -0.218  -0.885  1.00  0.00    -0.044 A 
ATOM      7  C   UNL     1       7.779  -0.385  -2.272  1.00  0.00     0.008 A 
ATOM      8  C   UNL     1       7.942  -1.298  -0.071  1.00  0.00     0.054 A 
ATOM      9  C   UNL     1       8.120  -1.626  -2.777  1.00  0.00     0.051 A 
ATOM     10  C   UNL     1       8.286  -2.551  -0.587  1.00  0.00     0.166 A 
ATOM     11  C   UNL     1       8.376  -2.716  -1.951  1.00  0.00     0.165 A 
ATOM     12  O   UNL     1       8.581  -3.762   0.003  1.00  0.00    -0.454 OA
ATOM     13  O   UNL     1       8.728  -4.038  -2.173  1.00  0.00    -0.454 OA
ATOM     14  C   UNL     1       8.958  -4.713  -0.959  1.00  0.00     0.468 C 
ENDBRANCH   5   6
ENDBRANCH   1   5
TORSDOF 3
ENDMDL
