@<TRIPOS>MOLECULE
/home/cewinharhar/GITHUB/reincatalyze/data/processed/docking_pred/2023-May-23-1437_sub9_nm5_bs15_s42_ex16_mel10_mts10000_k50_ec02_g099_lra3e-4_lrc1e-3/a450f47ca4f24610d4ad642e19216dd37a68a7e2_ligand_9.pdbqt
 14 15 0 0 0
SMALL
GASTEIGER

@<TRIPOS>ATOM
      1  C          5.5320    1.8810    1.2980 C.3     1  UNL1        0.0800
      2  C          5.0250    0.6730    2.0070 C.2     1  UNL1        0.1300
      3  C          5.8260   -0.5780    2.0900 C.3     1  UNL1        0.0870
      4  O          3.9290    0.6760    2.5430 O.2     1  UNL1       -0.3000
      5  C          5.4110    1.7280   -0.2060 C.3     1  UNL1        0.0430
      6  C          6.5760    1.0300   -0.7790 C.2     1  UNL1       -0.0440
      7  C          7.8840    1.4680   -0.5410 C.2     1  UNL1        0.0080
      8  C          6.3850   -0.0820   -1.5680 C.2     1  UNL1        0.0540
      9  C          8.9380    0.7730   -1.1050 C.2     1  UNL1        0.0510
     10  C          7.4540   -0.7820   -2.1360 C.2     1  UNL1        0.1660
     11  C          8.7410   -0.3500   -1.9020 C.2     1  UNL1        0.1650
     12  O          7.5240   -1.8970   -2.9430 O.2     1  UNL1       -0.4540
     13  O          9.5830   -1.2200   -2.5780 O.2     1  UNL1       -0.4540
     14  C          8.8580   -2.2680   -3.1760 C.3     1  UNL1        0.4680
@<TRIPOS>BOND
     1    14    12    1
     2    14    13    1
     3    12    10    1
     4    13    11    1
     5    10    11    2
     6    10     8    1
     7    11     9    1
     8     8     6    2
     9     9     7    2
    10     6     7    1
    11     6     5    1
    12     5     1    1
    13     1     2    1
    14     2     3    1
    15     2     4    2
