@<TRIPOS>MOLECULE
/home/cewinharhar/GITHUB/reincatalyze/data/processed/docking_pred/2023-May-23-1437_sub9_nm5_bs15_s42_ex16_mel10_mts10000_k50_ec02_g099_lra3e-4_lrc1e-3/a614218f6e6a1b7d791f470f20b1a009abdeaae3_ligand_9.pdbqt
 14 15 0 0 0
SMALL
GASTEIGER

@<TRIPOS>ATOM
      1  C          5.4310   -0.0490    1.9950 C.3     1  UNL1        0.0800
      2  C          4.5770    1.1470    1.7520 C.2     1  UNL1        0.1300
      3  C          4.8890    2.1220    0.6730 C.3     1  UNL1        0.0870
      4  O          3.5910    1.3630    2.4380 O.2     1  UNL1       -0.3000
      5  C          6.8640    0.2020    1.5680 C.3     1  UNL1        0.0430
      6  C          7.2880   -0.7280    0.5060 C.2     1  UNL1       -0.0440
      7  C          7.1540   -0.4030   -0.8490 C.2     1  UNL1        0.0080
      8  C          7.8320   -1.9470    0.8430 C.2     1  UNL1        0.0540
      9  C          7.5700   -1.3150   -1.8020 C.2     1  UNL1        0.0510
     10  C          8.2510   -2.8650   -0.1240 C.2     1  UNL1        0.1660
     11  C          8.1190   -2.5470   -1.4580 C.2     1  UNL1        0.1650
     12  O          8.8130   -4.1210   -0.0460 O.2     1  UNL1       -0.4540
     13  O          8.6090   -3.6250   -2.1780 O.2     1  UNL1       -0.4540
     14  C          9.1420   -4.6070   -1.3220 C.3     1  UNL1        0.4680
@<TRIPOS>BOND
     1    13    11    1
     2    13    14    1
     3     9    11    2
     4     9     7    1
     5    11    10    1
     6    14    12    1
     7     7     6    2
     8    10    12    1
     9    10     8    2
    10     6     8    1
    11     6     5    1
    12     3     2    1
    13     5     1    1
    14     2     1    1
    15     2     4    2
