@<TRIPOS>MOLECULE
/home/cewinharhar/GITHUB/reincatalyze/data/processed/docking_pred/2023-May-23-1437_sub9_nm5_bs15_s42_ex16_mel10_mts10000_k50_ec02_g099_lra3e-4_lrc1e-3/a614218f6e6a1b7d791f470f20b1a009abdeaae3_ligand_9.pdbqt
 14 15 0 0 0
SMALL
GASTEIGER

@<TRIPOS>ATOM
      1  C          5.7720    1.3430   -0.3100 C.3     1  UNL1        0.0800
      2  C          5.2010    1.2850    1.0650 C.2     1  UNL1        0.1300
      3  C          5.5330    0.1780    2.0020 C.3     1  UNL1        0.0870
      4  O          4.4390    2.1500    1.4640 O.2     1  UNL1       -0.3000
      5  C          7.2690    1.1060   -0.2940 C.3     1  UNL1        0.0430
      6  C          7.6220   -0.2000   -0.8790 C.2     1  UNL1       -0.0440
      7  C          7.6430   -0.4020   -2.2640 C.2     1  UNL1        0.0080
      8  C          7.9430   -1.2530   -0.0520 C.2     1  UNL1        0.0540
      9  C          7.9830   -1.6500   -2.7550 C.2     1  UNL1        0.0510
     10  C          8.2860   -2.5120   -0.5540 C.2     1  UNL1        0.1660
     11  C          8.3060   -2.7120   -1.9160 C.2     1  UNL1        0.1650
     12  O          8.6390   -3.7000    0.0510 O.2     1  UNL1       -0.4540
     13  O          8.6750   -4.0320   -2.1220 O.2     1  UNL1       -0.4540
     14  C          8.9830   -4.6690   -0.9060 C.3     1  UNL1        0.4680
@<TRIPOS>BOND
     1     9     7    1
     2     9    11    2
     3     7     6    2
     4    13    11    1
     5    13    14    1
     6    11    10    1
     7    14    12    1
     8     6     5    1
     9     6     8    1
    10    10     8    2
    11    10    12    1
    12     1     5    1
    13     1     2    1
    14     2     4    2
    15     2     3    1
