@<TRIPOS>MOLECULE
/home/cewinharhar/GITHUB/reincatalyze/data/processed/docking_pred/2023-May-23-1437_sub9_nm5_bs15_s42_ex16_mel10_mts10000_k50_ec02_g099_lra3e-4_lrc1e-3/a7c8c9f10e55c2841f25afbe7e611a3f864293db_ligand_9.pdbqt
 14 15 0 0 0
SMALL
GASTEIGER

@<TRIPOS>ATOM
      1  C          5.1290    0.4990    1.5180 C.3     1  UNL1        0.0800
      2  C          6.2760   -0.1750    2.1880 C.2     1  UNL1        0.1300
      3  C          6.4740   -1.6470    2.1050 C.3     1  UNL1        0.0870
      4  O          7.0920    0.4670    2.8300 O.2     1  UNL1       -0.3000
      5  C          5.6030    1.4320    0.4210 C.3     1  UNL1        0.0430
      6  C          6.7000    0.8390   -0.3640 C.2     1  UNL1       -0.0440
      7  C          7.9760    1.4150   -0.3920 C.2     1  UNL1        0.0080
      8  C          6.4780   -0.3100   -1.0890 C.2     1  UNL1        0.0540
      9  C          8.9670    0.8140   -1.1460 C.2     1  UNL1        0.0510
     10  C          7.4830   -0.9140   -1.8490 C.2     1  UNL1        0.1660
     11  C          8.7380   -0.3470   -1.8780 C.2     1  UNL1        0.1650
     12  O          7.5120   -2.0400   -2.6440 O.2     1  UNL1       -0.4540
     13  O          9.5200   -1.1460   -2.6980 O.2     1  UNL1       -0.4540
     14  C          8.8070   -2.2800   -3.1320 C.3     1  UNL1        0.4680
@<TRIPOS>BOND
     1    14    13    1
     2    14    12    1
     3    13    11    1
     4    12    10    1
     5    11    10    2
     6    11     9    1
     7    10     8    1
     8     9     7    2
     9     8     6    2
    10     7     6    1
    11     6     5    1
    12     5     1    1
    13     1     2    1
    14     3     2    1
    15     2     4    2
