MODEL 1
REMARK VINA RESULT:      -7.6      0.000      0.000
REMARK SMILES CC(=O)CCc1ccc2c(c1)OCO2
REMARK SMILES IDX 4 1 2 2 1 3 3 4 5 5 6 6 7 7 11 8 8 9 10 10 9 11 12 12 14 13
REMARK SMILES IDX 13 14
REMARK H PARENT
REMARK Flexibility Score: inf
ROOT
ATOM      1  C   UNL     1       5.537   1.906   1.283  1.00  0.00     0.080 C 
ENDROOT
BRANCH   1   2
ATOM      2  C   UNL     1       5.069   0.689   2.004  1.00  0.00     0.130 C 
ATOM      3  C   UNL     1       5.939  -0.507   2.162  1.00  0.00     0.087 C 
ATOM      4  O   UNL     1       3.951   0.639   2.489  1.00  0.00    -0.300 OA
ENDBRANCH   1   2
BRANCH   1   5
ATOM      5  C   UNL     1       5.413   1.738  -0.218  1.00  0.00     0.043 C 
BRANCH   5   6
ATOM      6  C   UNL     1       6.572   1.026  -0.786  1.00  0.00    -0.044 A 
ATOM      7  C   UNL     1       7.884   1.446  -0.536  1.00  0.00     0.008 A 
ATOM      8  C   UNL     1       6.372  -0.080  -1.580  1.00  0.00     0.054 A 
ATOM      9  C   UNL     1       8.933   0.738  -1.095  1.00  0.00     0.051 A 
ATOM     10  C   UNL     1       7.435  -0.792  -2.142  1.00  0.00     0.166 A 
ATOM     11  C   UNL     1       8.726  -0.379  -1.898  1.00  0.00     0.165 A 
ATOM     12  O   UNL     1       7.496  -1.906  -2.953  1.00  0.00    -0.454 OA
ATOM     13  O   UNL     1       9.562  -1.257  -2.570  1.00  0.00    -0.454 OA
ATOM     14  C   UNL     1       8.828  -2.294  -3.177  1.00  0.00     0.468 C 
ENDBRANCH   5   6
ENDBRANCH   1   5
TORSDOF 3
ENDMDL
MODEL 2
REMARK VINA RESULT:      -7.4      1.923      2.345
REMARK SMILES CC(=O)CCc1ccc2c(c1)OCO2
REMARK SMILES IDX 4 1 2 2 1 3 3 4 5 5 6 6 7 7 11 8 8 9 10 10 9 11 12 12 14 13
REMARK SMILES IDX 13 14
REMARK H PARENT
REMARK Flexibility Score: inf
ROOT
ATOM      1  C   UNL     1       5.697   1.384  -0.252  1.00  0.00     0.080 C 
ENDROOT
BRANCH   1   2
ATOM      2  C   UNL     1       5.016   1.237   1.064  1.00  0.00     0.130 C 
ATOM      3  C   UNL     1       5.276   0.073   1.953  1.00  0.00     0.087 C 
ATOM      4  O   UNL     1       4.218   2.075   1.454  1.00  0.00    -0.300 OA
ENDBRANCH   1   2
BRANCH   1   5
ATOM      5  C   UNL     1       7.185   1.122  -0.134  1.00  0.00     0.043 C 
BRANCH   5   6
ATOM      6  C   UNL     1       7.567  -0.154  -0.766  1.00  0.00    -0.044 A 
ATOM      7  C   UNL     1       7.636  -0.291  -2.157  1.00  0.00     0.008 A 
ATOM      8  C   UNL     1       7.868  -1.242   0.022  1.00  0.00     0.054 A 
ATOM      9  C   UNL     1       8.001  -1.513  -2.693  1.00  0.00     0.051 A 
ATOM     10  C   UNL     1       8.237  -2.475  -0.526  1.00  0.00     0.166 A 
ATOM     11  C   UNL     1       8.304  -2.611  -1.894  1.00  0.00     0.165 A 
ATOM     12  O   UNL     1       8.577  -3.687   0.035  1.00  0.00    -0.454 OA
ATOM     13  O   UNL     1       8.689  -3.918  -2.148  1.00  0.00    -0.454 OA
ATOM     14  C   UNL     1       8.961  -4.609  -0.953  1.00  0.00     0.468 C 
ENDBRANCH   5   6
ENDBRANCH   1   5
TORSDOF 3
ENDMDL
MODEL 3
REMARK VINA RESULT:      -7.2      2.068      2.645
REMARK SMILES CC(=O)CCc1ccc2c(c1)OCO2
REMARK SMILES IDX 4 1 2 2 1 3 3 4 5 5 6 6 7 7 11 8 8 9 10 10 9 11 12 12 14 13
REMARK SMILES IDX 13 14
REMARK H PARENT
REMARK Flexibility Score: inf
ROOT
ATOM      1  C   UNL     1       5.378  -0.092   1.970  1.00  0.00     0.080 C 
ENDROOT
BRANCH   1   2
ATOM      2  C   UNL     1       4.564   1.129   1.713  1.00  0.00     0.130 C 
ATOM      3  C   UNL     1       4.926   2.098   0.644  1.00  0.00     0.087 C 
ATOM      4  O   UNL     1       3.571   1.371   2.379  1.00  0.00    -0.300 OA
ENDBRANCH   1   2
BRANCH   1   5
ATOM      5  C   UNL     1       6.831   0.127   1.596  1.00  0.00     0.043 C 
BRANCH   5   6
ATOM      6  C   UNL     1       7.264  -0.791   0.527  1.00  0.00    -0.044 A 
ATOM      7  C   UNL     1       7.118  -0.462  -0.826  1.00  0.00     0.008 A 
ATOM      8  C   UNL     1       7.829  -2.003   0.855  1.00  0.00     0.054 A 
ATOM      9  C   UNL     1       7.543  -1.363  -1.785  1.00  0.00     0.051 A 
ATOM     10  C   UNL     1       8.258  -2.910  -0.118  1.00  0.00     0.166 A 
ATOM     11  C   UNL     1       8.113  -2.587  -1.449  1.00  0.00     0.165 A 
ATOM     12  O   UNL     1       8.840  -4.157  -0.049  1.00  0.00    -0.454 OA
ATOM     13  O   UNL     1       8.616  -3.654  -2.177  1.00  0.00    -0.454 OA
ATOM     14  C   UNL     1       9.170  -4.632  -1.329  1.00  0.00     0.468 C 
ENDBRANCH   5   6
ENDBRANCH   1   5
TORSDOF 3
ENDMDL
MODEL 4
REMARK VINA RESULT:      -7.0      1.259      1.475
REMARK SMILES CC(=O)CCc1ccc2c(c1)OCO2
REMARK SMILES IDX 4 1 2 2 1 3 3 4 5 5 6 6 7 7 11 8 8 9 10 10 9 11 12 12 14 13
REMARK SMILES IDX 13 14
REMARK H PARENT
REMARK Flexibility Score: inf
ROOT
ATOM      1  C   UNL     1       6.365   1.146   0.952  1.00  0.00     0.080 C 
ENDROOT
BRANCH   1   2
ATOM      2  C   UNL     1       5.632   0.326   1.956  1.00  0.00     0.130 C 
ATOM      3  C   UNL     1       6.236  -0.892   2.560  1.00  0.00     0.087 C 
ATOM      4  O   UNL     1       4.506   0.631   2.313  1.00  0.00    -0.300 OA
ENDBRANCH   1   2
BRANCH   1   5
ATOM      5  C   UNL     1       5.860   0.880  -0.452  1.00  0.00     0.043 C 
BRANCH   5   6
ATOM      6  C   UNL     1       6.813   0.067  -1.230  1.00  0.00    -0.044 A 
ATOM      7  C   UNL     1       7.488   0.591  -2.339  1.00  0.00     0.008 A 
ATOM      8  C   UNL     1       7.053  -1.238  -0.866  1.00  0.00     0.054 A 
ATOM      9  C   UNL     1       8.371  -0.218  -3.030  1.00  0.00     0.051 A 
ATOM     10  C   UNL     1       7.947  -2.052  -1.568  1.00  0.00     0.166 A 
ATOM     11  C   UNL     1       8.611  -1.538  -2.659  1.00  0.00     0.165 A 
ATOM     12  O   UNL     1       8.351  -3.360  -1.408  1.00  0.00    -0.454 OA
ATOM     13  O   UNL     1       9.418  -2.551  -3.151  1.00  0.00    -0.454 OA
ATOM     14  C   UNL     1       9.353  -3.695  -2.334  1.00  0.00     0.468 C 
ENDBRANCH   5   6
ENDBRANCH   1   5
TORSDOF 3
ENDMDL
MODEL 5
REMARK VINA RESULT:      -6.9      1.280      1.754
REMARK SMILES CC(=O)CCc1ccc2c(c1)OCO2
REMARK SMILES IDX 4 1 2 2 1 3 3 4 5 5 6 6 7 7 11 8 8 9 10 10 9 11 12 12 14 13
REMARK SMILES IDX 13 14
REMARK H PARENT
REMARK Flexibility Score: inf
ROOT
ATOM      1  C   UNL     1       5.311  -0.060   1.957  1.00  0.00     0.080 C 
ENDROOT
BRANCH   1   2
ATOM      2  C   UNL     1       4.415   1.115   1.774  1.00  0.00     0.130 C 
ATOM      3  C   UNL     1       4.658   2.125   0.709  1.00  0.00     0.087 C 
ATOM      4  O   UNL     1       3.449   1.285   2.500  1.00  0.00    -0.300 OA
ENDBRANCH   1   2
BRANCH   1   5
ATOM      5  C   UNL     1       6.771   0.343   1.880  1.00  0.00     0.043 C 
BRANCH   5   6
ATOM      6  C   UNL     1       7.374  -0.033   0.588  1.00  0.00    -0.044 A 
ATOM      7  C   UNL     1       7.853   0.931  -0.305  1.00  0.00     0.008 A 
ATOM      8  C   UNL     1       7.475  -1.362   0.244  1.00  0.00     0.054 A 
ATOM      9  C   UNL     1       8.410   0.519  -1.502  1.00  0.00     0.051 A 
ATOM     10  C   UNL     1       8.040  -1.773  -0.967  1.00  0.00     0.166 A 
ATOM     11  C   UNL     1       8.510  -0.825  -1.848  1.00  0.00     0.165 A 
ATOM     12  O   UNL     1       8.251  -3.013  -1.532  1.00  0.00    -0.454 OA
ATOM     13  O   UNL     1       9.007  -1.509  -2.946  1.00  0.00    -0.454 OA
ATOM     14  C   UNL     1       8.946  -2.901  -2.748  1.00  0.00     0.468 C 
ENDBRANCH   5   6
ENDBRANCH   1   5
TORSDOF 3
ENDMDL
