@<TRIPOS>MOLECULE
/home/cewinharhar/GITHUB/reincatalyze/data/processed/docking_pred/2023-May-23-1437_sub9_nm5_bs15_s42_ex16_mel10_mts10000_k50_ec02_g099_lra3e-4_lrc1e-3/a8cbf1bb962d04eb60783bb2dc55df042853f03a_ligand_9.pdbqt
 14 15 0 0 0
SMALL
GASTEIGER

@<TRIPOS>ATOM
      1  C          5.3110   -0.0600    1.9570 C.3     1  UNL1        0.0800
      2  C          4.4150    1.1150    1.7740 C.2     1  UNL1        0.1300
      3  C          4.6580    2.1250    0.7090 C.3     1  UNL1        0.0870
      4  O          3.4490    1.2850    2.5000 O.2     1  UNL1       -0.3000
      5  C          6.7710    0.3430    1.8800 C.3     1  UNL1        0.0430
      6  C          7.3740   -0.0330    0.5880 C.2     1  UNL1       -0.0440
      7  C          7.8530    0.9310   -0.3050 C.2     1  UNL1        0.0080
      8  C          7.4750   -1.3620    0.2440 C.2     1  UNL1        0.0540
      9  C          8.4100    0.5190   -1.5020 C.2     1  UNL1        0.0510
     10  C          8.0400   -1.7730   -0.9670 C.2     1  UNL1        0.1660
     11  C          8.5100   -0.8250   -1.8480 C.2     1  UNL1        0.1650
     12  O          8.2510   -3.0130   -1.5320 O.2     1  UNL1       -0.4540
     13  O          9.0070   -1.5090   -2.9460 O.2     1  UNL1       -0.4540
     14  C          8.9460   -2.9010   -2.7480 C.3     1  UNL1        0.4680
@<TRIPOS>BOND
     1    13    14    1
     2    13    11    1
     3    14    12    1
     4    11     9    2
     5    11    10    1
     6    12    10    1
     7     9     7    1
     8    10     8    2
     9     7     6    2
    10     8     6    1
    11     6     5    1
    12     3     2    1
    13     2     1    1
    14     2     4    2
    15     5     1    1
