MODEL 1
REMARK VINA RESULT:      -7.6      0.000      0.000
REMARK SMILES CC(=O)CCc1ccc2c(c1)OCO2
REMARK SMILES IDX 4 1 2 2 1 3 3 4 5 5 6 6 7 7 11 8 8 9 10 10 9 11 12 12 14 13
REMARK SMILES IDX 13 14
REMARK H PARENT
REMARK Flexibility Score: inf
ROOT
ATOM      1  C   UNL     1       5.560   1.866   1.291  1.00  0.00     0.080 C 
ENDROOT
BRANCH   1   2
ATOM      2  C   UNL     1       5.103   0.647   2.016  1.00  0.00     0.130 C 
ATOM      3  C   UNL     1       5.984  -0.539   2.182  1.00  0.00     0.087 C 
ATOM      4  O   UNL     1       3.984   0.588   2.498  1.00  0.00    -0.300 OA
ENDBRANCH   1   2
BRANCH   1   5
ATOM      5  C   UNL     1       5.425   1.696  -0.209  1.00  0.00     0.043 C 
BRANCH   5   6
ATOM      6  C   UNL     1       6.586   0.998  -0.788  1.00  0.00    -0.044 A 
ATOM      7  C   UNL     1       7.895   1.442  -0.563  1.00  0.00     0.008 A 
ATOM      8  C   UNL     1       6.392  -0.120  -1.567  1.00  0.00     0.054 A 
ATOM      9  C   UNL     1       8.946   0.745  -1.131  1.00  0.00     0.051 A 
ATOM     10  C   UNL     1       7.458  -0.821  -2.138  1.00  0.00     0.166 A 
ATOM     11  C   UNL     1       8.746  -0.384  -1.919  1.00  0.00     0.165 A 
ATOM     12  O   UNL     1       7.525  -1.941  -2.938  1.00  0.00    -0.454 OA
ATOM     13  O   UNL     1       9.585  -1.255  -2.595  1.00  0.00    -0.454 OA
ATOM     14  C   UNL     1       8.859  -2.310  -3.180  1.00  0.00     0.468 C 
ENDBRANCH   5   6
ENDBRANCH   1   5
TORSDOF 3
ENDMDL
MODEL 2
REMARK VINA RESULT:      -7.4      1.851      2.318
REMARK SMILES CC(=O)CCc1ccc2c(c1)OCO2
REMARK SMILES IDX 4 1 2 2 1 3 3 4 5 5 6 6 7 7 11 8 8 9 10 10 9 11 12 12 14 13
REMARK SMILES IDX 13 14
REMARK H PARENT
REMARK Flexibility Score: inf
ROOT
ATOM      1  C   UNL     1       5.671   1.376  -0.332  1.00  0.00     0.080 C 
ENDROOT
BRANCH   1   2
ATOM      2  C   UNL     1       5.078   1.283   1.032  1.00  0.00     0.130 C 
ATOM      3  C   UNL     1       5.373   0.139   1.935  1.00  0.00     0.087 C 
ATOM      4  O   UNL     1       4.327   2.150   1.449  1.00  0.00    -0.300 OA
ENDBRANCH   1   2
BRANCH   1   5
ATOM      5  C   UNL     1       7.171   1.160  -0.295  1.00  0.00     0.043 C 
BRANCH   5   6
ATOM      6  C   UNL     1       7.553  -0.123  -0.912  1.00  0.00    -0.044 A 
ATOM      7  C   UNL     1       7.600  -0.283  -2.302  1.00  0.00     0.008 A 
ATOM      8  C   UNL     1       7.877  -1.195  -0.112  1.00  0.00     0.054 A 
ATOM      9  C   UNL     1       7.967  -1.510  -2.823  1.00  0.00     0.051 A 
ATOM     10  C   UNL     1       8.248  -2.433  -0.644  1.00  0.00     0.166 A 
ATOM     11  C   UNL     1       8.293  -2.592  -2.011  1.00  0.00     0.165 A 
ATOM     12  O   UNL     1       8.609  -3.633  -0.069  1.00  0.00    -0.454 OA
ATOM     13  O   UNL     1       8.685  -3.900  -2.250  1.00  0.00    -0.454 OA
ATOM     14  C   UNL     1       8.984  -4.568  -1.048  1.00  0.00     0.468 C 
ENDBRANCH   5   6
ENDBRANCH   1   5
TORSDOF 3
ENDMDL
MODEL 3
REMARK VINA RESULT:      -7.2      2.077      2.609
REMARK SMILES CC(=O)CCc1ccc2c(c1)OCO2
REMARK SMILES IDX 4 1 2 2 1 3 3 4 5 5 6 6 7 7 11 8 8 9 10 10 9 11 12 12 14 13
REMARK SMILES IDX 13 14
REMARK H PARENT
REMARK Flexibility Score: inf
ROOT
ATOM      1  C   UNL     1       5.539   0.007   1.959  1.00  0.00     0.080 C 
ENDROOT
BRANCH   1   2
ATOM      2  C   UNL     1       4.657   1.167   1.650  1.00  0.00     0.130 C 
ATOM      3  C   UNL     1       4.964   2.108   0.540  1.00  0.00     0.087 C 
ATOM      4  O   UNL     1       3.650   1.380   2.305  1.00  0.00    -0.300 OA
ENDBRANCH   1   2
BRANCH   1   5
ATOM      5  C   UNL     1       6.960   0.257   1.493  1.00  0.00     0.043 C 
BRANCH   5   6
ATOM      6  C   UNL     1       7.371  -0.702   0.452  1.00  0.00    -0.044 A 
ATOM      7  C   UNL     1       7.271  -0.394  -0.909  1.00  0.00     0.008 A 
ATOM      8  C   UNL     1       7.868  -1.933   0.816  1.00  0.00     0.054 A 
ATOM      9  C   UNL     1       7.672  -1.334  -1.841  1.00  0.00     0.051 A 
ATOM     10  C   UNL     1       8.273  -2.879  -0.130  1.00  0.00     0.166 A 
ATOM     11  C   UNL     1       8.174  -2.577  -1.470  1.00  0.00     0.165 A 
ATOM     12  O   UNL     1       8.792  -4.152  -0.023  1.00  0.00    -0.454 OA
ATOM     13  O   UNL     1       8.640  -3.682  -2.165  1.00  0.00    -0.454 OA
ATOM     14  C   UNL     1       9.126  -4.668  -1.286  1.00  0.00     0.468 C 
ENDBRANCH   5   6
ENDBRANCH   1   5
TORSDOF 3
ENDMDL
MODEL 4
REMARK VINA RESULT:      -7.1      1.238      1.434
REMARK SMILES CC(=O)CCc1ccc2c(c1)OCO2
REMARK SMILES IDX 4 1 2 2 1 3 3 4 5 5 6 6 7 7 11 8 8 9 10 10 9 11 12 12 14 13
REMARK SMILES IDX 13 14
REMARK H PARENT
REMARK Flexibility Score: inf
ROOT
ATOM      1  C   UNL     1       6.369   1.185   0.921  1.00  0.00     0.080 C 
ENDROOT
BRANCH   1   2
ATOM      2  C   UNL     1       5.652   0.371   1.941  1.00  0.00     0.130 C 
ATOM      3  C   UNL     1       6.250  -0.863   2.517  1.00  0.00     0.087 C 
ATOM      4  O   UNL     1       4.543   0.695   2.335  1.00  0.00    -0.300 OA
ENDBRANCH   1   2
BRANCH   1   5
ATOM      5  C   UNL     1       5.856   0.896  -0.476  1.00  0.00     0.043 C 
BRANCH   5   6
ATOM      6  C   UNL     1       6.811   0.084  -1.251  1.00  0.00    -0.044 A 
ATOM      7  C   UNL     1       7.500   0.613  -2.349  1.00  0.00     0.008 A 
ATOM      8  C   UNL     1       7.040  -1.225  -0.895  1.00  0.00     0.054 A 
ATOM      9  C   UNL     1       8.384  -0.196  -3.039  1.00  0.00     0.051 A 
ATOM     10  C   UNL     1       7.936  -2.039  -1.595  1.00  0.00     0.166 A 
ATOM     11  C   UNL     1       8.613  -1.520  -2.676  1.00  0.00     0.165 A 
ATOM     12  O   UNL     1       8.330  -3.351  -1.442  1.00  0.00    -0.454 OA
ATOM     13  O   UNL     1       9.419  -2.535  -3.169  1.00  0.00    -0.454 OA
ATOM     14  C   UNL     1       9.339  -3.685  -2.361  1.00  0.00     0.468 C 
ENDBRANCH   5   6
ENDBRANCH   1   5
TORSDOF 3
ENDMDL
MODEL 5
REMARK VINA RESULT:      -6.9      1.933      2.501
REMARK SMILES CC(=O)CCc1ccc2c(c1)OCO2
REMARK SMILES IDX 4 1 2 2 1 3 3 4 5 5 6 6 7 7 11 8 8 9 10 10 9 11 12 12 14 13
REMARK SMILES IDX 13 14
REMARK H PARENT
REMARK Flexibility Score: inf
ROOT
ATOM      1  C   UNL     1       6.648   0.568   1.162  1.00  0.00     0.080 C 
ENDROOT
BRANCH   1   2
ATOM      2  C   UNL     1       5.293   1.151   1.364  1.00  0.00     0.130 C 
ATOM      3  C   UNL     1       4.722   2.147   0.418  1.00  0.00     0.087 C 
ATOM      4  O   UNL     1       4.607   0.826   2.319  1.00  0.00    -0.300 OA
ENDBRANCH   1   2
BRANCH   1   5
ATOM      5  C   UNL     1       7.158   0.833  -0.241  1.00  0.00     0.043 C 
BRANCH   5   6
ATOM      6  C   UNL     1       7.672  -0.394  -0.876  1.00  0.00    -0.044 A 
ATOM      7  C   UNL     1       8.030  -0.424  -2.229  1.00  0.00     0.008 A 
ATOM      8  C   UNL     1       7.811  -1.542  -0.130  1.00  0.00     0.054 A 
ATOM      9  C   UNL     1       8.507  -1.604  -2.771  1.00  0.00     0.051 A 
ATOM     10  C   UNL     1       8.295  -2.731  -0.682  1.00  0.00     0.166 A 
ATOM     11  C   UNL     1       8.646  -2.763  -2.013  1.00  0.00     0.165 A 
ATOM     12  O   UNL     1       8.521  -3.987  -0.158  1.00  0.00    -0.454 OA
ATOM     13  O   UNL     1       9.086  -4.049  -2.282  1.00  0.00    -0.454 OA
ATOM     14  C   UNL     1       9.109  -4.833  -1.112  1.00  0.00     0.468 C 
ENDBRANCH   5   6
ENDBRANCH   1   5
TORSDOF 3
ENDMDL
