@<TRIPOS>MOLECULE
/home/cewinharhar/GITHUB/reincatalyze/data/processed/docking_pred/2023-May-23-1437_sub9_nm5_bs15_s42_ex16_mel10_mts10000_k50_ec02_g099_lra3e-4_lrc1e-3/ab5903e155d5198269deee73f32ad6fb308dffee_ligand_9.pdbqt
 14 15 0 0 0
SMALL
GASTEIGER

@<TRIPOS>ATOM
      1  C          5.6710    1.3760   -0.3320 C.3     1  UNL1        0.0800
      2  C          5.0780    1.2830    1.0320 C.2     1  UNL1        0.1300
      3  C          5.3730    0.1390    1.9350 C.3     1  UNL1        0.0870
      4  O          4.3270    2.1500    1.4490 O.2     1  UNL1       -0.3000
      5  C          7.1710    1.1600   -0.2950 C.3     1  UNL1        0.0430
      6  C          7.5530   -0.1230   -0.9120 C.2     1  UNL1       -0.0440
      7  C          7.6000   -0.2830   -2.3020 C.2     1  UNL1        0.0080
      8  C          7.8770   -1.1950   -0.1120 C.2     1  UNL1        0.0540
      9  C          7.9670   -1.5100   -2.8230 C.2     1  UNL1        0.0510
     10  C          8.2480   -2.4330   -0.6440 C.2     1  UNL1        0.1660
     11  C          8.2930   -2.5920   -2.0110 C.2     1  UNL1        0.1650
     12  O          8.6090   -3.6330   -0.0690 O.2     1  UNL1       -0.4540
     13  O          8.6850   -3.9000   -2.2500 O.2     1  UNL1       -0.4540
     14  C          8.9840   -4.5680   -1.0480 C.3     1  UNL1        0.4680
@<TRIPOS>BOND
     1     9     7    1
     2     9    11    2
     3     7     6    2
     4    13    11    1
     5    13    14    1
     6    11    10    1
     7    14    12    1
     8     6     5    1
     9     6     8    1
    10    10     8    2
    11    10    12    1
    12     1     5    1
    13     1     2    1
    14     2     4    2
    15     2     3    1
