@<TRIPOS>MOLECULE
/home/cewinharhar/GITHUB/reincatalyze/data/processed/docking_pred/2023-May-23-1437_sub9_nm5_bs15_s42_ex16_mel10_mts10000_k50_ec02_g099_lra3e-4_lrc1e-3/ab955c776f37f5544fae82246801d9a2769dfb79_ligand_9.pdbqt
 14 15 0 0 0
SMALL
GASTEIGER

@<TRIPOS>ATOM
      1  C          6.3500    1.2320    0.9200 C.3     1  UNL1        0.0800
      2  C          5.6540    0.3960    1.9370 C.2     1  UNL1        0.1300
      3  C          6.2790   -0.8300    2.5010 C.3     1  UNL1        0.0870
      4  O          4.5410    0.6950    2.3380 O.2     1  UNL1       -0.3000
      5  C          5.8400    0.9390   -0.4770 C.3     1  UNL1        0.0430
      6  C          6.7940    0.1210   -1.2480 C.2     1  UNL1       -0.0440
      7  C          7.4850    0.6430   -2.3470 C.2     1  UNL1        0.0080
      8  C          7.0200   -1.1870   -0.8840 C.2     1  UNL1        0.0540
      9  C          8.3690   -0.1710   -3.0320 C.2     1  UNL1        0.0510
     10  C          7.9160   -2.0060   -1.5790 C.2     1  UNL1        0.1660
     11  C          8.5950   -1.4940   -2.6620 C.2     1  UNL1        0.1650
     12  O          8.3080   -3.3170   -1.4180 O.2     1  UNL1       -0.4540
     13  O          9.4000   -2.5120   -3.1480 O.2     1  UNL1       -0.4540
     14  C          9.3170   -3.6580   -2.3340 C.3     1  UNL1        0.4680
@<TRIPOS>BOND
     1    13    11    1
     2    13    14    1
     3     9    11    2
     4     9     7    1
     5    11    10    1
     6     7     6    2
     7    14    12    1
     8    10    12    1
     9    10     8    2
    10     6     8    1
    11     6     5    1
    12     5     1    1
    13     1     2    1
    14     2     4    2
    15     2     3    1
