@<TRIPOS>MOLECULE
/home/cewinharhar/GITHUB/reincatalyze/data/processed/docking_pred/2023-May-23-1437_sub9_nm5_bs15_s42_ex16_mel10_mts10000_k50_ec02_g099_lra3e-4_lrc1e-3/ae45d061dddc84380b8ad6f9293329cc64ca5b9d_ligand_9.pdbqt
 14 15 0 0 0
SMALL
GASTEIGER

@<TRIPOS>ATOM
      1  C          8.7110   -3.9850   -0.4580 C.3     1  UNL1        0.0800
      2  C          9.2920   -4.8650   -1.5100 C.2     1  UNL1        0.1300
      3  C          8.9470   -6.3090   -1.5980 C.3     1  UNL1        0.0870
      4  O         10.0750   -4.4220   -2.3350 O.2     1  UNL1       -0.3000
      5  C          8.2940   -2.6440   -1.0300 C.3     1  UNL1        0.0430
      6  C          7.4840   -1.8700   -0.0730 C.2     1  UNL1       -0.0440
      7  C          7.4610   -2.1840    1.2910 C.2     1  UNL1        0.0080
      8  C          6.7300   -0.8090   -0.5200 C.2     1  UNL1        0.0540
      9  C          6.6820   -1.4210    2.1420 C.2     1  UNL1        0.0510
     10  C          5.9450   -0.0400    0.3450 C.2     1  UNL1        0.1660
     11  C          5.9200   -0.3490    1.6870 C.2     1  UNL1        0.1650
     12  O          5.1190    1.0460    0.1490 O.2     1  UNL1       -0.4540
     13  O          5.0720    0.5640    2.2930 O.2     1  UNL1       -0.4540
     14  C          4.6140    1.5230    1.3700 C.3     1  UNL1        0.4680
@<TRIPOS>BOND
     1     4     2    2
     2     3     2    1
     3     2     1    1
     4     5     1    1
     5     5     6    1
     6     8     6    2
     7     8    10    1
     8     6     7    1
     9    12    10    1
    10    12    14    1
    11    10    11    2
    12     7     9    2
    13    14    13    1
    14    11     9    1
    15    11    13    1
