@<TRIPOS>MOLECULE
/home/cewinharhar/GITHUB/reincatalyze/data/processed/docking_pred/2023-May-23-1437_sub9_nm5_bs15_s42_ex16_mel10_mts10000_k50_ec02_g099_lra3e-4_lrc1e-3/ae45d061dddc84380b8ad6f9293329cc64ca5b9d_ligand_9.pdbqt
 14 15 0 0 0
SMALL
GASTEIGER

@<TRIPOS>ATOM
      1  C          5.6240    0.2470    2.5300 C.3     1  UNL1        0.0800
      2  C          4.5090    1.0740    1.9910 C.2     1  UNL1        0.1300
      3  C          4.6450    1.8360    0.7210 C.3     1  UNL1        0.0870
      4  O          3.4440    1.1500    2.5810 O.2     1  UNL1       -0.3000
      5  C          5.7610   -1.0570    1.7690 C.3     1  UNL1        0.0430
      6  C          6.7800   -0.9660    0.7080 C.2     1  UNL1       -0.0440
      7  C          8.0190   -0.3540    0.9320 C.2     1  UNL1        0.0080
      8  C          6.5200   -1.4950   -0.5350 C.2     1  UNL1        0.0540
      9  C          8.9370   -0.2990   -0.1010 C.2     1  UNL1        0.0510
     10  C          7.4510   -1.4380   -1.5760 C.2     1  UNL1        0.1660
     11  C          8.6700   -0.8340   -1.3570 C.2     1  UNL1        0.1650
     12  O          7.4310   -1.8820   -2.8810 O.2     1  UNL1       -0.4540
     13  O          9.3800   -0.9230   -2.5440 O.2     1  UNL1       -0.4540
     14  C          8.6670   -1.6590   -3.5090 C.3     1  UNL1        0.4680
@<TRIPOS>BOND
     1    14    12    1
     2    14    13    1
     3    12    10    1
     4    13    11    1
     5    10    11    2
     6    10     8    1
     7    11     9    1
     8     8     6    2
     9     9     7    2
    10     6     7    1
    11     6     5    1
    12     3     2    1
    13     5     1    1
    14     2     1    1
    15     2     4    2
