MODEL 1
REMARK VINA RESULT:      -6.5      0.000      0.000
REMARK SMILES CC(=O)CCc1ccc2c(c1)OCO2
REMARK SMILES IDX 4 1 2 2 1 3 3 4 5 5 6 6 7 7 11 8 8 9 10 10 9 11 12 12 14 13
REMARK SMILES IDX 13 14
REMARK H PARENT
REMARK Flexibility Score: inf
ROOT
ATOM      1  C   UNL     1       5.389  -0.292   2.095  1.00  0.00     0.080 C 
ENDROOT
BRANCH   1   2
ATOM      2  C   UNL     1       4.472   0.865   1.902  1.00  0.00     0.130 C 
ATOM      3  C   UNL     1       4.681   1.854   0.811  1.00  0.00     0.087 C 
ATOM      4  O   UNL     1       3.516   1.037   2.641  1.00  0.00    -0.300 OA
ENDBRANCH   1   2
BRANCH   1   5
ATOM      5  C   UNL     1       6.795   0.037   1.633  1.00  0.00     0.043 C 
BRANCH   5   6
ATOM      6  C   UNL     1       7.243  -0.866   0.558  1.00  0.00    -0.044 A 
ATOM      7  C   UNL     1       7.096  -0.527  -0.792  1.00  0.00     0.008 A 
ATOM      8  C   UNL     1       7.822  -2.073   0.878  1.00  0.00     0.054 A 
ATOM      9  C   UNL     1       7.536  -1.414  -1.758  1.00  0.00     0.051 A 
ATOM     10  C   UNL     1       8.265  -2.966  -0.103  1.00  0.00     0.166 A 
ATOM     11  C   UNL     1       8.121  -2.634  -1.431  1.00  0.00     0.165 A 
ATOM     12  O   UNL     1       8.863  -4.207  -0.042  1.00  0.00    -0.454 OA
ATOM     13  O   UNL     1       8.639  -3.688  -2.167  1.00  0.00    -0.454 OA
ATOM     14  C   UNL     1       9.203  -4.666  -1.325  1.00  0.00     0.468 C 
ENDBRANCH   5   6
ENDBRANCH   1   5
TORSDOF 3
ENDMDL
MODEL 2
REMARK VINA RESULT:      -5.8      1.042      1.969
REMARK SMILES CC(=O)CCc1ccc2c(c1)OCO2
REMARK SMILES IDX 4 1 2 2 1 3 3 4 5 5 6 6 7 7 11 8 8 9 10 10 9 11 12 12 14 13
REMARK SMILES IDX 13 14
REMARK H PARENT
REMARK Flexibility Score: inf
ROOT
ATOM      1  C   UNL     1       5.306  -0.188   2.313  1.00  0.00     0.080 C 
ENDROOT
BRANCH   1   2
ATOM      2  C   UNL     1       4.386   0.937   1.984  1.00  0.00     0.130 C 
ATOM      3  C   UNL     1       4.652   1.857   0.846  1.00  0.00     0.087 C 
ATOM      4  O   UNL     1       3.380   1.136   2.646  1.00  0.00    -0.300 OA
ENDBRANCH   1   2
BRANCH   1   5
ATOM      5  C   UNL     1       6.741   0.157   1.967  1.00  0.00     0.043 C 
BRANCH   5   6
ATOM      6  C   UNL     1       7.284  -0.738   0.930  1.00  0.00    -0.044 A 
ATOM      7  C   UNL     1       7.593  -2.075   1.205  1.00  0.00     0.008 A 
ATOM      8  C   UNL     1       7.494  -0.260  -0.343  1.00  0.00     0.054 A 
ATOM      9  C   UNL     1       8.099  -2.869   0.192  1.00  0.00     0.051 A 
ATOM     10  C   UNL     1       8.005  -1.066  -1.364  1.00  0.00     0.166 A 
ATOM     11  C   UNL     1       8.311  -2.382  -1.094  1.00  0.00     0.165 A 
ATOM     12  O   UNL     1       8.299  -0.830  -2.690  1.00  0.00    -0.454 OA
ATOM     13  O   UNL     1       8.790  -2.932  -2.273  1.00  0.00    -0.454 OA
ATOM     14  C   UNL     1       8.715  -2.008  -3.332  1.00  0.00     0.468 C 
ENDBRANCH   5   6
ENDBRANCH   1   5
TORSDOF 3
ENDMDL
MODEL 3
REMARK VINA RESULT:      -5.7      1.875      5.451
REMARK SMILES CC(=O)CCc1ccc2c(c1)OCO2
REMARK SMILES IDX 4 1 2 2 1 3 3 4 5 5 6 6 7 7 11 8 8 9 10 10 9 11 12 12 14 13
REMARK SMILES IDX 13 14
REMARK H PARENT
REMARK Flexibility Score: inf
ROOT
ATOM      1  C   UNL     1       8.095  -1.765  -2.149  1.00  0.00     0.080 C 
ENDROOT
BRANCH   1   2
ATOM      2  C   UNL     1       8.789  -0.458  -2.327  1.00  0.00     0.130 C 
ATOM      3  C   UNL     1       8.229   0.611  -3.196  1.00  0.00     0.087 C 
ATOM      4  O   UNL     1       9.845  -0.228  -1.760  1.00  0.00    -0.300 OA
ENDBRANCH   1   2
BRANCH   1   5
ATOM      5  C   UNL     1       8.262  -2.289  -0.737  1.00  0.00     0.043 C 
BRANCH   5   6
ATOM      6  C   UNL     1       7.358  -1.610   0.208  1.00  0.00    -0.044 A 
ATOM      7  C   UNL     1       7.201  -2.060   1.525  1.00  0.00     0.008 A 
ATOM      8  C   UNL     1       6.648  -0.504  -0.201  1.00  0.00     0.054 A 
ATOM      9  C   UNL     1       6.340  -1.382   2.367  1.00  0.00     0.051 A 
ATOM     10  C   UNL     1       5.778   0.178   0.655  1.00  0.00     0.166 A 
ATOM     11  C   UNL     1       5.622  -0.265   1.950  1.00  0.00     0.165 A 
ATOM     12  O   UNL     1       4.972   1.284   0.489  1.00  0.00    -0.454 OA
ATOM     13  O   UNL     1       4.715   0.588   2.558  1.00  0.00    -0.454 OA
ATOM     14  C   UNL     1       4.346   1.638   1.696  1.00  0.00     0.468 C 
ENDBRANCH   5   6
ENDBRANCH   1   5
TORSDOF 3
ENDMDL
MODEL 4
REMARK VINA RESULT:      -5.7      1.362      6.129
REMARK SMILES CC(=O)CCc1ccc2c(c1)OCO2
REMARK SMILES IDX 4 1 2 2 1 3 3 4 5 5 6 6 7 7 11 8 8 9 10 10 9 11 12 12 14 13
REMARK SMILES IDX 13 14
REMARK H PARENT
REMARK Flexibility Score: inf
ROOT
ATOM      1  C   UNL     1       8.711  -3.985  -0.458  1.00  0.00     0.080 C 
ENDROOT
BRANCH   1   2
ATOM      2  C   UNL     1       9.292  -4.865  -1.510  1.00  0.00     0.130 C 
ATOM      3  C   UNL     1       8.947  -6.309  -1.598  1.00  0.00     0.087 C 
ATOM      4  O   UNL     1      10.075  -4.422  -2.335  1.00  0.00    -0.300 OA
ENDBRANCH   1   2
BRANCH   1   5
ATOM      5  C   UNL     1       8.294  -2.644  -1.030  1.00  0.00     0.043 C 
BRANCH   5   6
ATOM      6  C   UNL     1       7.484  -1.870  -0.073  1.00  0.00    -0.044 A 
ATOM      7  C   UNL     1       7.461  -2.184   1.291  1.00  0.00     0.008 A 
ATOM      8  C   UNL     1       6.730  -0.809  -0.520  1.00  0.00     0.054 A 
ATOM      9  C   UNL     1       6.682  -1.421   2.142  1.00  0.00     0.051 A 
ATOM     10  C   UNL     1       5.945  -0.040   0.345  1.00  0.00     0.166 A 
ATOM     11  C   UNL     1       5.920  -0.349   1.687  1.00  0.00     0.165 A 
ATOM     12  O   UNL     1       5.119   1.046   0.149  1.00  0.00    -0.454 OA
ATOM     13  O   UNL     1       5.072   0.564   2.293  1.00  0.00    -0.454 OA
ATOM     14  C   UNL     1       4.614   1.523   1.370  1.00  0.00     0.468 C 
ENDBRANCH   5   6
ENDBRANCH   1   5
TORSDOF 3
ENDMDL
MODEL 5
REMARK VINA RESULT:      -5.6      1.848      2.132
REMARK SMILES CC(=O)CCc1ccc2c(c1)OCO2
REMARK SMILES IDX 4 1 2 2 1 3 3 4 5 5 6 6 7 7 11 8 8 9 10 10 9 11 12 12 14 13
REMARK SMILES IDX 13 14
REMARK H PARENT
REMARK Flexibility Score: inf
ROOT
ATOM      1  C   UNL     1       5.624   0.247   2.530  1.00  0.00     0.080 C 
ENDROOT
BRANCH   1   2
ATOM      2  C   UNL     1       4.509   1.074   1.991  1.00  0.00     0.130 C 
ATOM      3  C   UNL     1       4.645   1.836   0.721  1.00  0.00     0.087 C 
ATOM      4  O   UNL     1       3.444   1.150   2.581  1.00  0.00    -0.300 OA
ENDBRANCH   1   2
BRANCH   1   5
ATOM      5  C   UNL     1       5.761  -1.057   1.769  1.00  0.00     0.043 C 
BRANCH   5   6
ATOM      6  C   UNL     1       6.780  -0.966   0.708  1.00  0.00    -0.044 A 
ATOM      7  C   UNL     1       8.019  -0.354   0.932  1.00  0.00     0.008 A 
ATOM      8  C   UNL     1       6.520  -1.495  -0.535  1.00  0.00     0.054 A 
ATOM      9  C   UNL     1       8.937  -0.299  -0.101  1.00  0.00     0.051 A 
ATOM     10  C   UNL     1       7.451  -1.438  -1.576  1.00  0.00     0.166 A 
ATOM     11  C   UNL     1       8.670  -0.834  -1.357  1.00  0.00     0.165 A 
ATOM     12  O   UNL     1       7.431  -1.882  -2.881  1.00  0.00    -0.454 OA
ATOM     13  O   UNL     1       9.380  -0.923  -2.544  1.00  0.00    -0.454 OA
ATOM     14  C   UNL     1       8.667  -1.659  -3.509  1.00  0.00     0.468 C 
ENDBRANCH   5   6
ENDBRANCH   1   5
TORSDOF 3
ENDMDL
