@<TRIPOS>MOLECULE
/home/cewinharhar/GITHUB/reincatalyze/data/processed/docking_pred/2023-May-23-1437_sub9_nm5_bs15_s42_ex16_mel10_mts10000_k50_ec02_g099_lra3e-4_lrc1e-3/ae62664a3c9eef67376bdc077c2faa7ac5a69a78_ligand_9.pdbqt
 14 15 0 0 0
SMALL
GASTEIGER

@<TRIPOS>ATOM
      1  C          5.7800    1.1380   -0.3390 C.3     1  UNL1        0.0800
      2  C          5.3220    1.1470    1.0780 C.2     1  UNL1        0.1300
      3  C          5.4400   -0.0560    1.9440 C.3     1  UNL1        0.0870
      4  O          4.8330    2.1500    1.5720 O.2     1  UNL1       -0.3000
      5  C          7.2880    1.0140   -0.4290 C.3     1  UNL1        0.0430
      6  C          7.6960   -0.2820   -1.0010 C.2     1  UNL1       -0.0440
      7  C          7.8660   -0.4540   -2.3790 C.2     1  UNL1        0.0080
      8  C          7.9210   -1.3540   -0.1680 C.2     1  UNL1        0.0540
      9  C          8.2510   -1.6930   -2.8580 C.2     1  UNL1        0.0510
     10  C          8.3110   -2.6050   -0.6570 C.2     1  UNL1        0.1660
     11  C          8.4770   -2.7760   -2.0140 C.2     1  UNL1        0.1650
     12  O          8.5900   -3.8080   -0.0450 O.2     1  UNL1       -0.4540
     13  O          8.8600   -4.0940   -2.2080 O.2     1  UNL1       -0.4540
     14  C          9.0320   -4.7590   -0.9790 C.3     1  UNL1        0.4680
@<TRIPOS>BOND
     1     9     7    1
     2     9    11    2
     3     7     6    2
     4    13    11    1
     5    13    14    1
     6    11    10    1
     7     6     5    1
     8     6     8    1
     9    14    12    1
    10    10     8    2
    11    10    12    1
    12     5     1    1
    13     1     2    1
    14     2     4    2
    15     2     3    1
