MODEL 1
REMARK VINA RESULT:      -7.7      0.000      0.000
REMARK SMILES CC(=O)CCc1ccc2c(c1)OCO2
REMARK SMILES IDX 4 1 2 2 1 3 3 4 5 5 6 6 7 7 11 8 8 9 10 10 9 11 12 12 14 13
REMARK SMILES IDX 13 14
REMARK H PARENT
REMARK Flexibility Score: inf
ROOT
ATOM      1  C   UNL     1       5.491   1.910   1.259  1.00  0.00     0.080 C 
ENDROOT
BRANCH   1   2
ATOM      2  C   UNL     1       5.006   0.705   1.989  1.00  0.00     0.130 C 
ATOM      3  C   UNL     1       5.828  -0.530   2.090  1.00  0.00     0.087 C 
ATOM      4  O   UNL     1       3.912   0.698   2.529  1.00  0.00    -0.300 OA
ENDBRANCH   1   2
BRANCH   1   5
ATOM      5  C   UNL     1       5.377   1.726  -0.242  1.00  0.00     0.043 C 
BRANCH   5   6
ATOM      6  C   UNL     1       6.552   1.031  -0.797  1.00  0.00    -0.044 A 
ATOM      7  C   UNL     1       7.855   1.468  -0.533  1.00  0.00     0.008 A 
ATOM      8  C   UNL     1       6.375  -0.076  -1.595  1.00  0.00     0.054 A 
ATOM      9  C   UNL     1       8.919   0.775  -1.082  1.00  0.00     0.051 A 
ATOM     10  C   UNL     1       7.454  -0.774  -2.147  1.00  0.00     0.166 A 
ATOM     11  C   UNL     1       8.737  -0.344  -1.888  1.00  0.00     0.165 A 
ATOM     12  O   UNL     1       7.539  -1.885  -2.958  1.00  0.00    -0.454 OA
ATOM     13  O   UNL     1       9.591  -1.210  -2.552  1.00  0.00    -0.454 OA
ATOM     14  C   UNL     1       8.877  -2.255  -3.169  1.00  0.00     0.468 C 
ENDBRANCH   5   6
ENDBRANCH   1   5
TORSDOF 3
ENDMDL
MODEL 2
REMARK VINA RESULT:      -7.5      1.928      2.392
REMARK SMILES CC(=O)CCc1ccc2c(c1)OCO2
REMARK SMILES IDX 4 1 2 2 1 3 3 4 5 5 6 6 7 7 11 8 8 9 10 10 9 11 12 12 14 13
REMARK SMILES IDX 13 14
REMARK H PARENT
REMARK Flexibility Score: inf
ROOT
ATOM      1  C   UNL     1       5.792   1.406  -0.304  1.00  0.00     0.080 C 
ENDROOT
BRANCH   1   2
ATOM      2  C   UNL     1       5.153   1.303   1.038  1.00  0.00     0.130 C 
ATOM      3  C   UNL     1       5.447   0.172   1.958  1.00  0.00     0.087 C 
ATOM      4  O   UNL     1       4.363   2.150   1.422  1.00  0.00    -0.300 OA
ENDBRANCH   1   2
BRANCH   1   5
ATOM      5  C   UNL     1       7.282   1.135  -0.226  1.00  0.00     0.043 C 
BRANCH   5   6
ATOM      6  C   UNL     1       7.635  -0.158  -0.839  1.00  0.00    -0.044 A 
ATOM      7  C   UNL     1       7.680  -0.323  -2.228  1.00  0.00     0.008 A 
ATOM      8  C   UNL     1       7.933  -1.235  -0.035  1.00  0.00     0.054 A 
ATOM      9  C   UNL     1       8.018  -1.559  -2.746  1.00  0.00     0.051 A 
ATOM     10  C   UNL     1       8.275  -2.483  -0.565  1.00  0.00     0.166 A 
ATOM     11  C   UNL     1       8.318  -2.646  -1.931  1.00  0.00     0.165 A 
ATOM     12  O   UNL     1       8.607  -3.690   0.014  1.00  0.00    -0.454 OA
ATOM     13  O   UNL     1       8.680  -3.963  -2.166  1.00  0.00    -0.454 OA
ATOM     14  C   UNL     1       8.962  -4.636  -0.962  1.00  0.00     0.468 C 
ENDBRANCH   5   6
ENDBRANCH   1   5
TORSDOF 3
ENDMDL
MODEL 3
REMARK VINA RESULT:      -7.3      2.056      2.609
REMARK SMILES CC(=O)CCc1ccc2c(c1)OCO2
REMARK SMILES IDX 4 1 2 2 1 3 3 4 5 5 6 6 7 7 11 8 8 9 10 10 9 11 12 12 14 13
REMARK SMILES IDX 13 14
REMARK H PARENT
REMARK Flexibility Score: inf
ROOT
ATOM      1  C   UNL     1       5.449  -0.023   2.006  1.00  0.00     0.080 C 
ENDROOT
BRANCH   1   2
ATOM      2  C   UNL     1       4.579   1.160   1.759  1.00  0.00     0.130 C 
ATOM      3  C   UNL     1       4.890   2.149   0.693  1.00  0.00     0.087 C 
ATOM      4  O   UNL     1       3.579   1.354   2.431  1.00  0.00    -0.300 OA
ENDBRANCH   1   2
BRANCH   1   5
ATOM      5  C   UNL     1       6.874   0.238   1.559  1.00  0.00     0.043 C 
BRANCH   5   6
ATOM      6  C   UNL     1       7.294  -0.697   0.499  1.00  0.00    -0.044 A 
ATOM      7  C   UNL     1       7.168  -0.372  -0.857  1.00  0.00     0.008 A 
ATOM      8  C   UNL     1       7.826  -1.919   0.840  1.00  0.00     0.054 A 
ATOM      9  C   UNL     1       7.580  -1.289  -1.807  1.00  0.00     0.051 A 
ATOM     10  C   UNL     1       8.241  -2.842  -0.125  1.00  0.00     0.166 A 
ATOM     11  C   UNL     1       8.117  -2.525  -1.459  1.00  0.00     0.165 A 
ATOM     12  O   UNL     1       8.793  -4.103  -0.043  1.00  0.00    -0.454 OA
ATOM     13  O   UNL     1       8.600  -3.608  -2.176  1.00  0.00    -0.454 OA
ATOM     14  C   UNL     1       9.122  -4.594  -1.317  1.00  0.00     0.468 C 
ENDBRANCH   5   6
ENDBRANCH   1   5
TORSDOF 3
ENDMDL
MODEL 4
REMARK VINA RESULT:      -7.1      1.273      1.492
REMARK SMILES CC(=O)CCc1ccc2c(c1)OCO2
REMARK SMILES IDX 4 1 2 2 1 3 3 4 5 5 6 6 7 7 11 8 8 9 10 10 9 11 12 12 14 13
REMARK SMILES IDX 13 14
REMARK H PARENT
REMARK Flexibility Score: inf
ROOT
ATOM      1  C   UNL     1       6.404   1.211   0.927  1.00  0.00     0.080 C 
ENDROOT
BRANCH   1   2
ATOM      2  C   UNL     1       5.677   0.375   1.922  1.00  0.00     0.130 C 
ATOM      3  C   UNL     1       6.284  -0.854   2.501  1.00  0.00     0.087 C 
ATOM      4  O   UNL     1       4.554   0.675   2.292  1.00  0.00    -0.300 OA
ENDBRANCH   1   2
BRANCH   1   5
ATOM      5  C   UNL     1       5.903   0.953  -0.481  1.00  0.00     0.043 C 
BRANCH   5   6
ATOM      6  C   UNL     1       6.839   0.114  -1.249  1.00  0.00    -0.044 A 
ATOM      7  C   UNL     1       7.529   0.613  -2.359  1.00  0.00     0.008 A 
ATOM      8  C   UNL     1       7.049  -1.194  -0.873  1.00  0.00     0.054 A 
ATOM      9  C   UNL     1       8.396  -0.221  -3.041  1.00  0.00     0.051 A 
ATOM     10  C   UNL     1       7.927  -2.033  -1.566  1.00  0.00     0.166 A 
ATOM     11  C   UNL     1       8.606  -1.543  -2.659  1.00  0.00     0.165 A 
ATOM     12  O   UNL     1       8.302  -3.349  -1.393  1.00  0.00    -0.454 OA
ATOM     13  O   UNL     1       9.392  -2.578  -3.140  1.00  0.00    -0.454 OA
ATOM     14  C   UNL     1       9.298  -3.714  -2.313  1.00  0.00     0.468 C 
ENDBRANCH   5   6
ENDBRANCH   1   5
TORSDOF 3
ENDMDL
MODEL 5
REMARK VINA RESULT:      -6.8      1.195      5.181
REMARK SMILES CC(=O)CCc1ccc2c(c1)OCO2
REMARK SMILES IDX 4 1 2 2 1 3 3 4 5 5 6 6 7 7 11 8 8 9 10 10 9 11 12 12 14 13
REMARK SMILES IDX 13 14
REMARK H PARENT
REMARK Flexibility Score: inf
ROOT
ATOM      1  C   UNL     1       8.329   0.204  -2.647  1.00  0.00     0.080 C 
ENDROOT
BRANCH   1   2
ATOM      2  C   UNL     1       8.041  -1.254  -2.754  1.00  0.00     0.130 C 
ATOM      3  C   UNL     1       9.115  -2.243  -3.034  1.00  0.00     0.087 C 
ATOM      4  O   UNL     1       6.906  -1.680  -2.613  1.00  0.00    -0.300 OA
ENDBRANCH   1   2
BRANCH   1   5
ATOM      5  C   UNL     1       8.855   0.562  -1.271  1.00  0.00     0.043 C 
BRANCH   5   6
ATOM      6  C   UNL     1       7.816   0.419  -0.235  1.00  0.00    -0.044 A 
ATOM      7  C   UNL     1       7.917  -0.545   0.775  1.00  0.00     0.008 A 
ATOM      8  C   UNL     1       6.718   1.249  -0.251  1.00  0.00     0.054 A 
ATOM      9  C   UNL     1       6.912  -0.632   1.721  1.00  0.00     0.051 A 
ATOM     10  C   UNL     1       5.705   1.157   0.709  1.00  0.00     0.166 A 
ATOM     11  C   UNL     1       5.803   0.208   1.702  1.00  0.00     0.165 A 
ATOM     12  O   UNL     1       4.532   1.854   0.906  1.00  0.00    -0.454 OA
ATOM     13  O   UNL     1       4.676   0.345   2.498  1.00  0.00    -0.454 OA
ATOM     14  C   UNL     1       3.889   1.435   2.083  1.00  0.00     0.468 C 
ENDBRANCH   5   6
ENDBRANCH   1   5
TORSDOF 3
ENDMDL
