@<TRIPOS>MOLECULE
/home/cewinharhar/GITHUB/reincatalyze/data/processed/docking_pred/2023-May-23-1437_sub9_nm5_bs15_s42_ex16_mel10_mts10000_k50_ec02_g099_lra3e-4_lrc1e-3/af895cae38f50b8ad608cacdd29f7ae1ddca485c_ligand_9.pdbqt
 14 15 0 0 0
SMALL
GASTEIGER

@<TRIPOS>ATOM
      1  C          5.4020   -0.0610    1.9840 C.3     1  UNL1        0.0800
      2  C          4.5670    1.1470    1.7300 C.2     1  UNL1        0.1300
      3  C          4.8990    2.1110    0.6480 C.3     1  UNL1        0.0870
      4  O          3.5810    1.3810    2.4090 O.2     1  UNL1       -0.3000
      5  C          6.8470    0.1760    1.5910 C.3     1  UNL1        0.0430
      6  C          7.2830   -0.7490    0.5300 C.2     1  UNL1       -0.0440
      7  C          7.1560   -0.4210   -0.8250 C.2     1  UNL1        0.0080
      8  C          7.8320   -1.9650    0.8670 C.2     1  UNL1        0.0540
      9  C          7.5830   -1.3280   -1.7780 C.2     1  UNL1        0.0510
     10  C          8.2630   -2.8780   -0.1000 C.2     1  UNL1        0.1660
     11  C          8.1370   -2.5570   -1.4330 C.2     1  UNL1        0.1650
     12  O          8.8330   -4.1310   -0.0210 O.2     1  UNL1       -0.4540
     13  O          8.6380   -3.6310   -2.1530 O.2     1  UNL1       -0.4540
     14  C          9.1730   -4.6120   -1.2960 C.3     1  UNL1        0.4680
@<TRIPOS>BOND
     1    13    11    1
     2    13    14    1
     3     9    11    2
     4     9     7    1
     5    11    10    1
     6    14    12    1
     7     7     6    2
     8    10    12    1
     9    10     8    2
    10     6     8    1
    11     6     5    1
    12     3     2    1
    13     5     1    1
    14     2     1    1
    15     2     4    2
