MODEL 1
REMARK VINA RESULT:      -7.7      0.000      0.000
REMARK SMILES CC(=O)CCc1ccc2c(c1)OCO2
REMARK SMILES IDX 4 1 2 2 1 3 3 4 5 5 6 6 7 7 11 8 8 9 10 10 9 11 12 12 14 13
REMARK SMILES IDX 13 14
REMARK H PARENT
REMARK Flexibility Score: inf
ROOT
ATOM      1  C   UNL     1       5.517   1.897   1.291  1.00  0.00     0.080 C 
ENDROOT
BRANCH   1   2
ATOM      2  C   UNL     1       5.028   0.684   2.005  1.00  0.00     0.130 C 
ATOM      3  C   UNL     1       5.855  -0.548   2.108  1.00  0.00     0.087 C 
ATOM      4  O   UNL     1       3.926   0.668   2.529  1.00  0.00    -0.300 OA
ENDBRANCH   1   2
BRANCH   1   5
ATOM      5  C   UNL     1       5.397   1.736  -0.212  1.00  0.00     0.043 C 
BRANCH   5   6
ATOM      6  C   UNL     1       6.563   1.037  -0.782  1.00  0.00    -0.044 A 
ATOM      7  C   UNL     1       7.871   1.475  -0.540  1.00  0.00     0.008 A 
ATOM      8  C   UNL     1       6.374  -0.075  -1.570  1.00  0.00     0.054 A 
ATOM      9  C   UNL     1       8.926   0.779  -1.100  1.00  0.00     0.051 A 
ATOM     10  C   UNL     1       7.444  -0.776  -2.134  1.00  0.00     0.166 A 
ATOM     11  C   UNL     1       8.731  -0.345  -1.897  1.00  0.00     0.165 A 
ATOM     12  O   UNL     1       7.516  -1.892  -2.940  1.00  0.00    -0.454 OA
ATOM     13  O   UNL     1       9.575  -1.215  -2.569  1.00  0.00    -0.454 OA
ATOM     14  C   UNL     1       8.851  -2.263  -3.169  1.00  0.00     0.468 C 
ENDBRANCH   5   6
ENDBRANCH   1   5
TORSDOF 3
ENDMDL
MODEL 2
REMARK VINA RESULT:      -7.5      1.935      2.418
REMARK SMILES CC(=O)CCc1ccc2c(c1)OCO2
REMARK SMILES IDX 4 1 2 2 1 3 3 4 5 5 6 6 7 7 11 8 8 9 10 10 9 11 12 12 14 13
REMARK SMILES IDX 13 14
REMARK H PARENT
REMARK Flexibility Score: inf
ROOT
ATOM      1  C   UNL     1       5.761   1.344  -0.343  1.00  0.00     0.080 C 
ENDROOT
BRANCH   1   2
ATOM      2  C   UNL     1       5.157   1.257   1.016  1.00  0.00     0.130 C 
ATOM      3  C   UNL     1       5.398   0.089   1.905  1.00  0.00     0.087 C 
ATOM      4  O   UNL     1       4.442   2.150   1.442  1.00  0.00    -0.300 OA
ENDBRANCH   1   2
BRANCH   1   5
ATOM      5  C   UNL     1       7.256   1.102  -0.297  1.00  0.00     0.043 C 
BRANCH   5   6
ATOM      6  C   UNL     1       7.618  -0.198  -0.889  1.00  0.00    -0.044 A 
ATOM      7  C   UNL     1       7.660  -0.386  -2.275  1.00  0.00     0.008 A 
ATOM      8  C   UNL     1       7.927  -1.259  -0.068  1.00  0.00     0.054 A 
ATOM      9  C   UNL     1       8.007  -1.628  -2.773  1.00  0.00     0.051 A 
ATOM     10  C   UNL     1       8.279  -2.513  -0.577  1.00  0.00     0.166 A 
ATOM     11  C   UNL     1       8.319  -2.699  -1.941  1.00  0.00     0.165 A 
ATOM     12  O   UNL     1       8.622  -3.707   0.021  1.00  0.00    -0.454 OA
ATOM     13  O   UNL     1       8.691  -4.017  -2.155  1.00  0.00    -0.454 OA
ATOM     14  C   UNL     1       8.982  -4.666  -0.940  1.00  0.00     0.468 C 
ENDBRANCH   5   6
ENDBRANCH   1   5
TORSDOF 3
ENDMDL
MODEL 3
REMARK VINA RESULT:      -7.2      2.072      2.636
REMARK SMILES CC(=O)CCc1ccc2c(c1)OCO2
REMARK SMILES IDX 4 1 2 2 1 3 3 4 5 5 6 6 7 7 11 8 8 9 10 10 9 11 12 12 14 13
REMARK SMILES IDX 13 14
REMARK H PARENT
REMARK Flexibility Score: inf
ROOT
ATOM      1  C   UNL     1       5.402  -0.061   1.984  1.00  0.00     0.080 C 
ENDROOT
BRANCH   1   2
ATOM      2  C   UNL     1       4.567   1.147   1.730  1.00  0.00     0.130 C 
ATOM      3  C   UNL     1       4.899   2.111   0.648  1.00  0.00     0.087 C 
ATOM      4  O   UNL     1       3.581   1.381   2.409  1.00  0.00    -0.300 OA
ENDBRANCH   1   2
BRANCH   1   5
ATOM      5  C   UNL     1       6.847   0.176   1.591  1.00  0.00     0.043 C 
BRANCH   5   6
ATOM      6  C   UNL     1       7.283  -0.749   0.530  1.00  0.00    -0.044 A 
ATOM      7  C   UNL     1       7.156  -0.421  -0.825  1.00  0.00     0.008 A 
ATOM      8  C   UNL     1       7.832  -1.965   0.867  1.00  0.00     0.054 A 
ATOM      9  C   UNL     1       7.583  -1.328  -1.778  1.00  0.00     0.051 A 
ATOM     10  C   UNL     1       8.263  -2.878  -0.100  1.00  0.00     0.166 A 
ATOM     11  C   UNL     1       8.137  -2.557  -1.433  1.00  0.00     0.165 A 
ATOM     12  O   UNL     1       8.833  -4.131  -0.021  1.00  0.00    -0.454 OA
ATOM     13  O   UNL     1       8.638  -3.631  -2.153  1.00  0.00    -0.454 OA
ATOM     14  C   UNL     1       9.173  -4.612  -1.296  1.00  0.00     0.468 C 
ENDBRANCH   5   6
ENDBRANCH   1   5
TORSDOF 3
ENDMDL
MODEL 4
REMARK VINA RESULT:      -7.1      1.250      1.454
REMARK SMILES CC(=O)CCc1ccc2c(c1)OCO2
REMARK SMILES IDX 4 1 2 2 1 3 3 4 5 5 6 6 7 7 11 8 8 9 10 10 9 11 12 12 14 13
REMARK SMILES IDX 13 14
REMARK H PARENT
REMARK Flexibility Score: inf
ROOT
ATOM      1  C   UNL     1       6.341   1.251   0.865  1.00  0.00     0.080 C 
ENDROOT
BRANCH   1   2
ATOM      2  C   UNL     1       5.661   0.439   1.913  1.00  0.00     0.130 C 
ATOM      3  C   UNL     1       6.286  -0.786   2.479  1.00  0.00     0.087 C 
ATOM      4  O   UNL     1       4.563   0.759   2.339  1.00  0.00    -0.300 OA
ENDBRANCH   1   2
BRANCH   1   5
ATOM      5  C   UNL     1       5.829   0.904  -0.518  1.00  0.00     0.043 C 
BRANCH   5   6
ATOM      6  C   UNL     1       6.803   0.097  -1.275  1.00  0.00    -0.044 A 
ATOM      7  C   UNL     1       7.527   0.635  -2.344  1.00  0.00     0.008 A 
ATOM      8  C   UNL     1       7.014  -1.218  -0.928  1.00  0.00     0.054 A 
ATOM      9  C   UNL     1       8.428  -0.170  -3.017  1.00  0.00     0.051 A 
ATOM     10  C   UNL     1       7.927  -2.028  -1.611  1.00  0.00     0.166 A 
ATOM     11  C   UNL     1       8.640  -1.499  -2.664  1.00  0.00     0.165 A 
ATOM     12  O   UNL     1       8.311  -3.343  -1.462  1.00  0.00    -0.454 OA
ATOM     13  O   UNL     1       9.455  -2.512  -3.144  1.00  0.00    -0.454 OA
ATOM     14  C   UNL     1       9.345  -3.671  -2.354  1.00  0.00     0.468 C 
ENDBRANCH   5   6
ENDBRANCH   1   5
TORSDOF 3
ENDMDL
MODEL 5
REMARK VINA RESULT:      -7.1      2.018      2.579
REMARK SMILES CC(=O)CCc1ccc2c(c1)OCO2
REMARK SMILES IDX 4 1 2 2 1 3 3 4 5 5 6 6 7 7 11 8 8 9 10 10 9 11 12 12 14 13
REMARK SMILES IDX 13 14
REMARK H PARENT
REMARK Flexibility Score: inf
ROOT
ATOM      1  C   UNL     1       6.669   0.524   1.390  1.00  0.00     0.080 C 
ENDROOT
BRANCH   1   2
ATOM      2  C   UNL     1       5.289   1.080   1.480  1.00  0.00     0.130 C 
ATOM      3  C   UNL     1       4.817   2.149   0.561  1.00  0.00     0.087 C 
ATOM      4  O   UNL     1       4.502   0.670   2.318  1.00  0.00    -0.300 OA
ENDBRANCH   1   2
BRANCH   1   5
ATOM      5  C   UNL     1       7.291   0.813   0.038  1.00  0.00     0.043 C 
BRANCH   5   6
ATOM      6  C   UNL     1       7.696  -0.424  -0.653  1.00  0.00    -0.044 A 
ATOM      7  C   UNL     1       7.837  -0.474  -2.044  1.00  0.00     0.008 A 
ATOM      8  C   UNL     1       7.945  -1.563   0.078  1.00  0.00     0.054 A 
ATOM      9  C   UNL     1       8.220  -1.663  -2.638  1.00  0.00     0.051 A 
ATOM     10  C   UNL     1       8.333  -2.763  -0.527  1.00  0.00     0.166 A 
ATOM     11  C   UNL     1       8.471  -2.813  -1.896  1.00  0.00     0.165 A 
ATOM     12  O   UNL     1       8.633  -4.012  -0.028  1.00  0.00    -0.454 OA
ATOM     13  O   UNL     1       8.859  -4.106  -2.212  1.00  0.00    -0.454 OA
ATOM     14  C   UNL     1       9.061  -4.874  -1.051  1.00  0.00     0.468 C 
ENDBRANCH   5   6
ENDBRANCH   1   5
TORSDOF 3
ENDMDL
