@<TRIPOS>MOLECULE
/home/cewinharhar/GITHUB/reincatalyze/data/processed/docking_pred/2023-May-23-1437_sub9_nm5_bs15_s42_ex16_mel10_mts10000_k50_ec02_g099_lra3e-4_lrc1e-3/af9628f04dddfdfce7c60ac864c84e5664a7a69f_ligand_9.pdbqt
 14 15 0 0 0
SMALL
GASTEIGER

@<TRIPOS>ATOM
      1  C          5.5160    1.9130    1.2670 C.3     1  UNL1        0.0800
      2  C          5.0620    0.6970    1.9980 C.2     1  UNL1        0.1300
      3  C          5.9350   -0.4990    2.1430 C.3     1  UNL1        0.0870
      4  O          3.9520    0.6470    2.5030 O.2     1  UNL1       -0.3000
      5  C          5.3930    1.7310   -0.2330 C.3     1  UNL1        0.0430
      6  C          6.5600    1.0300   -0.7960 C.2     1  UNL1       -0.0440
      7  C          7.8670    1.4670   -0.5490 C.2     1  UNL1        0.0080
      8  C          6.3730   -0.0830   -1.5840 C.2     1  UNL1        0.0540
      9  C          8.9240    0.7690   -1.1040 C.2     1  UNL1        0.0510
     10  C          7.4450   -0.7860   -2.1420 C.2     1  UNL1        0.1660
     11  C          8.7310   -0.3560   -1.9000 C.2     1  UNL1        0.1650
     12  O          7.5190   -1.9030   -2.9470 O.2     1  UNL1       -0.4540
     13  O          9.5770   -1.2280   -2.5680 O.2     1  UNL1       -0.4540
     14  C          8.8550   -2.2760   -3.1690 C.3     1  UNL1        0.4680
@<TRIPOS>BOND
     1    14    12    1
     2    14    13    1
     3    12    10    1
     4    13    11    1
     5    10    11    2
     6    10     8    1
     7    11     9    1
     8     8     6    2
     9     9     7    2
    10     6     7    1
    11     6     5    1
    12     5     1    1
    13     1     2    1
    14     2     3    1
    15     2     4    2
