@<TRIPOS>MOLECULE
/home/cewinharhar/GITHUB/reincatalyze/data/processed/docking_pred/2023-May-23-1437_sub9_nm5_bs15_s42_ex16_mel10_mts10000_k50_ec02_g099_lra3e-4_lrc1e-3/b0253e2818c1de1129519fa2afa58b59888d8d60_ligand_9.pdbqt
 14 15 0 0 0
SMALL
GASTEIGER

@<TRIPOS>ATOM
      1  C          6.3690    1.1550    0.9590 C.3     1  UNL1        0.0800
      2  C          5.6320    0.3370    1.9620 C.2     1  UNL1        0.1300
      3  C          6.2140   -0.9070    2.5330 C.3     1  UNL1        0.0870
      4  O          4.5220    0.6660    2.3460 O.2     1  UNL1       -0.3000
      5  C          5.8610    0.8930   -0.4450 C.3     1  UNL1        0.0430
      6  C          6.8080    0.0790   -1.2260 C.2     1  UNL1       -0.0440
      7  C          7.4750    0.5980   -2.3420 C.2     1  UNL1        0.0080
      8  C          7.0530   -1.2250   -0.8570 C.2     1  UNL1        0.0540
      9  C          8.3540   -0.2130   -3.0360 C.2     1  UNL1        0.0510
     10  C          7.9430   -2.0410   -1.5620 C.2     1  UNL1        0.1660
     11  C          8.5990   -1.5310   -2.6600 C.2     1  UNL1        0.1650
     12  O          8.3500   -3.3480   -1.3990 O.2     1  UNL1       -0.4540
     13  O          9.4040   -2.5460   -3.1530 O.2     1  UNL1       -0.4540
     14  C          9.3460   -3.6860   -2.3300 C.3     1  UNL1        0.4680
@<TRIPOS>BOND
     1    13    11    1
     2    13    14    1
     3     9    11    2
     4     9     7    1
     5    11    10    1
     6     7     6    2
     7    14    12    1
     8    10    12    1
     9    10     8    2
    10     6     8    1
    11     6     5    1
    12     5     1    1
    13     1     2    1
    14     2     4    2
    15     2     3    1
