@<TRIPOS>MOLECULE
/home/cewinharhar/GITHUB/reincatalyze/data/processed/docking_pred/2023-May-23-1437_sub9_nm5_bs15_s42_ex16_mel10_mts10000_k50_ec02_g099_lra3e-4_lrc1e-3/b1cc709a4c09585943c6b669d8b61c6b26bf0288_ligand_9.pdbqt
 14 15 0 0 0
SMALL
GASTEIGER

@<TRIPOS>ATOM
      1  C          5.6820    1.3290   -0.2940 C.3     1  UNL1        0.0800
      2  C          5.0630    1.2580    1.0600 C.2     1  UNL1        0.1300
      3  C          5.3320    0.1230    1.9820 C.3     1  UNL1        0.0870
      4  O          4.3120    2.1360    1.4520 O.2     1  UNL1       -0.3000
      5  C          7.1790    1.1040   -0.2270 C.3     1  UNL1        0.0430
      6  C          7.5670   -0.1820   -0.8330 C.2     1  UNL1       -0.0440
      7  C          7.6340   -0.3470   -2.2220 C.2     1  UNL1        0.0080
      8  C          7.8740   -1.2520   -0.0250 C.2     1  UNL1        0.0540
      9  C          8.0040   -1.5770   -2.7340 C.2     1  UNL1        0.0510
     10  C          8.2490   -2.4940   -0.5480 C.2     1  UNL1        0.1660
     11  C          8.3140   -2.6570   -1.9140 C.2     1  UNL1        0.1650
     12  O          8.5960   -3.6930    0.0360 O.2     1  UNL1       -0.4540
     13  O          8.7050   -3.9670   -2.1420 O.2     1  UNL1       -0.4540
     14  C          8.9830   -4.6330   -0.9340 C.3     1  UNL1        0.4680
@<TRIPOS>BOND
     1     9     7    1
     2     9    11    2
     3     7     6    2
     4    13    11    1
     5    13    14    1
     6    11    10    1
     7    14    12    1
     8     6     5    1
     9     6     8    1
    10    10     8    2
    11    10    12    1
    12     1     5    1
    13     1     2    1
    14     2     4    2
    15     2     3    1
