MODEL 1
REMARK VINA RESULT:      -7.7      0.000      0.000
REMARK SMILES CC(=O)CCc1ccc2c(c1)OCO2
REMARK SMILES IDX 4 1 2 2 1 3 3 4 5 5 6 6 7 7 11 8 8 9 10 10 9 11 12 12 14 13
REMARK SMILES IDX 13 14
REMARK H PARENT
REMARK Flexibility Score: inf
ROOT
ATOM      1  C   UNL     1       5.509   1.926   1.249  1.00  0.00     0.080 C 
ENDROOT
BRANCH   1   2
ATOM      2  C   UNL     1       5.026   0.727   1.990  1.00  0.00     0.130 C 
ATOM      3  C   UNL     1       5.856  -0.500   2.116  1.00  0.00     0.087 C 
ATOM      4  O   UNL     1       3.925   0.718   2.518  1.00  0.00    -0.300 OA
ENDBRANCH   1   2
BRANCH   1   5
ATOM      5  C   UNL     1       5.390   1.731  -0.249  1.00  0.00     0.043 C 
BRANCH   5   6
ATOM      6  C   UNL     1       6.562   1.030  -0.804  1.00  0.00    -0.044 A 
ATOM      7  C   UNL     1       7.867   1.460  -0.540  1.00  0.00     0.008 A 
ATOM      8  C   UNL     1       6.379  -0.078  -1.600  1.00  0.00     0.054 A 
ATOM      9  C   UNL     1       8.928   0.762  -1.087  1.00  0.00     0.051 A 
ATOM     10  C   UNL     1       7.455  -0.781  -2.151  1.00  0.00     0.166 A 
ATOM     11  C   UNL     1       8.740  -0.358  -1.893  1.00  0.00     0.165 A 
ATOM     12  O   UNL     1       7.534  -1.894  -2.962  1.00  0.00    -0.454 OA
ATOM     13  O   UNL     1       9.590  -1.229  -2.556  1.00  0.00    -0.454 OA
ATOM     14  C   UNL     1       8.871  -2.271  -3.171  1.00  0.00     0.468 C 
ENDBRANCH   5   6
ENDBRANCH   1   5
TORSDOF 3
ENDMDL
MODEL 2
REMARK VINA RESULT:      -7.5      1.932      2.379
REMARK SMILES CC(=O)CCc1ccc2c(c1)OCO2
REMARK SMILES IDX 4 1 2 2 1 3 3 4 5 5 6 6 7 7 11 8 8 9 10 10 9 11 12 12 14 13
REMARK SMILES IDX 13 14
REMARK H PARENT
REMARK Flexibility Score: inf
ROOT
ATOM      1  C   UNL     1       5.682   1.329  -0.294  1.00  0.00     0.080 C 
ENDROOT
BRANCH   1   2
ATOM      2  C   UNL     1       5.063   1.258   1.060  1.00  0.00     0.130 C 
ATOM      3  C   UNL     1       5.332   0.123   1.982  1.00  0.00     0.087 C 
ATOM      4  O   UNL     1       4.312   2.136   1.452  1.00  0.00    -0.300 OA
ENDBRANCH   1   2
BRANCH   1   5
ATOM      5  C   UNL     1       7.179   1.104  -0.227  1.00  0.00     0.043 C 
BRANCH   5   6
ATOM      6  C   UNL     1       7.567  -0.182  -0.833  1.00  0.00    -0.044 A 
ATOM      7  C   UNL     1       7.634  -0.347  -2.222  1.00  0.00     0.008 A 
ATOM      8  C   UNL     1       7.874  -1.252  -0.025  1.00  0.00     0.054 A 
ATOM      9  C   UNL     1       8.004  -1.577  -2.734  1.00  0.00     0.051 A 
ATOM     10  C   UNL     1       8.249  -2.494  -0.548  1.00  0.00     0.166 A 
ATOM     11  C   UNL     1       8.314  -2.657  -1.914  1.00  0.00     0.165 A 
ATOM     12  O   UNL     1       8.596  -3.693   0.036  1.00  0.00    -0.454 OA
ATOM     13  O   UNL     1       8.705  -3.967  -2.142  1.00  0.00    -0.454 OA
ATOM     14  C   UNL     1       8.983  -4.633  -0.934  1.00  0.00     0.468 C 
ENDBRANCH   5   6
ENDBRANCH   1   5
TORSDOF 3
ENDMDL
MODEL 3
REMARK VINA RESULT:      -7.2      2.068      2.625
REMARK SMILES CC(=O)CCc1ccc2c(c1)OCO2
REMARK SMILES IDX 4 1 2 2 1 3 3 4 5 5 6 6 7 7 11 8 8 9 10 10 9 11 12 12 14 13
REMARK SMILES IDX 13 14
REMARK H PARENT
REMARK Flexibility Score: inf
ROOT
ATOM      1  C   UNL     1       5.428  -0.038   1.997  1.00  0.00     0.080 C 
ENDROOT
BRANCH   1   2
ATOM      2  C   UNL     1       4.573   1.158   1.759  1.00  0.00     0.130 C 
ATOM      3  C   UNL     1       4.894   2.149   0.697  1.00  0.00     0.087 C 
ATOM      4  O   UNL     1       3.576   1.361   2.434  1.00  0.00    -0.300 OA
ENDBRANCH   1   2
BRANCH   1   5
ATOM      5  C   UNL     1       6.860   0.215   1.570  1.00  0.00     0.043 C 
BRANCH   5   6
ATOM      6  C   UNL     1       7.288  -0.720   0.514  1.00  0.00    -0.044 A 
ATOM      7  C   UNL     1       7.164  -0.400  -0.843  1.00  0.00     0.008 A 
ATOM      8  C   UNL     1       7.828  -1.938   0.859  1.00  0.00     0.054 A 
ATOM      9  C   UNL     1       7.584  -1.316  -1.789  1.00  0.00     0.051 A 
ATOM     10  C   UNL     1       8.252  -2.861  -0.102  1.00  0.00     0.166 A 
ATOM     11  C   UNL     1       8.128  -2.547  -1.437  1.00  0.00     0.165 A 
ATOM     12  O   UNL     1       8.811  -4.118  -0.015  1.00  0.00    -0.454 OA
ATOM     13  O   UNL     1       8.621  -3.629  -2.150  1.00  0.00    -0.454 OA
ATOM     14  C   UNL     1       9.147  -4.609  -1.287  1.00  0.00     0.468 C 
ENDBRANCH   5   6
ENDBRANCH   1   5
TORSDOF 3
ENDMDL
MODEL 4
REMARK VINA RESULT:      -7.1      1.272      1.486
REMARK SMILES CC(=O)CCc1ccc2c(c1)OCO2
REMARK SMILES IDX 4 1 2 2 1 3 3 4 5 5 6 6 7 7 11 8 8 9 10 10 9 11 12 12 14 13
REMARK SMILES IDX 13 14
REMARK H PARENT
REMARK Flexibility Score: inf
ROOT
ATOM      1  C   UNL     1       6.392   1.192   0.949  1.00  0.00     0.080 C 
ENDROOT
BRANCH   1   2
ATOM      2  C   UNL     1       5.655   0.376   1.953  1.00  0.00     0.130 C 
ATOM      3  C   UNL     1       6.247  -0.852   2.548  1.00  0.00     0.087 C 
ATOM      4  O   UNL     1       4.535   0.694   2.319  1.00  0.00    -0.300 OA
ENDBRANCH   1   2
BRANCH   1   5
ATOM      5  C   UNL     1       5.883   0.929  -0.455  1.00  0.00     0.043 C 
BRANCH   5   6
ATOM      6  C   UNL     1       6.822   0.099  -1.230  1.00  0.00    -0.044 A 
ATOM      7  C   UNL     1       7.494   0.603  -2.350  1.00  0.00     0.008 A 
ATOM      8  C   UNL     1       7.054  -1.204  -0.851  1.00  0.00     0.054 A 
ATOM      9  C   UNL     1       8.365  -0.222  -3.038  1.00  0.00     0.051 A 
ATOM     10  C   UNL     1       7.936  -2.034  -1.550  1.00  0.00     0.166 A 
ATOM     11  C   UNL     1       8.596  -1.539  -2.652  1.00  0.00     0.165 A 
ATOM     12  O   UNL     1       8.330  -3.344  -1.377  1.00  0.00    -0.454 OA
ATOM     13  O   UNL     1       9.391  -2.565  -3.138  1.00  0.00    -0.454 OA
ATOM     14  C   UNL     1       9.322  -3.699  -2.306  1.00  0.00     0.468 C 
ENDBRANCH   5   6
ENDBRANCH   1   5
TORSDOF 3
ENDMDL
MODEL 5
REMARK VINA RESULT:      -7.0      1.953      2.506
REMARK SMILES CC(=O)CCc1ccc2c(c1)OCO2
REMARK SMILES IDX 4 1 2 2 1 3 3 4 5 5 6 6 7 7 11 8 8 9 10 10 9 11 12 12 14 13
REMARK SMILES IDX 13 14
REMARK H PARENT
REMARK Flexibility Score: inf
ROOT
ATOM      1  C   UNL     1       6.909   0.950   1.182  1.00  0.00     0.080 C 
ENDROOT
BRANCH   1   2
ATOM      2  C   UNL     1       5.449   1.131   1.420  1.00  0.00     0.130 C 
ATOM      3  C   UNL     1       4.658   2.150   0.681  1.00  0.00     0.087 C 
ATOM      4  O   UNL     1       4.858   0.442   2.236  1.00  0.00    -0.300 OA
ENDBRANCH   1   2
BRANCH   1   5
ATOM      5  C   UNL     1       7.247   1.086  -0.289  1.00  0.00     0.043 C 
BRANCH   5   6
ATOM      6  C   UNL     1       7.628  -0.208  -0.883  1.00  0.00    -0.044 A 
ATOM      7  C   UNL     1       7.733  -0.376  -2.269  1.00  0.00     0.008 A 
ATOM      8  C   UNL     1       7.892  -1.283  -0.065  1.00  0.00     0.054 A 
ATOM      9  C   UNL     1       8.096  -1.613  -2.769  1.00  0.00     0.051 A 
ATOM     10  C   UNL     1       8.258  -2.532  -0.576  1.00  0.00     0.166 A 
ATOM     11  C   UNL     1       8.361  -2.698  -1.939  1.00  0.00     0.165 A 
ATOM     12  O   UNL     1       8.566  -3.737   0.019  1.00  0.00    -0.454 OA
ATOM     13  O   UNL     1       8.735  -4.015  -2.155  1.00  0.00    -0.454 OA
ATOM     14  C   UNL     1       8.964  -4.685  -0.939  1.00  0.00     0.468 C 
ENDBRANCH   5   6
ENDBRANCH   1   5
TORSDOF 3
ENDMDL
