@<TRIPOS>MOLECULE
/home/cewinharhar/GITHUB/reincatalyze/data/processed/docking_pred/2023-May-23-1437_sub9_nm5_bs15_s42_ex16_mel10_mts10000_k50_ec02_g099_lra3e-4_lrc1e-3/b1cc709a4c09585943c6b669d8b61c6b26bf0288_ligand_9.pdbqt
 14 15 0 0 0
SMALL
GASTEIGER

@<TRIPOS>ATOM
      1  C          5.4280   -0.0380    1.9970 C.3     1  UNL1        0.0800
      2  C          4.5730    1.1580    1.7590 C.2     1  UNL1        0.1300
      3  C          4.8940    2.1490    0.6970 C.3     1  UNL1        0.0870
      4  O          3.5760    1.3610    2.4340 O.2     1  UNL1       -0.3000
      5  C          6.8600    0.2150    1.5700 C.3     1  UNL1        0.0430
      6  C          7.2880   -0.7200    0.5140 C.2     1  UNL1       -0.0440
      7  C          7.1640   -0.4000   -0.8430 C.2     1  UNL1        0.0080
      8  C          7.8280   -1.9380    0.8590 C.2     1  UNL1        0.0540
      9  C          7.5840   -1.3160   -1.7890 C.2     1  UNL1        0.0510
     10  C          8.2520   -2.8610   -0.1020 C.2     1  UNL1        0.1660
     11  C          8.1280   -2.5470   -1.4370 C.2     1  UNL1        0.1650
     12  O          8.8110   -4.1180   -0.0150 O.2     1  UNL1       -0.4540
     13  O          8.6210   -3.6290   -2.1500 O.2     1  UNL1       -0.4540
     14  C          9.1470   -4.6090   -1.2870 C.3     1  UNL1        0.4680
@<TRIPOS>BOND
     1    13    11    1
     2    13    14    1
     3     9    11    2
     4     9     7    1
     5    11    10    1
     6    14    12    1
     7     7     6    2
     8    10    12    1
     9    10     8    2
    10     6     8    1
    11     6     5    1
    12     3     2    1
    13     5     1    1
    14     2     1    1
    15     2     4    2
