@<TRIPOS>MOLECULE
/home/cewinharhar/GITHUB/reincatalyze/data/processed/docking_pred/2023-May-23-1437_sub9_nm5_bs15_s42_ex16_mel10_mts10000_k50_ec02_g099_lra3e-4_lrc1e-3/b25c452ec0c0b8d96fec3e0f7bbac0cc4967bb63_ligand_9.pdbqt
 14 15 0 0 0
SMALL
GASTEIGER

@<TRIPOS>ATOM
      1  C          5.5500    1.8820    1.3020 C.3     1  UNL1        0.0800
      2  C          5.0630    0.6670    2.0130 C.2     1  UNL1        0.1300
      3  C          5.9050   -0.5530    2.1410 C.3     1  UNL1        0.0870
      4  O          3.9500    0.6370    2.5130 O.2     1  UNL1       -0.3000
      5  C          5.4240    1.7290   -0.2000 C.3     1  UNL1        0.0430
      6  C          6.5850    1.0290   -0.7780 C.2     1  UNL1       -0.0440
      7  C          7.8950    1.4540   -0.5310 C.2     1  UNL1        0.0080
      8  C          6.3870   -0.0730   -1.5790 C.2     1  UNL1        0.0540
      9  C          8.9450    0.7560   -1.0990 C.2     1  UNL1        0.0510
     10  C          7.4520   -0.7750   -2.1510 C.2     1  UNL1        0.1660
     11  C          8.7420   -0.3570   -1.9090 C.2     1  UNL1        0.1650
     12  O          7.5160   -1.8810   -2.9710 O.2     1  UNL1       -0.4540
     13  O          9.5790   -1.2250   -2.5920 O.2     1  UNL1       -0.4540
     14  C          8.8480   -2.2600   -3.2040 C.3     1  UNL1        0.4680
@<TRIPOS>BOND
     1    14    12    1
     2    14    13    1
     3    12    10    1
     4    13    11    1
     5    10    11    2
     6    10     8    1
     7    11     9    1
     8     8     6    2
     9     9     7    2
    10     6     7    1
    11     6     5    1
    12     5     1    1
    13     1     2    1
    14     2     3    1
    15     2     4    2
