@<TRIPOS>MOLECULE
/home/cewinharhar/GITHUB/reincatalyze/data/processed/docking_pred/2023-May-23-1437_sub9_nm5_bs15_s42_ex16_mel10_mts10000_k50_ec02_g099_lra3e-4_lrc1e-3/b25c452ec0c0b8d96fec3e0f7bbac0cc4967bb63_ligand_9.pdbqt
 14 15 0 0 0
SMALL
GASTEIGER

@<TRIPOS>ATOM
      1  C          8.5270    0.2470   -2.6270 C.3     1  UNL1        0.0800
      2  C          8.4790   -1.2340   -2.7750 C.2     1  UNL1        0.1300
      3  C          7.1880   -1.9680   -2.8670 C.3     1  UNL1        0.0870
      4  O          9.5050   -1.8930   -2.8240 O.2     1  UNL1       -0.3000
      5  C          8.9940    0.6470   -1.2420 C.3     1  UNL1        0.0430
      6  C          7.9330    0.4660   -0.2350 C.2     1  UNL1       -0.0440
      7  C          8.0070   -0.5410    0.7350 C.2     1  UNL1        0.0080
      8  C          6.8400    1.3030   -0.2360 C.2     1  UNL1        0.0540
      9  C          6.9820   -0.6630    1.6550 C.2     1  UNL1        0.0510
     10  C          5.8070    1.1760    0.6970 C.2     1  UNL1        0.1660
     11  C          5.8780    0.1840    1.6500 C.2     1  UNL1        0.1650
     12  O          4.6340    1.8710    0.9000 O.2     1  UNL1       -0.4540
     13  O          4.7360    0.2930    2.4270 O.2     1  UNL1       -0.4540
     14  C          3.9640    1.4060    2.0440 C.3     1  UNL1        0.4680
@<TRIPOS>BOND
     1     3     2    1
     2     4     2    2
     3     2     1    1
     4     1     5    1
     5     5     6    1
     6     8     6    2
     7     8    10    1
     8     6     7    1
     9    10    12    1
    10    10    11    2
    11     7     9    2
    12    12    14    1
    13    11     9    1
    14    11    13    1
    15    14    13    1
