MODEL 1
REMARK VINA RESULT:      -7.7      0.000      0.000
REMARK SMILES CC(=O)CCc1ccc2c(c1)OCO2
REMARK SMILES IDX 4 1 2 2 1 3 3 4 5 5 6 6 7 7 11 8 8 9 10 10 9 11 12 12 14 13
REMARK SMILES IDX 13 14
REMARK H PARENT
REMARK Flexibility Score: inf
ROOT
ATOM      1  C   UNL     1       5.550   1.882   1.302  1.00  0.00     0.080 C 
ENDROOT
BRANCH   1   2
ATOM      2  C   UNL     1       5.063   0.667   2.013  1.00  0.00     0.130 C 
ATOM      3  C   UNL     1       5.905  -0.553   2.141  1.00  0.00     0.087 C 
ATOM      4  O   UNL     1       3.950   0.637   2.513  1.00  0.00    -0.300 OA
ENDBRANCH   1   2
BRANCH   1   5
ATOM      5  C   UNL     1       5.424   1.729  -0.200  1.00  0.00     0.043 C 
BRANCH   5   6
ATOM      6  C   UNL     1       6.585   1.029  -0.778  1.00  0.00    -0.044 A 
ATOM      7  C   UNL     1       7.895   1.454  -0.531  1.00  0.00     0.008 A 
ATOM      8  C   UNL     1       6.387  -0.073  -1.579  1.00  0.00     0.054 A 
ATOM      9  C   UNL     1       8.945   0.756  -1.099  1.00  0.00     0.051 A 
ATOM     10  C   UNL     1       7.452  -0.775  -2.151  1.00  0.00     0.166 A 
ATOM     11  C   UNL     1       8.742  -0.357  -1.909  1.00  0.00     0.165 A 
ATOM     12  O   UNL     1       7.516  -1.881  -2.971  1.00  0.00    -0.454 OA
ATOM     13  O   UNL     1       9.579  -1.225  -2.592  1.00  0.00    -0.454 OA
ATOM     14  C   UNL     1       8.848  -2.260  -3.204  1.00  0.00     0.468 C 
ENDBRANCH   5   6
ENDBRANCH   1   5
TORSDOF 3
ENDMDL
MODEL 2
REMARK VINA RESULT:      -7.5      1.979      2.437
REMARK SMILES CC(=O)CCc1ccc2c(c1)OCO2
REMARK SMILES IDX 4 1 2 2 1 3 3 4 5 5 6 6 7 7 11 8 8 9 10 10 9 11 12 12 14 13
REMARK SMILES IDX 13 14
REMARK H PARENT
REMARK Flexibility Score: inf
ROOT
ATOM      1  C   UNL     1       5.738   1.275  -0.271  1.00  0.00     0.080 C 
ENDROOT
BRANCH   1   2
ATOM      2  C   UNL     1       5.180   1.239   1.110  1.00  0.00     0.130 C 
ATOM      3  C   UNL     1       5.446   0.102   2.031  1.00  0.00     0.087 C 
ATOM      4  O   UNL     1       4.483   2.150   1.528  1.00  0.00    -0.300 OA
ENDBRANCH   1   2
BRANCH   1   5
ATOM      5  C   UNL     1       7.240   1.068  -0.263  1.00  0.00     0.043 C 
BRANCH   5   6
ATOM      6  C   UNL     1       7.615  -0.231  -0.849  1.00  0.00    -0.044 A 
ATOM      7  C   UNL     1       7.678  -0.420  -2.235  1.00  0.00     0.008 A 
ATOM      8  C   UNL     1       7.916  -1.291  -0.024  1.00  0.00     0.054 A 
ATOM      9  C   UNL     1       8.037  -1.661  -2.728  1.00  0.00     0.051 A 
ATOM     10  C   UNL     1       8.279  -2.544  -0.527  1.00  0.00     0.166 A 
ATOM     11  C   UNL     1       8.340  -2.730  -1.890  1.00  0.00     0.165 A 
ATOM     12  O   UNL     1       8.619  -3.736   0.076  1.00  0.00    -0.454 OA
ATOM     13  O   UNL     1       8.720  -4.047  -2.098  1.00  0.00    -0.454 OA
ATOM     14  C   UNL     1       8.996  -4.695  -0.879  1.00  0.00     0.468 C 
ENDBRANCH   5   6
ENDBRANCH   1   5
TORSDOF 3
ENDMDL
MODEL 3
REMARK VINA RESULT:      -7.3      2.089      2.638
REMARK SMILES CC(=O)CCc1ccc2c(c1)OCO2
REMARK SMILES IDX 4 1 2 2 1 3 3 4 5 5 6 6 7 7 11 8 8 9 10 10 9 11 12 12 14 13
REMARK SMILES IDX 13 14
REMARK H PARENT
REMARK Flexibility Score: inf
ROOT
ATOM      1  C   UNL     1       5.441  -0.039   1.984  1.00  0.00     0.080 C 
ENDROOT
BRANCH   1   2
ATOM      2  C   UNL     1       4.587   1.151   1.711  1.00  0.00     0.130 C 
ATOM      3  C   UNL     1       4.909   2.109   0.619  1.00  0.00     0.087 C 
ATOM      4  O   UNL     1       3.593   1.375   2.381  1.00  0.00    -0.300 OA
ENDBRANCH   1   2
BRANCH   1   5
ATOM      5  C   UNL     1       6.876   0.205   1.563  1.00  0.00     0.043 C 
BRANCH   5   6
ATOM      6  C   UNL     1       7.304  -0.731   0.508  1.00  0.00    -0.044 A 
ATOM      7  C   UNL     1       7.184  -0.411  -0.849  1.00  0.00     0.008 A 
ATOM      8  C   UNL     1       7.837  -1.952   0.855  1.00  0.00     0.054 A 
ATOM      9  C   UNL     1       7.602  -1.329  -1.795  1.00  0.00     0.051 A 
ATOM     10  C   UNL     1       8.259  -2.877  -0.105  1.00  0.00     0.166 A 
ATOM     11  C   UNL     1       8.141  -2.563  -1.441  1.00  0.00     0.165 A 
ATOM     12  O   UNL     1       8.813  -4.136  -0.017  1.00  0.00    -0.454 OA
ATOM     13  O   UNL     1       8.630  -3.647  -2.152  1.00  0.00    -0.454 OA
ATOM     14  C   UNL     1       9.150  -4.629  -1.288  1.00  0.00     0.468 C 
ENDBRANCH   5   6
ENDBRANCH   1   5
TORSDOF 3
ENDMDL
MODEL 4
REMARK VINA RESULT:      -7.1      1.265      1.479
REMARK SMILES CC(=O)CCc1ccc2c(c1)OCO2
REMARK SMILES IDX 4 1 2 2 1 3 3 4 5 5 6 6 7 7 11 8 8 9 10 10 9 11 12 12 14 13
REMARK SMILES IDX 13 14
REMARK H PARENT
REMARK Flexibility Score: inf
ROOT
ATOM      1  C   UNL     1       6.390   1.215   0.922  1.00  0.00     0.080 C 
ENDROOT
BRANCH   1   2
ATOM      2  C   UNL     1       5.662   0.394   1.930  1.00  0.00     0.130 C 
ATOM      3  C   UNL     1       6.266  -0.828   2.524  1.00  0.00     0.087 C 
ATOM      4  O   UNL     1       4.541   0.704   2.298  1.00  0.00    -0.300 OA
ENDBRANCH   1   2
BRANCH   1   5
ATOM      5  C   UNL     1       5.888   0.937  -0.481  1.00  0.00     0.043 C 
BRANCH   5   6
ATOM      6  C   UNL     1       6.833   0.104  -1.245  1.00  0.00    -0.044 A 
ATOM      7  C   UNL     1       7.526   0.608  -2.352  1.00  0.00     0.008 A 
ATOM      8  C   UNL     1       7.050  -1.202  -0.868  1.00  0.00     0.054 A 
ATOM      9  C   UNL     1       8.401  -0.221  -3.030  1.00  0.00     0.051 A 
ATOM     10  C   UNL     1       7.937  -2.036  -1.556  1.00  0.00     0.166 A 
ATOM     11  C   UNL     1       8.618  -1.541  -2.646  1.00  0.00     0.165 A 
ATOM     12  O   UNL     1       8.319  -3.349  -1.382  1.00  0.00    -0.454 OA
ATOM     13  O   UNL     1       9.413  -2.571  -3.123  1.00  0.00    -0.454 OA
ATOM     14  C   UNL     1       9.323  -3.707  -2.297  1.00  0.00     0.468 C 
ENDBRANCH   5   6
ENDBRANCH   1   5
TORSDOF 3
ENDMDL
MODEL 5
REMARK VINA RESULT:      -6.8      1.258      5.271
REMARK SMILES CC(=O)CCc1ccc2c(c1)OCO2
REMARK SMILES IDX 4 1 2 2 1 3 3 4 5 5 6 6 7 7 11 8 8 9 10 10 9 11 12 12 14 13
REMARK SMILES IDX 13 14
REMARK H PARENT
REMARK Flexibility Score: inf
ROOT
ATOM      1  C   UNL     1       8.527   0.247  -2.627  1.00  0.00     0.080 C 
ENDROOT
BRANCH   1   2
ATOM      2  C   UNL     1       8.479  -1.234  -2.775  1.00  0.00     0.130 C 
ATOM      3  C   UNL     1       7.188  -1.968  -2.867  1.00  0.00     0.087 C 
ATOM      4  O   UNL     1       9.505  -1.893  -2.824  1.00  0.00    -0.300 OA
ENDBRANCH   1   2
BRANCH   1   5
ATOM      5  C   UNL     1       8.994   0.647  -1.242  1.00  0.00     0.043 C 
BRANCH   5   6
ATOM      6  C   UNL     1       7.933   0.466  -0.235  1.00  0.00    -0.044 A 
ATOM      7  C   UNL     1       8.007  -0.541   0.735  1.00  0.00     0.008 A 
ATOM      8  C   UNL     1       6.840   1.303  -0.236  1.00  0.00     0.054 A 
ATOM      9  C   UNL     1       6.982  -0.663   1.655  1.00  0.00     0.051 A 
ATOM     10  C   UNL     1       5.807   1.176   0.697  1.00  0.00     0.166 A 
ATOM     11  C   UNL     1       5.878   0.184   1.650  1.00  0.00     0.165 A 
ATOM     12  O   UNL     1       4.634   1.871   0.900  1.00  0.00    -0.454 OA
ATOM     13  O   UNL     1       4.736   0.293   2.427  1.00  0.00    -0.454 OA
ATOM     14  C   UNL     1       3.964   1.406   2.044  1.00  0.00     0.468 C 
ENDBRANCH   5   6
ENDBRANCH   1   5
TORSDOF 3
ENDMDL
