@<TRIPOS>MOLECULE
/home/cewinharhar/GITHUB/reincatalyze/data/processed/docking_pred/2023-May-23-1437_sub9_nm5_bs15_s42_ex16_mel10_mts10000_k50_ec02_g099_lra3e-4_lrc1e-3/b25c452ec0c0b8d96fec3e0f7bbac0cc4967bb63_ligand_9.pdbqt
 14 15 0 0 0
SMALL
GASTEIGER

@<TRIPOS>ATOM
      1  C          6.3900    1.2150    0.9220 C.3     1  UNL1        0.0800
      2  C          5.6620    0.3940    1.9300 C.2     1  UNL1        0.1300
      3  C          6.2660   -0.8280    2.5240 C.3     1  UNL1        0.0870
      4  O          4.5410    0.7040    2.2980 O.2     1  UNL1       -0.3000
      5  C          5.8880    0.9370   -0.4810 C.3     1  UNL1        0.0430
      6  C          6.8330    0.1040   -1.2450 C.2     1  UNL1       -0.0440
      7  C          7.5260    0.6080   -2.3520 C.2     1  UNL1        0.0080
      8  C          7.0500   -1.2020   -0.8680 C.2     1  UNL1        0.0540
      9  C          8.4010   -0.2210   -3.0300 C.2     1  UNL1        0.0510
     10  C          7.9370   -2.0360   -1.5560 C.2     1  UNL1        0.1660
     11  C          8.6180   -1.5410   -2.6460 C.2     1  UNL1        0.1650
     12  O          8.3190   -3.3490   -1.3820 O.2     1  UNL1       -0.4540
     13  O          9.4130   -2.5710   -3.1230 O.2     1  UNL1       -0.4540
     14  C          9.3230   -3.7070   -2.2970 C.3     1  UNL1        0.4680
@<TRIPOS>BOND
     1    13    11    1
     2    13    14    1
     3     9    11    2
     4     9     7    1
     5    11    10    1
     6     7     6    2
     7    14    12    1
     8    10    12    1
     9    10     8    2
    10     6     8    1
    11     6     5    1
    12     5     1    1
    13     1     2    1
    14     2     4    2
    15     2     3    1
