@<TRIPOS>MOLECULE
/home/cewinharhar/GITHUB/reincatalyze/data/processed/docking_pred/2023-May-23-1437_sub9_nm5_bs15_s42_ex16_mel10_mts10000_k50_ec02_g099_lra3e-4_lrc1e-3/b3825404c3545a63ee9389464b716605cbbf7703_ligand_9.pdbqt
 14 15 0 0 0
SMALL
GASTEIGER

@<TRIPOS>ATOM
      1  C          5.3370   -0.0520    1.9820 C.3     1  UNL1        0.0800
      2  C          4.4500    1.1280    1.7830 C.2     1  UNL1        0.1300
      3  C          4.7310    2.1480    0.7380 C.3     1  UNL1        0.0870
      4  O          3.4610    1.2920    2.4780 O.2     1  UNL1       -0.3000
      5  C          6.8000    0.3400    1.9090 C.3     1  UNL1        0.0430
      6  C          7.3980   -0.0210    0.6110 C.2     1  UNL1       -0.0440
      7  C          7.8910    0.9520   -0.2650 C.2     1  UNL1        0.0080
      8  C          7.4800   -1.3450    0.2430 C.2     1  UNL1        0.0540
      9  C          8.4420    0.5540   -1.4690 C.2     1  UNL1        0.0510
     10  C          8.0390   -1.7430   -0.9750 C.2     1  UNL1        0.1660
     11  C          8.5240   -0.7850   -1.8390 C.2     1  UNL1        0.1650
     12  O          8.2330   -2.9750   -1.5620 O.2     1  UNL1       -0.4540
     13  O          9.0110   -1.4570   -2.9490 O.2     1  UNL1       -0.4540
     14  C          8.9300   -2.8510   -2.7760 C.3     1  UNL1        0.4680
@<TRIPOS>BOND
     1    13    14    1
     2    13    11    1
     3    14    12    1
     4    11     9    2
     5    11    10    1
     6    12    10    1
     7     9     7    1
     8    10     8    2
     9     7     6    2
    10     8     6    1
    11     6     5    1
    12     3     2    1
    13     2     1    1
    14     2     4    2
    15     5     1    1
