MODEL 1
REMARK VINA RESULT:      -7.6      0.000      0.000
REMARK SMILES CC(=O)CCc1ccc2c(c1)OCO2
REMARK SMILES IDX 4 1 2 2 1 3 3 4 5 5 6 6 7 7 11 8 8 9 10 10 9 11 12 12 14 13
REMARK SMILES IDX 13 14
REMARK H PARENT
REMARK Flexibility Score: inf
ROOT
ATOM      1  C   UNL     1       5.587   1.846   1.329  1.00  0.00     0.080 C 
ENDROOT
BRANCH   1   2
ATOM      2  C   UNL     1       5.128   0.625   2.048  1.00  0.00     0.130 C 
ATOM      3  C   UNL     1       6.010  -0.561   2.214  1.00  0.00     0.087 C 
ATOM      4  O   UNL     1       4.006   0.563   2.524  1.00  0.00    -0.300 OA
ENDBRANCH   1   2
BRANCH   1   5
ATOM      5  C   UNL     1       5.442   1.689  -0.171  1.00  0.00     0.043 C 
BRANCH   5   6
ATOM      6  C   UNL     1       6.599   0.995  -0.763  1.00  0.00    -0.044 A 
ATOM      7  C   UNL     1       7.909   1.440  -0.549  1.00  0.00     0.008 A 
ATOM      8  C   UNL     1       6.400  -0.120  -1.545  1.00  0.00     0.054 A 
ATOM      9  C   UNL     1       8.956   0.748  -1.129  1.00  0.00     0.051 A 
ATOM     10  C   UNL     1       7.462  -0.816  -2.129  1.00  0.00     0.166 A 
ATOM     11  C   UNL     1       8.751  -0.378  -1.919  1.00  0.00     0.165 A 
ATOM     12  O   UNL     1       7.523  -1.934  -2.934  1.00  0.00    -0.454 OA
ATOM     13  O   UNL     1       9.585  -1.246  -2.607  1.00  0.00    -0.454 OA
ATOM     14  C   UNL     1       8.855  -2.299  -3.189  1.00  0.00     0.468 C 
ENDBRANCH   5   6
ENDBRANCH   1   5
TORSDOF 3
ENDMDL
MODEL 2
REMARK VINA RESULT:      -7.4      1.936      2.412
REMARK SMILES CC(=O)CCc1ccc2c(c1)OCO2
REMARK SMILES IDX 4 1 2 2 1 3 3 4 5 5 6 6 7 7 11 8 8 9 10 10 9 11 12 12 14 13
REMARK SMILES IDX 13 14
REMARK H PARENT
REMARK Flexibility Score: inf
ROOT
ATOM      1  C   UNL     1       5.777   1.328  -0.304  1.00  0.00     0.080 C 
ENDROOT
BRANCH   1   2
ATOM      2  C   UNL     1       5.158   1.252   1.049  1.00  0.00     0.130 C 
ATOM      3  C   UNL     1       5.387   0.089   1.948  1.00  0.00     0.087 C 
ATOM      4  O   UNL     1       4.440   2.148   1.461  1.00  0.00    -0.300 OA
ENDBRANCH   1   2
BRANCH   1   5
ATOM      5  C   UNL     1       7.269   1.069  -0.242  1.00  0.00     0.043 C 
BRANCH   5   6
ATOM      6  C   UNL     1       7.624  -0.226  -0.850  1.00  0.00    -0.044 A 
ATOM      7  C   UNL     1       7.641  -0.403  -2.239  1.00  0.00     0.008 A 
ATOM      8  C   UNL     1       7.951  -1.292  -0.044  1.00  0.00     0.054 A 
ATOM      9  C   UNL     1       7.983  -1.641  -2.753  1.00  0.00     0.051 A 
ATOM     10  C   UNL     1       8.297  -2.541  -0.568  1.00  0.00     0.166 A 
ATOM     11  C   UNL     1       8.312  -2.717  -1.934  1.00  0.00     0.165 A 
ATOM     12  O   UNL     1       8.655  -3.738   0.014  1.00  0.00    -0.454 OA
ATOM     13  O   UNL     1       8.685  -4.032  -2.165  1.00  0.00    -0.454 OA
ATOM     14  C   UNL     1       8.999  -4.690  -0.961  1.00  0.00     0.468 C 
ENDBRANCH   5   6
ENDBRANCH   1   5
TORSDOF 3
ENDMDL
MODEL 3
REMARK VINA RESULT:      -7.2      2.040      2.612
REMARK SMILES CC(=O)CCc1ccc2c(c1)OCO2
REMARK SMILES IDX 4 1 2 2 1 3 3 4 5 5 6 6 7 7 11 8 8 9 10 10 9 11 12 12 14 13
REMARK SMILES IDX 13 14
REMARK H PARENT
REMARK Flexibility Score: inf
ROOT
ATOM      1  C   UNL     1       5.388  -0.072   2.009  1.00  0.00     0.080 C 
ENDROOT
BRANCH   1   2
ATOM      2  C   UNL     1       4.560   1.143   1.770  1.00  0.00     0.130 C 
ATOM      3  C   UNL     1       4.908   2.129   0.712  1.00  0.00     0.087 C 
ATOM      4  O   UNL     1       3.566   1.365   2.441  1.00  0.00    -0.300 OA
ENDBRANCH   1   2
BRANCH   1   5
ATOM      5  C   UNL     1       6.834   0.162   1.619  1.00  0.00     0.043 C 
BRANCH   5   6
ATOM      6  C   UNL     1       7.266  -0.751   0.546  1.00  0.00    -0.044 A 
ATOM      7  C   UNL     1       7.136  -0.407  -0.805  1.00  0.00     0.008 A 
ATOM      8  C   UNL     1       7.813  -1.972   0.867  1.00  0.00     0.054 A 
ATOM      9  C   UNL     1       7.559  -1.303  -1.769  1.00  0.00     0.051 A 
ATOM     10  C   UNL     1       8.239  -2.875  -0.112  1.00  0.00     0.166 A 
ATOM     11  C   UNL     1       8.111  -2.538  -1.441  1.00  0.00     0.165 A 
ATOM     12  O   UNL     1       8.806  -4.130  -0.049  1.00  0.00    -0.454 OA
ATOM     13  O   UNL     1       8.607  -3.604  -2.175  1.00  0.00    -0.454 OA
ATOM     14  C   UNL     1       9.141  -4.596  -1.331  1.00  0.00     0.468 C 
ENDBRANCH   5   6
ENDBRANCH   1   5
TORSDOF 3
ENDMDL
MODEL 4
REMARK VINA RESULT:      -7.0      1.255      1.477
REMARK SMILES CC(=O)CCc1ccc2c(c1)OCO2
REMARK SMILES IDX 4 1 2 2 1 3 3 4 5 5 6 6 7 7 11 8 8 9 10 10 9 11 12 12 14 13
REMARK SMILES IDX 13 14
REMARK H PARENT
REMARK Flexibility Score: inf
ROOT
ATOM      1  C   UNL     1       6.427   1.163   0.925  1.00  0.00     0.080 C 
ENDROOT
BRANCH   1   2
ATOM      2  C   UNL     1       5.674   0.346   1.917  1.00  0.00     0.130 C 
ATOM      3  C   UNL     1       6.250  -0.892   2.508  1.00  0.00     0.087 C 
ATOM      4  O   UNL     1       4.554   0.672   2.276  1.00  0.00    -0.300 OA
ENDBRANCH   1   2
BRANCH   1   5
ATOM      5  C   UNL     1       5.933   0.910  -0.486  1.00  0.00     0.043 C 
BRANCH   5   6
ATOM      6  C   UNL     1       6.870   0.068  -1.251  1.00  0.00    -0.044 A 
ATOM      7  C   UNL     1       7.559   0.564  -2.364  1.00  0.00     0.008 A 
ATOM      8  C   UNL     1       7.083  -1.237  -0.870  1.00  0.00     0.054 A 
ATOM      9  C   UNL     1       8.427  -0.271  -3.043  1.00  0.00     0.051 A 
ATOM     10  C   UNL     1       7.962  -2.077  -1.559  1.00  0.00     0.166 A 
ATOM     11  C   UNL     1       8.639  -1.591  -2.655  1.00  0.00     0.165 A 
ATOM     12  O   UNL     1       8.339  -3.392  -1.382  1.00  0.00    -0.454 OA
ATOM     13  O   UNL     1       9.427  -2.626  -3.132  1.00  0.00    -0.454 OA
ATOM     14  C   UNL     1       9.336  -3.759  -2.300  1.00  0.00     0.468 C 
ENDBRANCH   5   6
ENDBRANCH   1   5
TORSDOF 3
ENDMDL
MODEL 5
REMARK VINA RESULT:      -6.7      1.259      1.736
REMARK SMILES CC(=O)CCc1ccc2c(c1)OCO2
REMARK SMILES IDX 4 1 2 2 1 3 3 4 5 5 6 6 7 7 11 8 8 9 10 10 9 11 12 12 14 13
REMARK SMILES IDX 13 14
REMARK H PARENT
REMARK Flexibility Score: inf
ROOT
ATOM      1  C   UNL     1       5.337  -0.052   1.982  1.00  0.00     0.080 C 
ENDROOT
BRANCH   1   2
ATOM      2  C   UNL     1       4.450   1.128   1.783  1.00  0.00     0.130 C 
ATOM      3  C   UNL     1       4.731   2.148   0.738  1.00  0.00     0.087 C 
ATOM      4  O   UNL     1       3.461   1.292   2.478  1.00  0.00    -0.300 OA
ENDBRANCH   1   2
BRANCH   1   5
ATOM      5  C   UNL     1       6.800   0.340   1.909  1.00  0.00     0.043 C 
BRANCH   5   6
ATOM      6  C   UNL     1       7.398  -0.021   0.611  1.00  0.00    -0.044 A 
ATOM      7  C   UNL     1       7.891   0.952  -0.265  1.00  0.00     0.008 A 
ATOM      8  C   UNL     1       7.480  -1.345   0.243  1.00  0.00     0.054 A 
ATOM      9  C   UNL     1       8.442   0.554  -1.469  1.00  0.00     0.051 A 
ATOM     10  C   UNL     1       8.039  -1.743  -0.975  1.00  0.00     0.166 A 
ATOM     11  C   UNL     1       8.524  -0.785  -1.839  1.00  0.00     0.165 A 
ATOM     12  O   UNL     1       8.233  -2.975  -1.562  1.00  0.00    -0.454 OA
ATOM     13  O   UNL     1       9.011  -1.457  -2.949  1.00  0.00    -0.454 OA
ATOM     14  C   UNL     1       8.930  -2.851  -2.776  1.00  0.00     0.468 C 
ENDBRANCH   5   6
ENDBRANCH   1   5
TORSDOF 3
ENDMDL
