@<TRIPOS>MOLECULE
/home/cewinharhar/GITHUB/reincatalyze/data/processed/docking_pred/2023-May-23-1437_sub9_nm5_bs15_s42_ex16_mel10_mts10000_k50_ec02_g099_lra3e-4_lrc1e-3/b3ccd1df948aefc26948fdc9bbc960af2f6fd47d_ligand_9.pdbqt
 14 15 0 0 0
SMALL
GASTEIGER

@<TRIPOS>ATOM
      1  C          8.3420    0.1920   -2.6240 C.3     1  UNL1        0.0800
      2  C          8.0400   -1.2620   -2.7410 C.2     1  UNL1        0.1300
      3  C          9.1040   -2.2600   -3.0290 C.3     1  UNL1        0.0870
      4  O          6.9010   -1.6780   -2.6030 O.2     1  UNL1       -0.3000
      5  C          8.8640    0.5370   -1.2430 C.3     1  UNL1        0.0430
      6  C          7.8170    0.4020   -0.2140 C.2     1  UNL1       -0.0440
      7  C          7.9020   -0.5630    0.7960 C.2     1  UNL1        0.0080
      8  C          6.7260    1.2410   -0.2370 C.2     1  UNL1        0.0540
      9  C          6.8900   -0.6420    1.7350 C.2     1  UNL1        0.0510
     10  C          5.7060    1.1570    0.7150 C.2     1  UNL1        0.1660
     11  C          5.7880    0.2080    1.7090 C.2     1  UNL1        0.1650
     12  O          4.5370    1.8640    0.9050 O.2     1  UNL1       -0.4540
     13  O          4.6580    0.3540    2.4980 O.2     1  UNL1       -0.4540
     14  C          3.8830    1.4510    2.0770 C.3     1  UNL1        0.4680
@<TRIPOS>BOND
     1     3     2    1
     2     2     1    1
     3     2     4    2
     4     1     5    1
     5     5     6    1
     6     8     6    2
     7     8    10    1
     8     6     7    1
     9    10    12    1
    10    10    11    2
    11     7     9    2
    12    12    14    1
    13    11     9    1
    14    11    13    1
    15    14    13    1
