@<TRIPOS>MOLECULE
/home/cewinharhar/GITHUB/reincatalyze/data/processed/docking_pred/2023-May-23-1437_sub9_nm5_bs15_s42_ex16_mel10_mts10000_k50_ec02_g099_lra3e-4_lrc1e-3/b3ccd1df948aefc26948fdc9bbc960af2f6fd47d_ligand_9.pdbqt
 14 15 0 0 0
SMALL
GASTEIGER

@<TRIPOS>ATOM
      1  C          5.5880    0.0340    1.9460 C.3     1  UNL1        0.0800
      2  C          4.6800    1.1720    1.6280 C.2     1  UNL1        0.1300
      3  C          4.9610    2.1040    0.5040 C.3     1  UNL1        0.0870
      4  O          3.6740    1.3730    2.2880 O.2     1  UNL1       -0.3000
      5  C          6.9940    0.2940    1.4400 C.3     1  UNL1        0.0430
      6  C          7.3930   -0.6820    0.4110 C.2     1  UNL1       -0.0440
      7  C          7.2900   -0.3910   -0.9540 C.2     1  UNL1        0.0080
      8  C          7.8840   -1.9110    0.7900 C.2     1  UNL1        0.0540
      9  C          7.6810   -1.3460   -1.8750 C.2     1  UNL1        0.0510
     10  C          8.2780   -2.8730   -0.1450 C.2     1  UNL1        0.1660
     11  C          8.1760   -2.5880   -1.4890 C.2     1  UNL1        0.1650
     12  O          8.7890   -4.1480   -0.0240 O.2     1  UNL1       -0.4540
     13  O          8.6310   -3.7050   -2.1710 O.2     1  UNL1       -0.4540
     14  C          9.1140   -4.6830   -1.2810 C.3     1  UNL1        0.4680
@<TRIPOS>BOND
     1    13    11    1
     2    13    14    1
     3     9    11    2
     4     9     7    1
     5    11    10    1
     6    14    12    1
     7     7     6    2
     8    10    12    1
     9    10     8    2
    10     6     8    1
    11     6     5    1
    12     3     2    1
    13     5     1    1
    14     2     1    1
    15     2     4    2
