@<TRIPOS>MOLECULE
/home/cewinharhar/GITHUB/reincatalyze/data/processed/docking_pred/2023-May-23-1437_sub9_nm5_bs15_s42_ex16_mel10_mts10000_k50_ec02_g099_lra3e-4_lrc1e-3/b3efa5aa79561967f2a1346927635c3d7bfec8a2_ligand_9.pdbqt
 14 15 0 0 0
SMALL
GASTEIGER

@<TRIPOS>ATOM
      1  C          5.4060    1.4100    0.3270 C.3     1  UNL1        0.0800
      2  C          5.2240    1.2610    1.7980 C.2     1  UNL1        0.1300
      3  C          6.3620    0.9260    2.6950 C.3     1  UNL1        0.0870
      4  O          4.1280    1.4110    2.3130 O.2     1  UNL1       -0.3000
      5  C          6.8740    1.4230   -0.0480 C.3     1  UNL1        0.0430
      6  C          7.2840    0.1630   -0.6920 C.2     1  UNL1       -0.0440
      7  C          7.2790    0.0160   -2.0840 C.2     1  UNL1        0.0080
      8  C          7.6860   -0.9010    0.0830 C.2     1  UNL1        0.0540
      9  C          7.6750   -1.1900   -2.6330 C.2     1  UNL1        0.0510
     10  C          8.0870   -2.1180   -0.4770 C.2     1  UNL1        0.1660
     11  C          8.0810   -2.2640   -1.8460 C.2     1  UNL1        0.1650
     12  O          8.5220   -3.3060    0.0700 O.2     1  UNL1       -0.4540
     13  O          8.5180   -3.5510   -2.1140 O.2     1  UNL1       -0.4540
     14  C          8.8950   -4.2160   -0.9320 C.3     1  UNL1        0.4680
@<TRIPOS>BOND
     1     9     7    1
     2     9    11    2
     3    13    11    1
     4    13    14    1
     5     7     6    2
     6    11    10    1
     7    14    12    1
     8     6     5    1
     9     6     8    1
    10    10    12    1
    11    10     8    2
    12     5     1    1
    13     1     2    1
    14     2     4    2
    15     2     3    1
