@<TRIPOS>MOLECULE
/home/cewinharhar/GITHUB/reincatalyze/data/processed/docking_pred/2023-May-23-1437_sub9_nm5_bs15_s42_ex16_mel10_mts10000_k50_ec02_g099_lra3e-4_lrc1e-3/b3efa5aa79561967f2a1346927635c3d7bfec8a2_ligand_9.pdbqt
 14 15 0 0 0
SMALL
GASTEIGER

@<TRIPOS>ATOM
      1  C          5.6070    0.1470    2.1900 C.3     1  UNL1        0.0800
      2  C          4.6420    1.2380    1.8810 C.2     1  UNL1        0.1300
      3  C          4.8390    2.1500    0.7220 C.3     1  UNL1        0.0870
      4  O          3.6540    1.4170    2.5750 O.2     1  UNL1       -0.3000
      5  C          6.9770    0.4440    1.6150 C.3     1  UNL1        0.0430
      6  C          7.3480   -0.5170    0.5610 C.2     1  UNL1       -0.0440
      7  C          7.2090   -0.2050   -0.7970 C.2     1  UNL1        0.0080
      8  C          7.8460   -1.7520    0.9080 C.2     1  UNL1        0.0540
      9  C          7.5740   -1.1470   -1.7420 C.2     1  UNL1        0.0510
     10  C          8.2140   -2.7000   -0.0510 C.2     1  UNL1        0.1660
     11  C          8.0770   -2.3950   -1.3870 C.2     1  UNL1        0.1650
     12  O          8.7250   -3.9770    0.0380 O.2     1  UNL1       -0.4540
     13  O          8.5120   -3.5030   -2.0980 O.2     1  UNL1       -0.4540
     14  C          9.0170   -4.4940   -1.2350 C.3     1  UNL1        0.4680
@<TRIPOS>BOND
     1    13    11    1
     2    13    14    1
     3     9    11    2
     4     9     7    1
     5    11    10    1
     6    14    12    1
     7     7     6    2
     8    10    12    1
     9    10     8    2
    10     6     8    1
    11     6     5    1
    12     3     2    1
    13     5     1    1
    14     2     1    1
    15     2     4    2
