MODEL 1
REMARK VINA RESULT:      -1.5      0.000      0.000
REMARK SMILES CC(=O)CCc1ccc2c(c1)OCO2
REMARK SMILES IDX 4 1 2 2 1 3 3 4 5 5 6 6 7 7 11 8 8 9 10 10 9 11 12 12 14 13
REMARK SMILES IDX 13 14
REMARK H PARENT
REMARK Flexibility Score: inf
ROOT
ATOM      1  C   UNL     1      -0.191 -11.866   2.273  1.00  0.00     0.080 C 
ENDROOT
BRANCH   1   2
ATOM      2  C   UNL     1      -1.396 -11.508   1.473  1.00  0.00     0.130 C 
ATOM      3  C   UNL     1      -1.915 -10.114   1.424  1.00  0.00     0.087 C 
ATOM      4  O   UNL     1      -1.996 -12.354   0.830  1.00  0.00    -0.300 OA
ENDBRANCH   1   2
BRANCH   1   5
ATOM      5  C   UNL     1       1.009 -12.114   1.380  1.00  0.00     0.043 C 
BRANCH   5   6
ATOM      6  C   UNL     1       1.381 -10.909   0.617  1.00  0.00    -0.044 A 
ATOM      7  C   UNL     1       1.469 -10.924  -0.780  1.00  0.00     0.008 A 
ATOM      8  C   UNL     1       1.649  -9.736   1.284  1.00  0.00     0.054 A 
ATOM      9  C   UNL     1       1.823  -9.763  -1.442  1.00  0.00     0.051 A 
ATOM     10  C   UNL     1       2.005  -8.564   0.610  1.00  0.00     0.166 A 
ATOM     11  C   UNL     1       2.093  -8.578  -0.765  1.00  0.00     0.165 A 
ATOM     12  O   UNL     1       2.316  -7.291   1.038  1.00  0.00    -0.454 OA
ATOM     13  O   UNL     1       2.459  -7.299  -1.156  1.00  0.00    -0.454 OA
ATOM     14  C   UNL     1       2.522  -6.429  -0.052  1.00  0.00     0.468 C 
ENDBRANCH   5   6
ENDBRANCH   1   5
TORSDOF 3
ENDMDL
MODEL 2
REMARK VINA RESULT:      -1.2      2.225      3.907
REMARK SMILES CC(=O)CCc1ccc2c(c1)OCO2
REMARK SMILES IDX 4 1 2 2 1 3 3 4 5 5 6 6 7 7 11 8 8 9 10 10 9 11 12 12 14 13
REMARK SMILES IDX 13 14
REMARK H PARENT
REMARK Flexibility Score: inf
ROOT
ATOM      1  C   UNL     1       1.650 -11.584  -3.303  1.00  0.00     0.080 C 
ENDROOT
BRANCH   1   2
ATOM      2  C   UNL     1       1.075 -10.698  -4.353  1.00  0.00     0.130 C 
ATOM      3  C   UNL     1      -0.393 -10.490  -4.480  1.00  0.00     0.087 C 
ATOM      4  O   UNL     1       1.796 -10.114  -5.144  1.00  0.00    -0.300 OA
ENDBRANCH   1   2
BRANCH   1   5
ATOM      5  C   UNL     1       0.745 -11.659  -2.089  1.00  0.00     0.043 C 
BRANCH   5   6
ATOM      6  C   UNL     1       1.082 -10.628  -1.092  1.00  0.00    -0.044 A 
ATOM      7  C   UNL     1       0.893 -10.843   0.278  1.00  0.00     0.008 A 
ATOM      8  C   UNL     1       1.597  -9.421  -1.506  1.00  0.00     0.054 A 
ATOM      9  C   UNL     1       1.228  -9.838   1.168  1.00  0.00     0.051 A 
ATOM     10  C   UNL     1       1.935  -8.408  -0.603  1.00  0.00     0.166 A 
ATOM     11  C   UNL     1       1.748  -8.619   0.745  1.00  0.00     0.165 A 
ATOM     12  O   UNL     1       2.454  -7.141  -0.763  1.00  0.00    -0.454 OA
ATOM     13  O   UNL     1       2.162  -7.465   1.392  1.00  0.00    -0.454 OA
ATOM     14  C   UNL     1       2.702  -6.537   0.481  1.00  0.00     0.468 C 
ENDBRANCH   5   6
ENDBRANCH   1   5
TORSDOF 3
ENDMDL
MODEL 3
REMARK VINA RESULT:      -1.1      2.319      3.875
REMARK SMILES CC(=O)CCc1ccc2c(c1)OCO2
REMARK SMILES IDX 4 1 2 2 1 3 3 4 5 5 6 6 7 7 11 8 8 9 10 10 9 11 12 12 14 13
REMARK SMILES IDX 13 14
REMARK H PARENT
REMARK Flexibility Score: inf
ROOT
ATOM      1  C   UNL     1       0.241 -11.518  -3.207  1.00  0.00     0.080 C 
ENDROOT
BRANCH   1   2
ATOM      2  C   UNL     1       0.312 -10.625  -4.397  1.00  0.00     0.130 C 
ATOM      3  C   UNL     1       1.614 -10.188  -4.968  1.00  0.00     0.087 C 
ATOM      4  O   UNL     1      -0.704 -10.223  -4.941  1.00  0.00    -0.300 OA
ENDBRANCH   1   2
BRANCH   1   5
ATOM      5  C   UNL     1       1.568 -11.569  -2.477  1.00  0.00     0.043 C 
BRANCH   5   6
ATOM      6  C   UNL     1       1.644 -10.555  -1.410  1.00  0.00    -0.044 A 
ATOM      7  C   UNL     1       1.240 -10.837  -0.100  1.00  0.00     0.008 A 
ATOM      8  C   UNL     1       2.124  -9.297  -1.697  1.00  0.00     0.054 A 
ATOM      9  C   UNL     1       1.335  -9.846   0.860  1.00  0.00     0.051 A 
ATOM     10  C   UNL     1       2.219  -8.299  -0.722  1.00  0.00     0.166 A 
ATOM     11  C   UNL     1       1.820  -8.576   0.567  1.00  0.00     0.165 A 
ATOM     12  O   UNL     1       2.655  -6.991  -0.756  1.00  0.00    -0.454 OA
ATOM     13  O   UNL     1       2.023  -7.421   1.305  1.00  0.00    -0.454 OA
ATOM     14  C   UNL     1       2.635  -6.420   0.527  1.00  0.00     0.468 C 
ENDBRANCH   5   6
ENDBRANCH   1   5
TORSDOF 3
ENDMDL
MODEL 4
REMARK VINA RESULT:       0.6      0.928      1.179
REMARK SMILES CC(=O)CCc1ccc2c(c1)OCO2
REMARK SMILES IDX 4 1 2 2 1 3 3 4 5 5 6 6 7 7 11 8 8 9 10 10 9 11 12 12 14 13
REMARK SMILES IDX 13 14
REMARK H PARENT
REMARK Flexibility Score: inf
ROOT
ATOM      1  C   UNL     1      -0.527 -11.896   0.573  1.00  0.00     0.080 C 
ENDROOT
BRANCH   1   2
ATOM      2  C   UNL     1      -1.262 -11.547   1.821  1.00  0.00     0.130 C 
ATOM      3  C   UNL     1      -1.061 -12.305   3.085  1.00  0.00     0.087 C 
ATOM      4  O   UNL     1      -2.058 -10.622   1.841  1.00  0.00    -0.300 OA
ENDBRANCH   1   2
BRANCH   1   5
ATOM      5  C   UNL     1       0.968 -11.713   0.746  1.00  0.00     0.043 C 
BRANCH   5   6
ATOM      6  C   UNL     1       1.435 -10.446   0.155  1.00  0.00    -0.044 A 
ATOM      7  C   UNL     1       1.746 -10.343  -1.206  1.00  0.00     0.008 A 
ATOM      8  C   UNL     1       1.569  -9.331   0.950  1.00  0.00     0.054 A 
ATOM      9  C   UNL     1       2.179  -9.128  -1.705  1.00  0.00     0.051 A 
ATOM     10  C   UNL     1       2.006  -8.104   0.440  1.00  0.00     0.166 A 
ATOM     11  C   UNL     1       2.314  -8.003  -0.899  1.00  0.00     0.165 A 
ATOM     12  O   UNL     1       2.220  -6.870   1.015  1.00  0.00    -0.454 OA
ATOM     13  O   UNL     1       2.713  -6.694  -1.120  1.00  0.00    -0.454 OA
ATOM     14  C   UNL     1       2.581  -5.918   0.048  1.00  0.00     0.468 C 
ENDBRANCH   5   6
ENDBRANCH   1   5
TORSDOF 3
ENDMDL
MODEL 5
REMARK VINA RESULT:       0.7      2.001      2.899
REMARK SMILES CC(=O)CCc1ccc2c(c1)OCO2
REMARK SMILES IDX 4 1 2 2 1 3 3 4 5 5 6 6 7 7 11 8 8 9 10 10 9 11 12 12 14 13
REMARK SMILES IDX 13 14
REMARK H PARENT
REMARK Flexibility Score: inf
ROOT
ATOM      1  C   UNL     1       0.127 -12.108   1.928  1.00  0.00     0.080 C 
ENDROOT
BRANCH   1   2
ATOM      2  C   UNL     1      -1.197 -11.506   1.606  1.00  0.00     0.130 C 
ATOM      3  C   UNL     1      -1.440 -10.043   1.730  1.00  0.00     0.087 C 
ATOM      4  O   UNL     1      -2.127 -12.200   1.229  1.00  0.00    -0.300 OA
ENDBRANCH   1   2
BRANCH   1   5
ATOM      5  C   UNL     1       1.236 -11.079   1.840  1.00  0.00     0.043 C 
BRANCH   5   6
ATOM      6  C   UNL     1       1.473 -10.648   0.450  1.00  0.00    -0.044 A 
ATOM      7  C   UNL     1       2.335  -9.588   0.148  1.00  0.00     0.008 A 
ATOM      8  C   UNL     1       0.837 -11.298  -0.583  1.00  0.00     0.054 A 
ATOM      9  C   UNL     1       2.519  -9.228  -1.174  1.00  0.00     0.051 A 
ATOM     10  C   UNL     1       1.027 -10.931  -1.919  1.00  0.00     0.166 A 
ATOM     11  C   UNL     1       1.874  -9.888  -2.217  1.00  0.00     0.165 A 
ATOM     12  O   UNL     1       0.518 -11.412  -3.106  1.00  0.00    -0.454 OA
ATOM     13  O   UNL     1       1.870  -9.749  -3.596  1.00  0.00    -0.454 OA
ATOM     14  C   UNL     1       1.094 -10.753  -4.205  1.00  0.00     0.468 C 
ENDBRANCH   5   6
ENDBRANCH   1   5
TORSDOF 3
ENDMDL
