@<TRIPOS>MOLECULE
/home/cewinharhar/GITHUB/reincatalyze/data/processed/docking_pred/2023-May-23-1437_sub9_nm5_bs15_s42_ex16_mel10_mts10000_k50_ec02_g099_lra3e-4_lrc1e-3/b58c38953477011b0b30fd8623da0ee842eab33b_ligand_9.pdbqt
 14 15 0 0 0
SMALL
GASTEIGER

@<TRIPOS>ATOM
      1  C          1.6500  -11.5840   -3.3030 C.3     1  UNL1        0.0800
      2  C          1.0750  -10.6980   -4.3530 C.2     1  UNL1        0.1300
      3  C         -0.3930  -10.4900   -4.4800 C.3     1  UNL1        0.0870
      4  O          1.7960  -10.1140   -5.1440 O.2     1  UNL1       -0.3000
      5  C          0.7450  -11.6590   -2.0890 C.3     1  UNL1        0.0430
      6  C          1.0820  -10.6280   -1.0920 C.2     1  UNL1       -0.0440
      7  C          0.8930  -10.8430    0.2780 C.2     1  UNL1        0.0080
      8  C          1.5970   -9.4210   -1.5060 C.2     1  UNL1        0.0540
      9  C          1.2280   -9.8380    1.1680 C.2     1  UNL1        0.0510
     10  C          1.9350   -8.4080   -0.6030 C.2     1  UNL1        0.1660
     11  C          1.7480   -8.6190    0.7450 C.2     1  UNL1        0.1650
     12  O          2.4540   -7.1410   -0.7630 O.2     1  UNL1       -0.4540
     13  O          2.1620   -7.4650    1.3920 O.2     1  UNL1       -0.4540
     14  C          2.7020   -6.5370    0.4810 C.3     1  UNL1        0.4680
@<TRIPOS>BOND
     1     4     2    2
     2     3     2    1
     3     2     1    1
     4     1     5    1
     5     5     6    1
     6     8     6    2
     7     8    10    1
     8     6     7    1
     9    12    10    1
    10    12    14    1
    11    10    11    2
    12     7     9    2
    13    14    13    1
    14    11     9    1
    15    11    13    1
