@<TRIPOS>MOLECULE
/home/cewinharhar/GITHUB/reincatalyze/data/processed/docking_pred/2023-May-23-1437_sub9_nm5_bs15_s42_ex16_mel10_mts10000_k50_ec02_g099_lra3e-4_lrc1e-3/b58c38953477011b0b30fd8623da0ee842eab33b_ligand_9.pdbqt
 14 15 0 0 0
SMALL
GASTEIGER

@<TRIPOS>ATOM
      1  C         -0.5270  -11.8960    0.5730 C.3     1  UNL1        0.0800
      2  C         -1.2620  -11.5470    1.8210 C.2     1  UNL1        0.1300
      3  C         -1.0610  -12.3050    3.0850 C.3     1  UNL1        0.0870
      4  O         -2.0580  -10.6220    1.8410 O.2     1  UNL1       -0.3000
      5  C          0.9680  -11.7130    0.7460 C.3     1  UNL1        0.0430
      6  C          1.4350  -10.4460    0.1550 C.2     1  UNL1       -0.0440
      7  C          1.7460  -10.3430   -1.2060 C.2     1  UNL1        0.0080
      8  C          1.5690   -9.3310    0.9500 C.2     1  UNL1        0.0540
      9  C          2.1790   -9.1280   -1.7050 C.2     1  UNL1        0.0510
     10  C          2.0060   -8.1040    0.4400 C.2     1  UNL1        0.1660
     11  C          2.3140   -8.0030   -0.8990 C.2     1  UNL1        0.1650
     12  O          2.2200   -6.8700    1.0150 O.2     1  UNL1       -0.4540
     13  O          2.7130   -6.6940   -1.1200 O.2     1  UNL1       -0.4540
     14  C          2.5810   -5.9180    0.0480 C.3     1  UNL1        0.4680
@<TRIPOS>BOND
     1     9     7    1
     2     9    11    2
     3     7     6    2
     4    13    11    1
     5    13    14    1
     6    11    10    1
     7    14    12    1
     8     6     5    1
     9     6     8    1
    10    10     8    2
    11    10    12    1
    12     1     5    1
    13     1     2    1
    14     2     4    2
    15     2     3    1
