@<TRIPOS>MOLECULE
/home/cewinharhar/GITHUB/reincatalyze/data/processed/docking_pred/2023-May-23-1437_sub9_nm5_bs15_s42_ex16_mel10_mts10000_k50_ec02_g099_lra3e-4_lrc1e-3/b590df4aad401e291154b1741be08749940afe84_ligand_9.pdbqt
 14 15 0 0 0
SMALL
GASTEIGER

@<TRIPOS>ATOM
      1  C          6.8720    0.8970    1.3190 C.3     1  UNL1        0.0800
      2  C          5.4120    1.1400    1.4820 C.2     1  UNL1        0.1300
      3  C          4.6910    2.1480    0.6580 C.3     1  UNL1        0.0870
      4  O          4.7600    0.5140    2.3020 O.2     1  UNL1       -0.3000
      5  C          7.3020    1.0700   -0.1240 C.3     1  UNL1        0.0430
      6  C          7.6240   -0.2220   -0.7570 C.2     1  UNL1       -0.0440
      7  C          7.6090   -0.3810   -2.1480 C.2     1  UNL1        0.0080
      8  C          7.9520   -1.3030    0.0290 C.2     1  UNL1        0.0540
      9  C          7.9210   -1.6160   -2.6850 C.2     1  UNL1        0.0510
     10  C          8.2670   -2.5500   -0.5200 C.2     1  UNL1        0.1660
     11  C          8.2510   -2.7080   -1.8880 C.2     1  UNL1        0.1650
     12  O          8.6190   -3.7600    0.0390 O.2     1  UNL1       -0.4540
     13  O          8.5990   -4.0250   -2.1430 O.2     1  UNL1       -0.4540
     14  C          8.9290   -4.7040   -0.9550 C.3     1  UNL1        0.4680
@<TRIPOS>BOND
     1     9     7    1
     2     9    11    2
     3     7     6    2
     4    13    11    1
     5    13    14    1
     6    11    10    1
     7    14    12    1
     8     6     5    1
     9     6     8    1
    10    10     8    2
    11    10    12    1
    12     5     1    1
    13     3     2    1
    14     1     2    1
    15     2     4    2
