@<TRIPOS>MOLECULE
/home/cewinharhar/GITHUB/reincatalyze/data/processed/docking_pred/2023-May-23-1437_sub9_nm5_bs15_s42_ex16_mel10_mts10000_k50_ec02_g099_lra3e-4_lrc1e-3/b5f7d4a2d914252a6bbd971338c7ac1ea6a3e46f_ligand_9.pdbqt
 14 15 0 0 0
SMALL
GASTEIGER

@<TRIPOS>ATOM
      1  C          5.3690   -0.1070    2.0130 C.3     1  UNL1        0.0800
      2  C          4.5500    1.1150    1.7750 C.2     1  UNL1        0.1300
      3  C          4.9180    2.1110    0.7330 C.3     1  UNL1        0.0870
      4  O          3.5460    1.3340    2.4330 O.2     1  UNL1       -0.3000
      5  C          6.8210    0.1240    1.6450 C.3     1  UNL1        0.0430
      6  C          7.2600   -0.7760    0.5640 C.2     1  UNL1       -0.0440
      7  C          7.1380   -0.4170   -0.7840 C.2     1  UNL1        0.0080
      8  C          7.8080   -2.0000    0.8740 C.2     1  UNL1        0.0540
      9  C          7.5680   -1.3020   -1.7560 C.2     1  UNL1        0.0510
     10  C          8.2420   -2.8900   -0.1120 C.2     1  UNL1        0.1660
     11  C          8.1210   -2.5380   -1.4380 C.2     1  UNL1        0.1650
     12  O          8.8110   -4.1450   -0.0600 O.2     1  UNL1       -0.4540
     13  O          8.6240   -3.5950   -2.1810 O.2     1  UNL1       -0.4540
     14  C          9.1550   -4.5960   -1.3450 C.3     1  UNL1        0.4680
@<TRIPOS>BOND
     1    13    11    1
     2    13    14    1
     3     9    11    2
     4     9     7    1
     5    11    10    1
     6    14    12    1
     7     7     6    2
     8    10    12    1
     9    10     8    2
    10     6     8    1
    11     6     5    1
    12     3     2    1
    13     5     1    1
    14     2     1    1
    15     2     4    2
