MODEL 1
REMARK VINA RESULT:      -7.7      0.000      0.000
REMARK SMILES CC(=O)CCc1ccc2c(c1)OCO2
REMARK SMILES IDX 4 1 2 2 1 3 3 4 5 5 6 6 7 7 11 8 8 9 10 10 9 11 12 12 14 13
REMARK SMILES IDX 13 14
REMARK H PARENT
REMARK Flexibility Score: inf
ROOT
ATOM      1  C   UNL     1       5.568   1.760   1.153  1.00  0.00     0.080 C 
ENDROOT
BRANCH   1   2
ATOM      2  C   UNL     1       5.086   0.579   1.921  1.00  0.00     0.130 C 
ATOM      3  C   UNL     1       5.861  -0.690   1.970  1.00  0.00     0.087 C 
ATOM      4  O   UNL     1       4.033   0.618   2.537  1.00  0.00    -0.300 OA
ENDBRANCH   1   2
BRANCH   1   5
ATOM      5  C   UNL     1       5.457   1.529  -0.341  1.00  0.00     0.043 C 
BRANCH   5   6
ATOM      6  C   UNL     1       6.701   0.972  -0.901  1.00  0.00    -0.044 A 
ATOM      7  C   UNL     1       7.958   1.458  -0.522  1.00  0.00     0.008 A 
ATOM      8  C   UNL     1       6.638  -0.053  -1.818  1.00  0.00     0.054 A 
ATOM      9  C   UNL     1       9.091   0.896  -1.081  1.00  0.00     0.051 A 
ATOM     10  C   UNL     1       7.787  -0.618  -2.379  1.00  0.00     0.166 A 
ATOM     11  C   UNL     1       9.024  -0.139  -2.008  1.00  0.00     0.165 A 
ATOM     12  O   UNL     1       7.985  -1.628  -3.296  1.00  0.00    -0.454 OA
ATOM     13  O   UNL     1       9.965  -0.874  -2.712  1.00  0.00    -0.454 OA
ATOM     14  C   UNL     1       9.354  -1.889  -3.471  1.00  0.00     0.468 C 
ENDBRANCH   5   6
ENDBRANCH   1   5
TORSDOF 3
ENDMDL
MODEL 2
REMARK VINA RESULT:      -7.5      0.985      1.857
REMARK SMILES CC(=O)CCc1ccc2c(c1)OCO2
REMARK SMILES IDX 4 1 2 2 1 3 3 4 5 5 6 6 7 7 11 8 8 9 10 10 9 11 12 12 14 13
REMARK SMILES IDX 13 14
REMARK H PARENT
REMARK Flexibility Score: inf
ROOT
ATOM      1  C   UNL     1       6.046   1.360   1.125  1.00  0.00     0.080 C 
ENDROOT
BRANCH   1   2
ATOM      2  C   UNL     1       5.513   0.279   2.000  1.00  0.00     0.130 C 
ATOM      3  C   UNL     1       6.297  -0.953   2.285  1.00  0.00     0.087 C 
ATOM      4  O   UNL     1       4.409   0.374   2.511  1.00  0.00    -0.300 OA
ENDBRANCH   1   2
BRANCH   1   5
ATOM      5  C   UNL     1       5.676   1.127  -0.326  1.00  0.00     0.043 C 
BRANCH   5   6
ATOM      6  C   UNL     1       6.787   0.523  -1.083  1.00  0.00    -0.044 A 
ATOM      7  C   UNL     1       6.627  -0.675  -1.790  1.00  0.00     0.008 A 
ATOM      8  C   UNL     1       8.015   1.144  -1.105  1.00  0.00     0.054 A 
ATOM      9  C   UNL     1       7.705  -1.194  -2.483  1.00  0.00     0.051 A 
ATOM     10  C   UNL     1       9.102   0.615  -1.807  1.00  0.00     0.166 A 
ATOM     11  C   UNL     1       8.945  -0.564  -2.502  1.00  0.00     0.165 A 
ATOM     12  O   UNL     1      10.404   1.034  -1.980  1.00  0.00    -0.454 OA
ATOM     13  O   UNL     1      10.167  -0.846  -3.094  1.00  0.00    -0.454 OA
ATOM     14  C   UNL     1      11.094   0.188  -2.864  1.00  0.00     0.468 C 
ENDBRANCH   5   6
ENDBRANCH   1   5
TORSDOF 3
ENDMDL
MODEL 3
REMARK VINA RESULT:      -7.3      1.265      2.316
REMARK SMILES CC(=O)CCc1ccc2c(c1)OCO2
REMARK SMILES IDX 4 1 2 2 1 3 3 4 5 5 6 6 7 7 11 8 8 9 10 10 9 11 12 12 14 13
REMARK SMILES IDX 13 14
REMARK H PARENT
REMARK Flexibility Score: inf
ROOT
ATOM      1  C   UNL     1       5.784  -0.561   1.677  1.00  0.00     0.080 C 
ENDROOT
BRANCH   1   2
ATOM      2  C   UNL     1       4.968   0.682   1.749  1.00  0.00     0.130 C 
ATOM      3  C   UNL     1       5.207   1.827   0.830  1.00  0.00     0.087 C 
ATOM      4  O   UNL     1       4.074   0.798   2.571  1.00  0.00    -0.300 OA
ENDBRANCH   1   2
BRANCH   1   5
ATOM      5  C   UNL     1       7.245  -0.247   1.421  1.00  0.00     0.043 C 
BRANCH   5   6
ATOM      6  C   UNL     1       7.587  -0.365  -0.008  1.00  0.00    -0.044 A 
ATOM      7  C   UNL     1       6.918  -1.261  -0.850  1.00  0.00     0.008 A 
ATOM      8  C   UNL     1       8.584   0.421  -0.538  1.00  0.00     0.054 A 
ATOM      9  C   UNL     1       7.282  -1.328  -2.183  1.00  0.00     0.051 A 
ATOM     10  C   UNL     1       8.948   0.350  -1.886  1.00  0.00     0.166 A 
ATOM     11  C   UNL     1       8.291  -0.532  -2.715  1.00  0.00     0.165 A 
ATOM     12  O   UNL     1       9.891   1.014  -2.642  1.00  0.00    -0.454 OA
ATOM     13  O   UNL     1       8.850  -0.389  -3.976  1.00  0.00    -0.454 OA
ATOM     14  C   UNL     1       9.805   0.645  -3.994  1.00  0.00     0.468 C 
ENDBRANCH   5   6
ENDBRANCH   1   5
TORSDOF 3
ENDMDL
MODEL 4
REMARK VINA RESULT:      -7.1      1.421      1.777
REMARK SMILES CC(=O)CCc1ccc2c(c1)OCO2
REMARK SMILES IDX 4 1 2 2 1 3 3 4 5 5 6 6 7 7 11 8 8 9 10 10 9 11 12 12 14 13
REMARK SMILES IDX 13 14
REMARK H PARENT
REMARK Flexibility Score: inf
ROOT
ATOM      1  C   UNL     1       6.548   1.367   0.189  1.00  0.00     0.080 C 
ENDROOT
BRANCH   1   2
ATOM      2  C   UNL     1       5.538   1.008   1.224  1.00  0.00     0.130 C 
ATOM      3  C   UNL     1       5.581  -0.296   1.937  1.00  0.00     0.087 C 
ATOM      4  O   UNL     1       4.641   1.781   1.518  1.00  0.00    -0.300 OA
ENDBRANCH   1   2
BRANCH   1   5
ATOM      5  C   UNL     1       6.125   0.881  -1.183  1.00  0.00     0.043 C 
BRANCH   5   6
ATOM      6  C   UNL     1       7.150   0.017  -1.797  1.00  0.00    -0.044 A 
ATOM      7  C   UNL     1       8.069   0.518  -2.726  1.00  0.00     0.008 A 
ATOM      8  C   UNL     1       7.216  -1.314  -1.453  1.00  0.00     0.054 A 
ATOM      9  C   UNL     1       9.010  -0.340  -3.268  1.00  0.00     0.051 A 
ATOM     10  C   UNL     1       8.169  -2.176  -2.003  1.00  0.00     0.166 A 
ATOM     11  C   UNL     1       9.073  -1.685  -2.918  1.00  0.00     0.165 A 
ATOM     12  O   UNL     1       8.435  -3.517  -1.827  1.00  0.00    -0.454 OA
ATOM     13  O   UNL     1       9.884  -2.746  -3.289  1.00  0.00    -0.454 OA
ATOM     14  C   UNL     1       9.573  -3.905  -2.554  1.00  0.00     0.468 C 
ENDBRANCH   5   6
ENDBRANCH   1   5
TORSDOF 3
ENDMDL
MODEL 5
REMARK VINA RESULT:      -7.1      2.195      2.799
REMARK SMILES CC(=O)CCc1ccc2c(c1)OCO2
REMARK SMILES IDX 4 1 2 2 1 3 3 4 5 5 6 6 7 7 11 8 8 9 10 10 9 11 12 12 14 13
REMARK SMILES IDX 13 14
REMARK H PARENT
REMARK Flexibility Score: inf
ROOT
ATOM      1  C   UNL     1       5.369  -0.107   2.013  1.00  0.00     0.080 C 
ENDROOT
BRANCH   1   2
ATOM      2  C   UNL     1       4.550   1.115   1.775  1.00  0.00     0.130 C 
ATOM      3  C   UNL     1       4.918   2.111   0.733  1.00  0.00     0.087 C 
ATOM      4  O   UNL     1       3.546   1.334   2.433  1.00  0.00    -0.300 OA
ENDBRANCH   1   2
BRANCH   1   5
ATOM      5  C   UNL     1       6.821   0.124   1.645  1.00  0.00     0.043 C 
BRANCH   5   6
ATOM      6  C   UNL     1       7.260  -0.776   0.564  1.00  0.00    -0.044 A 
ATOM      7  C   UNL     1       7.138  -0.417  -0.784  1.00  0.00     0.008 A 
ATOM      8  C   UNL     1       7.808  -2.000   0.874  1.00  0.00     0.054 A 
ATOM      9  C   UNL     1       7.568  -1.302  -1.756  1.00  0.00     0.051 A 
ATOM     10  C   UNL     1       8.242  -2.890  -0.112  1.00  0.00     0.166 A 
ATOM     11  C   UNL     1       8.121  -2.538  -1.438  1.00  0.00     0.165 A 
ATOM     12  O   UNL     1       8.811  -4.145  -0.060  1.00  0.00    -0.454 OA
ATOM     13  O   UNL     1       8.624  -3.595  -2.181  1.00  0.00    -0.454 OA
ATOM     14  C   UNL     1       9.155  -4.596  -1.345  1.00  0.00     0.468 C 
ENDBRANCH   5   6
ENDBRANCH   1   5
TORSDOF 3
ENDMDL
