@<TRIPOS>MOLECULE
/home/cewinharhar/GITHUB/reincatalyze/data/processed/docking_pred/2023-May-23-1437_sub9_nm5_bs15_s42_ex16_mel10_mts10000_k50_ec02_g099_lra3e-4_lrc1e-3/b5f7d4a2d914252a6bbd971338c7ac1ea6a3e46f_ligand_9.pdbqt
 14 15 0 0 0
SMALL
GASTEIGER

@<TRIPOS>ATOM
      1  C          6.5480    1.3670    0.1890 C.3     1  UNL1        0.0800
      2  C          5.5380    1.0080    1.2240 C.2     1  UNL1        0.1300
      3  C          5.5810   -0.2960    1.9370 C.3     1  UNL1        0.0870
      4  O          4.6410    1.7810    1.5180 O.2     1  UNL1       -0.3000
      5  C          6.1250    0.8810   -1.1830 C.3     1  UNL1        0.0430
      6  C          7.1500    0.0170   -1.7970 C.2     1  UNL1       -0.0440
      7  C          8.0690    0.5180   -2.7260 C.2     1  UNL1        0.0080
      8  C          7.2160   -1.3140   -1.4530 C.2     1  UNL1        0.0540
      9  C          9.0100   -0.3400   -3.2680 C.2     1  UNL1        0.0510
     10  C          8.1690   -2.1760   -2.0030 C.2     1  UNL1        0.1660
     11  C          9.0730   -1.6850   -2.9180 C.2     1  UNL1        0.1650
     12  O          8.4350   -3.5170   -1.8270 O.2     1  UNL1       -0.4540
     13  O          9.8840   -2.7460   -3.2890 O.2     1  UNL1       -0.4540
     14  C          9.5730   -3.9050   -2.5540 C.3     1  UNL1        0.4680
@<TRIPOS>BOND
     1    13    11    1
     2    13    14    1
     3     9    11    2
     4     9     7    1
     5    11    10    1
     6     7     6    2
     7    14    12    1
     8    10    12    1
     9    10     8    2
    10     6     8    1
    11     6     5    1
    12     5     1    1
    13     1     2    1
    14     2     4    2
    15     2     3    1
