@<TRIPOS>MOLECULE
/home/cewinharhar/GITHUB/reincatalyze/data/processed/docking_pred/2023-May-23-1437_sub9_nm5_bs15_s42_ex16_mel10_mts10000_k50_ec02_g099_lra3e-4_lrc1e-3/b5f7d4a2d914252a6bbd971338c7ac1ea6a3e46f_ligand_9.pdbqt
 14 15 0 0 0
SMALL
GASTEIGER

@<TRIPOS>ATOM
      1  C          6.0460    1.3600    1.1250 C.3     1  UNL1        0.0800
      2  C          5.5130    0.2790    2.0000 C.2     1  UNL1        0.1300
      3  C          6.2970   -0.9530    2.2850 C.3     1  UNL1        0.0870
      4  O          4.4090    0.3740    2.5110 O.2     1  UNL1       -0.3000
      5  C          5.6760    1.1270   -0.3260 C.3     1  UNL1        0.0430
      6  C          6.7870    0.5230   -1.0830 C.2     1  UNL1       -0.0440
      7  C          6.6270   -0.6750   -1.7900 C.2     1  UNL1        0.0080
      8  C          8.0150    1.1440   -1.1050 C.2     1  UNL1        0.0540
      9  C          7.7050   -1.1940   -2.4830 C.2     1  UNL1        0.0510
     10  C          9.1020    0.6150   -1.8070 C.2     1  UNL1        0.1660
     11  C          8.9450   -0.5640   -2.5020 C.2     1  UNL1        0.1650
     12  O         10.4040    1.0340   -1.9800 O.2     1  UNL1       -0.4540
     13  O         10.1670   -0.8460   -3.0940 O.2     1  UNL1       -0.4540
     14  C         11.0940    0.1880   -2.8640 C.3     1  UNL1        0.4680
@<TRIPOS>BOND
     1    13    14    1
     2    13    11    1
     3    14    12    1
     4    11     9    2
     5    11    10    1
     6     9     7    1
     7    12    10    1
     8    10     8    2
     9     7     6    2
    10     8     6    1
    11     6     5    1
    12     5     1    1
    13     1     2    1
    14     2     3    1
    15     2     4    2
