@<TRIPOS>MOLECULE
/home/cewinharhar/GITHUB/reincatalyze/data/processed/docking_pred/2023-May-23-1437_sub9_nm5_bs15_s42_ex16_mel10_mts10000_k50_ec02_g099_lra3e-4_lrc1e-3/b5f7d4a2d914252a6bbd971338c7ac1ea6a3e46f_ligand_9.pdbqt
 14 15 0 0 0
SMALL
GASTEIGER

@<TRIPOS>ATOM
      1  C          5.5680    1.7600    1.1530 C.3     1  UNL1        0.0800
      2  C          5.0860    0.5790    1.9210 C.2     1  UNL1        0.1300
      3  C          5.8610   -0.6900    1.9700 C.3     1  UNL1        0.0870
      4  O          4.0330    0.6180    2.5370 O.2     1  UNL1       -0.3000
      5  C          5.4570    1.5290   -0.3410 C.3     1  UNL1        0.0430
      6  C          6.7010    0.9720   -0.9010 C.2     1  UNL1       -0.0440
      7  C          7.9580    1.4580   -0.5220 C.2     1  UNL1        0.0080
      8  C          6.6380   -0.0530   -1.8180 C.2     1  UNL1        0.0540
      9  C          9.0910    0.8960   -1.0810 C.2     1  UNL1        0.0510
     10  C          7.7870   -0.6180   -2.3790 C.2     1  UNL1        0.1660
     11  C          9.0240   -0.1390   -2.0080 C.2     1  UNL1        0.1650
     12  O          7.9850   -1.6280   -3.2960 O.2     1  UNL1       -0.4540
     13  O          9.9650   -0.8740   -2.7120 O.2     1  UNL1       -0.4540
     14  C          9.3540   -1.8890   -3.4710 C.3     1  UNL1        0.4680
@<TRIPOS>BOND
     1    14    12    1
     2    14    13    1
     3    12    10    1
     4    13    11    1
     5    10    11    2
     6    10     8    1
     7    11     9    1
     8     8     6    2
     9     9     7    2
    10     6     7    1
    11     6     5    1
    12     5     1    1
    13     1     2    1
    14     2     3    1
    15     2     4    2
