@<TRIPOS>MOLECULE
/home/cewinharhar/GITHUB/reincatalyze/data/processed/docking_pred/2023-May-23-1437_sub9_nm5_bs15_s42_ex16_mel10_mts10000_k50_ec02_g099_lra3e-4_lrc1e-3/b658f69152bbaa0d4df6d0fc1d77222c9f34aa3c_ligand_9.pdbqt
 14 15 0 0 0
SMALL
GASTEIGER

@<TRIPOS>ATOM
      1  C          6.4220    1.1920    0.9440 C.3     1  UNL1        0.0800
      2  C          5.6570    0.3950    1.9430 C.2     1  UNL1        0.1300
      3  C          6.2190   -0.8400    2.5530 C.3     1  UNL1        0.0870
      4  O          4.5380    0.7360    2.2910 O.2     1  UNL1       -0.3000
      5  C          5.9170    0.9410   -0.4640 C.3     1  UNL1        0.0430
      6  C          6.8410    0.0880   -1.2320 C.2     1  UNL1       -0.0440
      7  C          7.4930    0.5590   -2.3780 C.2     1  UNL1        0.0080
      8  C          7.0790   -1.2040   -0.8210 C.2     1  UNL1        0.0540
      9  C          8.3500   -0.2860   -3.0580 C.2     1  UNL1        0.0510
     10  C          7.9470   -2.0550   -1.5120 C.2     1  UNL1        0.1660
     11  C          8.5870   -1.5920   -2.6400 C.2     1  UNL1        0.1650
     12  O          8.3430   -3.3600   -1.3090 O.2     1  UNL1       -0.4540
     13  O          9.3720   -2.6330   -3.1110 O.2     1  UNL1       -0.4540
     14  C          9.3170   -3.7420   -2.2460 C.3     1  UNL1        0.4680
@<TRIPOS>BOND
     1    13    11    1
     2    13    14    1
     3     9    11    2
     4     9     7    1
     5    11    10    1
     6     7     6    2
     7    14    12    1
     8    10    12    1
     9    10     8    2
    10     6     8    1
    11     6     5    1
    12     5     1    1
    13     1     2    1
    14     2     4    2
    15     2     3    1
