@<TRIPOS>MOLECULE
/home/cewinharhar/GITHUB/reincatalyze/data/processed/docking_pred/2023-May-23-1437_sub9_nm5_bs15_s42_ex16_mel10_mts10000_k50_ec02_g099_lra3e-4_lrc1e-3/b658f69152bbaa0d4df6d0fc1d77222c9f34aa3c_ligand_9.pdbqt
 14 15 0 0 0
SMALL
GASTEIGER

@<TRIPOS>ATOM
      1  C          7.1100    1.0240    0.9600 C.3     1  UNL1        0.0800
      2  C          5.6680    1.3800    1.0770 C.2     1  UNL1        0.1300
      3  C          4.9660    2.1500    0.0150 C.3     1  UNL1        0.0870
      4  O          5.0180    1.0480    2.0550 O.2     1  UNL1       -0.3000
      5  C          7.5770    1.0840   -0.4810 C.3     1  UNL1        0.0430
      6  C          7.8480   -0.2590   -1.0240 C.2     1  UNL1       -0.0440
      7  C          7.8950   -0.4970   -2.4020 C.2     1  UNL1        0.0080
      8  C          8.0660   -1.3110   -0.1640 C.2     1  UNL1        0.0540
      9  C          8.1550   -1.7780   -2.8540 C.2     1  UNL1        0.0510
     10  C          8.3290   -2.6040   -0.6250 C.2     1  UNL1        0.1660
     11  C          8.3740   -2.8390   -1.9820 C.2     1  UNL1        0.1650
     12  O          8.5740   -3.8000    0.0170 O.2     1  UNL1       -0.4540
     13  O          8.6490   -4.1880   -2.1460 O.2     1  UNL1       -0.4540
     14  C          8.8740   -4.8150   -0.9060 C.3     1  UNL1        0.4680
@<TRIPOS>BOND
     1     9     7    1
     2     9    11    2
     3     7     6    2
     4    13    11    1
     5    13    14    1
     6    11    10    1
     7     6     5    1
     8     6     8    1
     9    14    12    1
    10    10     8    2
    11    10    12    1
    12     5     1    1
    13     3     2    1
    14     1     2    1
    15     2     4    2
