MODEL 1
REMARK VINA RESULT:      -7.6      0.000      0.000
REMARK SMILES CC(=O)CCc1ccc2c(c1)OCO2
REMARK SMILES IDX 4 1 2 2 1 3 3 4 5 5 6 6 7 7 11 8 8 9 10 10 9 11 12 12 14 13
REMARK SMILES IDX 13 14
REMARK H PARENT
REMARK Flexibility Score: inf
ROOT
ATOM      1  C   UNL     1       5.597   1.865   1.295  1.00  0.00     0.080 C 
ENDROOT
BRANCH   1   2
ATOM      2  C   UNL     1       5.147   0.658   2.043  1.00  0.00     0.130 C 
ATOM      3  C   UNL     1       6.035  -0.520   2.231  1.00  0.00     0.087 C 
ATOM      4  O   UNL     1       4.027   0.602   2.525  1.00  0.00    -0.300 OA
ENDBRANCH   1   2
BRANCH   1   5
ATOM      5  C   UNL     1       5.444   1.675  -0.201  1.00  0.00     0.043 C 
BRANCH   5   6
ATOM      6  C   UNL     1       6.605   0.980  -0.786  1.00  0.00    -0.044 A 
ATOM      7  C   UNL     1       7.913   1.429  -0.571  1.00  0.00     0.008 A 
ATOM      8  C   UNL     1       6.410  -0.141  -1.560  1.00  0.00     0.054 A 
ATOM      9  C   UNL     1       8.963   0.736  -1.145  1.00  0.00     0.051 A 
ATOM     10  C   UNL     1       7.475  -0.839  -2.137  1.00  0.00     0.166 A 
ATOM     11  C   UNL     1       8.762  -0.396  -1.928  1.00  0.00     0.165 A 
ATOM     12  O   UNL     1       7.541  -1.962  -2.934  1.00  0.00    -0.454 OA
ATOM     13  O   UNL     1       9.601  -1.266  -2.607  1.00  0.00    -0.454 OA
ATOM     14  C   UNL     1       8.875  -2.325  -3.184  1.00  0.00     0.468 C 
ENDBRANCH   5   6
ENDBRANCH   1   5
TORSDOF 3
ENDMDL
MODEL 2
REMARK VINA RESULT:      -7.4      1.847      2.293
REMARK SMILES CC(=O)CCc1ccc2c(c1)OCO2
REMARK SMILES IDX 4 1 2 2 1 3 3 4 5 5 6 6 7 7 11 8 8 9 10 10 9 11 12 12 14 13
REMARK SMILES IDX 13 14
REMARK H PARENT
REMARK Flexibility Score: inf
ROOT
ATOM      1  C   UNL     1       5.733   1.436  -0.305  1.00  0.00     0.080 C 
ENDROOT
BRANCH   1   2
ATOM      2  C   UNL     1       5.153   1.290   1.059  1.00  0.00     0.130 C 
ATOM      3  C   UNL     1       5.435   0.099   1.904  1.00  0.00     0.087 C 
ATOM      4  O   UNL     1       4.423   2.150   1.525  1.00  0.00    -0.300 OA
ENDBRANCH   1   2
BRANCH   1   5
ATOM      5  C   UNL     1       7.234   1.221  -0.290  1.00  0.00     0.043 C 
BRANCH   5   6
ATOM      6  C   UNL     1       7.607  -0.069  -0.897  1.00  0.00    -0.044 A 
ATOM      7  C   UNL     1       7.655  -0.239  -2.286  1.00  0.00     0.008 A 
ATOM      8  C   UNL     1       7.919  -1.138  -0.089  1.00  0.00     0.054 A 
ATOM      9  C   UNL     1       8.013  -1.473  -2.798  1.00  0.00     0.051 A 
ATOM     10  C   UNL     1       8.281  -2.383  -0.612  1.00  0.00     0.166 A 
ATOM     11  C   UNL     1       8.328  -2.552  -1.978  1.00  0.00     0.165 A 
ATOM     12  O   UNL     1       8.630  -3.582  -0.028  1.00  0.00    -0.454 OA
ATOM     13  O   UNL     1       8.710  -3.864  -2.206  1.00  0.00    -0.454 OA
ATOM     14  C   UNL     1       8.999  -4.527  -0.999  1.00  0.00     0.468 C 
ENDBRANCH   5   6
ENDBRANCH   1   5
TORSDOF 3
ENDMDL
MODEL 3
REMARK VINA RESULT:      -7.2      2.048      2.601
REMARK SMILES CC(=O)CCc1ccc2c(c1)OCO2
REMARK SMILES IDX 4 1 2 2 1 3 3 4 5 5 6 6 7 7 11 8 8 9 10 10 9 11 12 12 14 13
REMARK SMILES IDX 13 14
REMARK H PARENT
REMARK Flexibility Score: inf
ROOT
ATOM      1  C   UNL     1       5.477  -0.032   1.999  1.00  0.00     0.080 C 
ENDROOT
BRANCH   1   2
ATOM      2  C   UNL     1       4.611   1.154   1.749  1.00  0.00     0.130 C 
ATOM      3  C   UNL     1       4.922   2.135   0.675  1.00  0.00     0.087 C 
ATOM      4  O   UNL     1       3.615   1.356   2.424  1.00  0.00    -0.300 OA
ENDBRANCH   1   2
BRANCH   1   5
ATOM      5  C   UNL     1       6.902   0.221   1.548  1.00  0.00     0.043 C 
BRANCH   5   6
ATOM      6  C   UNL     1       7.317  -0.720   0.493  1.00  0.00    -0.044 A 
ATOM      7  C   UNL     1       7.182  -0.406  -0.864  1.00  0.00     0.008 A 
ATOM      8  C   UNL     1       7.854  -1.939   0.839  1.00  0.00     0.054 A 
ATOM      9  C   UNL     1       7.590  -1.328  -1.810  1.00  0.00     0.051 A 
ATOM     10  C   UNL     1       8.266  -2.868  -0.121  1.00  0.00     0.166 A 
ATOM     11  C   UNL     1       8.132  -2.560  -1.457  1.00  0.00     0.165 A 
ATOM     12  O   UNL     1       8.821  -4.127  -0.034  1.00  0.00    -0.454 OA
ATOM     13  O   UNL     1       8.613  -3.648  -2.169  1.00  0.00    -0.454 OA
ATOM     14  C   UNL     1       9.143  -4.626  -1.306  1.00  0.00     0.468 C 
ENDBRANCH   5   6
ENDBRANCH   1   5
TORSDOF 3
ENDMDL
MODEL 4
REMARK VINA RESULT:      -7.1      1.216      1.377
REMARK SMILES CC(=O)CCc1ccc2c(c1)OCO2
REMARK SMILES IDX 4 1 2 2 1 3 3 4 5 5 6 6 7 7 11 8 8 9 10 10 9 11 12 12 14 13
REMARK SMILES IDX 13 14
REMARK H PARENT
REMARK Flexibility Score: inf
ROOT
ATOM      1  C   UNL     1       6.322   1.281   0.861  1.00  0.00     0.080 C 
ENDROOT
BRANCH   1   2
ATOM      2  C   UNL     1       5.661   0.462   1.915  1.00  0.00     0.130 C 
ATOM      3  C   UNL     1       6.308  -0.753   2.480  1.00  0.00     0.087 C 
ATOM      4  O   UNL     1       4.561   0.766   2.348  1.00  0.00    -0.300 OA
ENDBRANCH   1   2
BRANCH   1   5
ATOM      5  C   UNL     1       5.806   0.922  -0.519  1.00  0.00     0.043 C 
BRANCH   5   6
ATOM      6  C   UNL     1       6.782   0.118  -1.275  1.00  0.00    -0.044 A 
ATOM      7  C   UNL     1       7.509   0.660  -2.341  1.00  0.00     0.008 A 
ATOM      8  C   UNL     1       6.993  -1.198  -0.932  1.00  0.00     0.054 A 
ATOM      9  C   UNL     1       8.413  -0.143  -3.014  1.00  0.00     0.051 A 
ATOM     10  C   UNL     1       7.907  -2.006  -1.615  1.00  0.00     0.166 A 
ATOM     11  C   UNL     1       8.623  -1.474  -2.665  1.00  0.00     0.165 A 
ATOM     12  O   UNL     1       8.290  -3.322  -1.469  1.00  0.00    -0.454 OA
ATOM     13  O   UNL     1       9.440  -2.485  -3.146  1.00  0.00    -0.454 OA
ATOM     14  C   UNL     1       9.327  -3.647  -2.359  1.00  0.00     0.468 C 
ENDBRANCH   5   6
ENDBRANCH   1   5
TORSDOF 3
ENDMDL
MODEL 5
REMARK VINA RESULT:      -7.0      1.920      2.541
REMARK SMILES CC(=O)CCc1ccc2c(c1)OCO2
REMARK SMILES IDX 4 1 2 2 1 3 3 4 5 5 6 6 7 7 11 8 8 9 10 10 9 11 12 12 14 13
REMARK SMILES IDX 13 14
REMARK H PARENT
REMARK Flexibility Score: inf
ROOT
ATOM      1  C   UNL     1       6.647   0.929   1.275  1.00  0.00     0.080 C 
ENDROOT
BRANCH   1   2
ATOM      2  C   UNL     1       5.325   1.561   1.009  1.00  0.00     0.130 C 
ATOM      3  C   UNL     1       4.995   2.150  -0.317  1.00  0.00     0.087 C 
ATOM      4  O   UNL     1       4.470   1.615   1.877  1.00  0.00    -0.300 OA
ENDBRANCH   1   2
BRANCH   1   5
ATOM      5  C   UNL     1       7.594   1.117   0.106  1.00  0.00     0.043 C 
BRANCH   5   6
ATOM      6  C   UNL     1       7.854  -0.152  -0.597  1.00  0.00    -0.044 A 
ATOM      7  C   UNL     1       7.853  -0.230  -1.994  1.00  0.00     0.008 A 
ATOM      8  C   UNL     1       8.106  -1.294   0.129  1.00  0.00     0.054 A 
ATOM      9  C   UNL     1       8.105  -1.448  -2.599  1.00  0.00     0.051 A 
ATOM     10  C   UNL     1       8.360  -2.523  -0.487  1.00  0.00     0.166 A 
ATOM     11  C   UNL     1       8.359  -2.601  -1.862  1.00  0.00     0.165 A 
ATOM     12  O   UNL     1       8.634  -3.782   0.005  1.00  0.00    -0.454 OA
ATOM     13  O   UNL     1       8.636  -3.919  -2.189  1.00  0.00    -0.454 OA
ATOM     14  C   UNL     1       8.907  -4.683  -1.038  1.00  0.00     0.468 C 
ENDBRANCH   5   6
ENDBRANCH   1   5
TORSDOF 3
ENDMDL
