@<TRIPOS>MOLECULE
/home/cewinharhar/GITHUB/reincatalyze/data/processed/docking_pred/2023-May-23-1437_sub9_nm5_bs15_s42_ex16_mel10_mts10000_k50_ec02_g099_lra3e-4_lrc1e-3/b96cff3dd76f6e411b830514c936223970a7489e_ligand_9.pdbqt
 14 15 0 0 0
SMALL
GASTEIGER

@<TRIPOS>ATOM
      1  C          5.4770   -0.0320    1.9990 C.3     1  UNL1        0.0800
      2  C          4.6110    1.1540    1.7490 C.2     1  UNL1        0.1300
      3  C          4.9220    2.1350    0.6750 C.3     1  UNL1        0.0870
      4  O          3.6150    1.3560    2.4240 O.2     1  UNL1       -0.3000
      5  C          6.9020    0.2210    1.5480 C.3     1  UNL1        0.0430
      6  C          7.3170   -0.7200    0.4930 C.2     1  UNL1       -0.0440
      7  C          7.1820   -0.4060   -0.8640 C.2     1  UNL1        0.0080
      8  C          7.8540   -1.9390    0.8390 C.2     1  UNL1        0.0540
      9  C          7.5900   -1.3280   -1.8100 C.2     1  UNL1        0.0510
     10  C          8.2660   -2.8680   -0.1210 C.2     1  UNL1        0.1660
     11  C          8.1320   -2.5600   -1.4570 C.2     1  UNL1        0.1650
     12  O          8.8210   -4.1270   -0.0340 O.2     1  UNL1       -0.4540
     13  O          8.6130   -3.6480   -2.1690 O.2     1  UNL1       -0.4540
     14  C          9.1430   -4.6260   -1.3060 C.3     1  UNL1        0.4680
@<TRIPOS>BOND
     1    13    11    1
     2    13    14    1
     3     9    11    2
     4     9     7    1
     5    11    10    1
     6    14    12    1
     7     7     6    2
     8    10    12    1
     9    10     8    2
    10     6     8    1
    11     6     5    1
    12     3     2    1
    13     5     1    1
    14     2     1    1
    15     2     4    2
