@<TRIPOS>MOLECULE
/home/cewinharhar/GITHUB/reincatalyze/data/processed/docking_pred/2023-May-23-1437_sub9_nm5_bs15_s42_ex16_mel10_mts10000_k50_ec02_g099_lra3e-4_lrc1e-3/b96cff3dd76f6e411b830514c936223970a7489e_ligand_9.pdbqt
 14 15 0 0 0
SMALL
GASTEIGER

@<TRIPOS>ATOM
      1  C          5.5970    1.8650    1.2950 C.3     1  UNL1        0.0800
      2  C          5.1470    0.6580    2.0430 C.2     1  UNL1        0.1300
      3  C          6.0350   -0.5200    2.2310 C.3     1  UNL1        0.0870
      4  O          4.0270    0.6020    2.5250 O.2     1  UNL1       -0.3000
      5  C          5.4440    1.6750   -0.2010 C.3     1  UNL1        0.0430
      6  C          6.6050    0.9800   -0.7860 C.2     1  UNL1       -0.0440
      7  C          7.9130    1.4290   -0.5710 C.2     1  UNL1        0.0080
      8  C          6.4100   -0.1410   -1.5600 C.2     1  UNL1        0.0540
      9  C          8.9630    0.7360   -1.1450 C.2     1  UNL1        0.0510
     10  C          7.4750   -0.8390   -2.1370 C.2     1  UNL1        0.1660
     11  C          8.7620   -0.3960   -1.9280 C.2     1  UNL1        0.1650
     12  O          7.5410   -1.9620   -2.9340 O.2     1  UNL1       -0.4540
     13  O          9.6010   -1.2660   -2.6070 O.2     1  UNL1       -0.4540
     14  C          8.8750   -2.3250   -3.1840 C.3     1  UNL1        0.4680
@<TRIPOS>BOND
     1    14    12    1
     2    14    13    1
     3    12    10    1
     4    13    11    1
     5    10    11    2
     6    10     8    1
     7    11     9    1
     8     8     6    2
     9     9     7    2
    10     6     7    1
    11     6     5    1
    12     5     1    1
    13     1     2    1
    14     2     3    1
    15     2     4    2
