@<TRIPOS>MOLECULE
/home/cewinharhar/GITHUB/reincatalyze/data/processed/docking_pred/2023-May-23-1437_sub9_nm5_bs15_s42_ex16_mel10_mts10000_k50_ec02_g099_lra3e-4_lrc1e-3/b99eeed02ad73e34178363463c07c25b6fbf2bee_ligand_9.pdbqt
 14 15 0 0 0
SMALL
GASTEIGER

@<TRIPOS>ATOM
      1  C          5.6350    1.3680   -0.2610 C.3     1  UNL1        0.0800
      2  C          5.0410    1.2330    1.0990 C.2     1  UNL1        0.1300
      3  C          5.3300    0.0580    1.9640 C.3     1  UNL1        0.0870
      4  O          4.2950    2.0900    1.5440 O.2     1  UNL1       -0.3000
      5  C          7.1360    1.1570   -0.2290 C.3     1  UNL1        0.0430
      6  C          7.5200   -0.1310   -0.8330 C.2     1  UNL1       -0.0440
      7  C          7.5640   -0.3060   -2.2210 C.2     1  UNL1        0.0080
      8  C          7.8470   -1.1940   -0.0220 C.2     1  UNL1        0.0540
      9  C          7.9320   -1.5380   -2.7300 C.2     1  UNL1        0.0510
     10  C          8.2190   -2.4370   -0.5420 C.2     1  UNL1        0.1660
     11  C          8.2620   -2.6100   -1.9080 C.2     1  UNL1        0.1650
     12  O          8.5840   -3.6310    0.0440 O.2     1  UNL1       -0.4540
     13  O          8.6570   -3.9200   -2.1340 O.2     1  UNL1       -0.4540
     14  C          8.9590   -4.5750   -0.9250 C.3     1  UNL1        0.4680
@<TRIPOS>BOND
     1     9     7    1
     2     9    11    2
     3     7     6    2
     4    13    11    1
     5    13    14    1
     6    11    10    1
     7    14    12    1
     8     6     5    1
     9     6     8    1
    10    10     8    2
    11    10    12    1
    12     1     5    1
    13     1     2    1
    14     2     4    2
    15     2     3    1
