@<TRIPOS>MOLECULE
/home/cewinharhar/GITHUB/reincatalyze/data/processed/docking_pred/2023-May-23-1437_sub9_nm5_bs15_s42_ex16_mel10_mts10000_k50_ec02_g099_lra3e-4_lrc1e-3/b99eeed02ad73e34178363463c07c25b6fbf2bee_ligand_9.pdbqt
 14 15 0 0 0
SMALL
GASTEIGER

@<TRIPOS>ATOM
      1  C          6.8740    0.8550    1.2140 C.3     1  UNL1        0.0800
      2  C          5.4350    1.1720    1.4290 C.2     1  UNL1        0.1300
      3  C          4.7140    2.1500    0.5710 C.3     1  UNL1        0.0870
      4  O          4.8010    0.6350    2.3230 O.2     1  UNL1       -0.3000
      5  C          7.2610    1.0150   -0.2430 C.3     1  UNL1        0.0430
      6  C          7.6340   -0.2730   -0.8540 C.2     1  UNL1       -0.0440
      7  C          7.6710   -0.4430   -2.2430 C.2     1  UNL1        0.0080
      8  C          7.9590   -1.3410   -0.0490 C.2     1  UNL1        0.0540
      9  C          8.0290   -1.6750   -2.7590 C.2     1  UNL1        0.0510
     10  C          8.3220   -2.5840   -0.5760 C.2     1  UNL1        0.1660
     11  C          8.3560   -2.7520   -1.9430 C.2     1  UNL1        0.1650
     12  O          8.6820   -3.7820    0.0040 O.2     1  UNL1       -0.4540
     13  O          8.7420   -4.0630   -2.1760 O.2     1  UNL1       -0.4540
     14  C          9.0470   -4.7250   -0.9710 C.3     1  UNL1        0.4680
@<TRIPOS>BOND
     1     9     7    1
     2     9    11    2
     3     7     6    2
     4    13    11    1
     5    13    14    1
     6    11    10    1
     7    14    12    1
     8     6     5    1
     9     6     8    1
    10    10     8    2
    11    10    12    1
    12     5     1    1
    13     3     2    1
    14     1     2    1
    15     2     4    2
