@<TRIPOS>MOLECULE
/home/cewinharhar/GITHUB/reincatalyze/data/processed/docking_pred/2023-May-23-1437_sub9_nm5_bs15_s42_ex16_mel10_mts10000_k50_ec02_g099_lra3e-4_lrc1e-3/ba254a63d1f23417312e0ffefa4719b754a9a4bf_ligand_9.pdbqt
 14 15 0 0 0
SMALL
GASTEIGER

@<TRIPOS>ATOM
      1  C          6.3330    1.2620    0.8670 C.3     1  UNL1        0.0800
      2  C          5.6620    0.4510    1.9200 C.2     1  UNL1        0.1300
      3  C          6.2980   -0.7660    2.4920 C.3     1  UNL1        0.0870
      4  O          4.5610    0.7630    2.3450 O.2     1  UNL1       -0.3000
      5  C          5.8140    0.9110   -0.5140 C.3     1  UNL1        0.0430
      6  C          6.7830    0.0980   -1.2710 C.2     1  UNL1       -0.0440
      7  C          7.4890    0.6240   -2.3590 C.2     1  UNL1        0.0080
      8  C          7.0080   -1.2100   -0.9070 C.2     1  UNL1        0.0540
      9  C          8.3850   -0.1860   -3.0320 C.2     1  UNL1        0.0510
     10  C          7.9160   -2.0240   -1.5900 C.2     1  UNL1        0.1660
     11  C          8.6100   -1.5080   -2.6620 C.2     1  UNL1        0.1650
     12  O          8.3100   -3.3350   -1.4260 O.2     1  UNL1       -0.4540
     13  O          9.4250   -2.5230   -3.1380 O.2     1  UNL1       -0.4540
     14  C          9.3330   -3.6710   -2.3280 C.3     1  UNL1        0.4680
@<TRIPOS>BOND
     1    13    11    1
     2    13    14    1
     3     9    11    2
     4     9     7    1
     5    11    10    1
     6     7     6    2
     7    14    12    1
     8    10    12    1
     9    10     8    2
    10     6     8    1
    11     6     5    1
    12     5     1    1
    13     1     2    1
    14     2     4    2
    15     2     3    1
