@<TRIPOS>MOLECULE
/home/cewinharhar/GITHUB/reincatalyze/data/processed/docking_pred/2023-May-23-1437_sub9_nm5_bs15_s42_ex16_mel10_mts10000_k50_ec02_g099_lra3e-4_lrc1e-3/ba254a63d1f23417312e0ffefa4719b754a9a4bf_ligand_9.pdbqt
 14 15 0 0 0
SMALL
GASTEIGER

@<TRIPOS>ATOM
      1  C          5.5080    1.9340    1.2590 C.3     1  UNL1        0.0800
      2  C          5.0700    0.7190    2.0020 C.2     1  UNL1        0.1300
      3  C          5.9620   -0.4600    2.1670 C.3     1  UNL1        0.0870
      4  O          3.9570    0.6560    2.4990 O.2     1  UNL1       -0.3000
      5  C          5.3840    1.7370   -0.2390 C.3     1  UNL1        0.0430
      6  C          6.5550    1.0360   -0.7970 C.2     1  UNL1       -0.0440
      7  C          7.8600    1.4710   -0.5400 C.2     1  UNL1        0.0080
      8  C          6.3710   -0.0740   -1.5880 C.2     1  UNL1        0.0540
      9  C          8.9200    0.7730   -1.0900 C.2     1  UNL1        0.0510
     10  C          7.4460   -0.7770   -2.1410 C.2     1  UNL1        0.1660
     11  C          8.7310   -0.3490   -1.8900 C.2     1  UNL1        0.1650
     12  O          7.5240   -1.8920   -2.9480 O.2     1  UNL1       -0.4540
     13  O          9.5800   -1.2210   -2.5550 O.2     1  UNL1       -0.4540
     14  C          8.8610   -2.2660   -3.1630 C.3     1  UNL1        0.4680
@<TRIPOS>BOND
     1    14    12    1
     2    14    13    1
     3    12    10    1
     4    13    11    1
     5    10    11    2
     6    10     8    1
     7    11     9    1
     8     8     6    2
     9     9     7    2
    10     6     7    1
    11     6     5    1
    12     5     1    1
    13     1     2    1
    14     2     3    1
    15     2     4    2
