@<TRIPOS>MOLECULE
/home/cewinharhar/GITHUB/reincatalyze/data/processed/docking_pred/2023-May-23-1437_sub9_nm5_bs15_s42_ex16_mel10_mts10000_k50_ec02_g099_lra3e-4_lrc1e-3/bae690ffab80532c90b6f683492bf7de3cce581e_ligand_9.pdbqt
 14 15 0 0 0
SMALL
GASTEIGER

@<TRIPOS>ATOM
      1  C          5.3970   -0.0740    2.0480 C.3     1  UNL1        0.0800
      2  C          4.5490    1.1210    1.7790 C.2     1  UNL1        0.1300
      3  C          4.9010    2.1040    0.7190 C.3     1  UNL1        0.0870
      4  O          3.5350    1.3280    2.4250 O.2     1  UNL1       -0.3000
      5  C          6.8380    0.1700    1.6450 C.3     1  UNL1        0.0430
      6  C          7.2680   -0.7440    0.5720 C.2     1  UNL1       -0.0440
      7  C          7.1400   -0.4010   -0.7790 C.2     1  UNL1        0.0080
      8  C          7.8110   -1.9670    0.8950 C.2     1  UNL1        0.0540
      9  C          7.5620   -1.2990   -1.7420 C.2     1  UNL1        0.0510
     10  C          8.2370   -2.8710   -0.0830 C.2     1  UNL1        0.1660
     11  C          8.1110   -2.5340   -1.4120 C.2     1  UNL1        0.1650
     12  O          8.8000   -4.1280   -0.0190 O.2     1  UNL1       -0.4540
     13  O          8.6050   -3.6020   -2.1440 O.2     1  UNL1       -0.4540
     14  C          9.1360   -4.5950   -1.3000 C.3     1  UNL1        0.4680
@<TRIPOS>BOND
     1    13    11    1
     2    13    14    1
     3     9    11    2
     4     9     7    1
     5    11    10    1
     6    14    12    1
     7     7     6    2
     8    10    12    1
     9    10     8    2
    10     6     8    1
    11     6     5    1
    12     3     2    1
    13     5     1    1
    14     2     1    1
    15     2     4    2
