@<TRIPOS>MOLECULE
/home/cewinharhar/GITHUB/reincatalyze/data/processed/docking_pred/2023-May-23-1437_sub9_nm5_bs15_s42_ex16_mel10_mts10000_k50_ec02_g099_lra3e-4_lrc1e-3/bb509c9d750c31c787a0dfaad7ceec12964b61ea_ligand_9.pdbqt
 14 15 0 0 0
SMALL
GASTEIGER

@<TRIPOS>ATOM
      1  C          8.0750   -1.7620   -2.3680 C.3     1  UNL1        0.0800
      2  C          8.7650   -0.4420   -2.4110 C.2     1  UNL1        0.1300
      3  C          8.2390    0.6870   -3.2240 C.3     1  UNL1        0.0870
      4  O          9.7900   -0.2500   -1.7770 O.2     1  UNL1       -0.3000
      5  C          8.1870   -2.3960   -0.9960 C.3     1  UNL1        0.0430
      6  C          7.3490   -1.7010   -0.0020 C.2     1  UNL1       -0.0440
      7  C          7.2680   -2.1400    1.3240 C.2     1  UNL1        0.0080
      8  C          6.6250   -0.5920   -0.3770 C.2     1  UNL1        0.0540
      9  C          6.4660   -1.4480    2.2130 C.2     1  UNL1        0.0510
     10  C          5.8160    0.1050    0.5260 C.2     1  UNL1        0.1660
     11  C          5.7360   -0.3270    1.8310 C.2     1  UNL1        0.1650
     12  O          5.0120    1.2180    0.4000 O.2     1  UNL1       -0.4540
     13  O          4.8750    0.5400    2.4870 O.2     1  UNL1       -0.4540
     14  C          4.4650    1.5870    1.6400 C.3     1  UNL1        0.4680
@<TRIPOS>BOND
     1     3     2    1
     2     2     1    1
     3     2     4    2
     4     1     5    1
     5     5     6    1
     6     8     6    2
     7     8    10    1
     8     6     7    1
     9    12    10    1
    10    12    14    1
    11    10    11    2
    12     7     9    2
    13    14    13    1
    14    11     9    1
    15    11    13    1
