@<TRIPOS>MOLECULE
/home/cewinharhar/GITHUB/reincatalyze/data/processed/docking_pred/2023-May-23-1437_sub9_nm5_bs15_s42_ex16_mel10_mts10000_k50_ec02_g099_lra3e-4_lrc1e-3/bb509c9d750c31c787a0dfaad7ceec12964b61ea_ligand_9.pdbqt
 14 15 0 0 0
SMALL
GASTEIGER

@<TRIPOS>ATOM
      1  C          5.3700   -0.2880    2.1490 C.3     1  UNL1        0.0800
      2  C          4.4650    0.8730    1.9210 C.2     1  UNL1        0.1300
      3  C          4.7060    1.8460    0.8230 C.3     1  UNL1        0.0870
      4  O          3.4930    1.0590    2.6360 O.2     1  UNL1       -0.3000
      5  C          6.7860    0.0220    1.7070 C.3     1  UNL1        0.0430
      6  C          7.2270   -0.8700    0.6210 C.2     1  UNL1       -0.0440
      7  C          7.0620   -0.5240   -0.7250 C.2     1  UNL1        0.0080
      8  C          7.8200   -2.0750    0.9250 C.2     1  UNL1        0.0540
      9  C          7.4970   -1.4010   -1.7020 C.2     1  UNL1        0.0510
     10  C          8.2580   -2.9580   -0.0660 C.2     1  UNL1        0.1660
     11  C          8.0950   -2.6180   -1.3910 C.2     1  UNL1        0.1650
     12  O          8.8660   -4.1940   -0.0210 O.2     1  UNL1       -0.4540
     13  O          8.6130   -3.6640   -2.1390 O.2     1  UNL1       -0.4540
     14  C          9.1940   -4.6430   -1.3110 C.3     1  UNL1        0.4680
@<TRIPOS>BOND
     1    13    11    1
     2    13    14    1
     3     9    11    2
     4     9     7    1
     5    11    10    1
     6    14    12    1
     7     7     6    2
     8    10    12    1
     9    10     8    2
    10     6     8    1
    11     6     5    1
    12     3     2    1
    13     5     1    1
    14     2     1    1
    15     2     4    2
