@<TRIPOS>MOLECULE
/home/cewinharhar/GITHUB/reincatalyze/data/processed/docking_pred/2023-May-23-1437_sub9_nm5_bs15_s42_ex16_mel10_mts10000_k50_ec02_g099_lra3e-4_lrc1e-3/bde4f716ac8ce10fa2b7126593b1b8cc9fcb83f2_ligand_9.pdbqt
 14 15 0 0 0
SMALL
GASTEIGER

@<TRIPOS>ATOM
      1  C          5.3370   -0.0590    1.9860 C.3     1  UNL1        0.0800
      2  C          4.4590    1.1300    1.8010 C.2     1  UNL1        0.1300
      3  C          4.7360    2.1500    0.7540 C.3     1  UNL1        0.0870
      4  O          3.4800    1.3030    2.5080 O.2     1  UNL1       -0.3000
      5  C          6.8020    0.3210    1.9040 C.3     1  UNL1        0.0430
      6  C          7.3910   -0.0510    0.6050 C.2     1  UNL1       -0.0440
      7  C          7.8480    0.9170   -0.2970 C.2     1  UNL1        0.0080
      8  C          7.5000   -1.3790    0.2610 C.2     1  UNL1        0.0540
      9  C          8.3930    0.5080   -1.5010 C.2     1  UNL1        0.0510
     10  C          8.0520   -1.7870   -0.9570 C.2     1  UNL1        0.1660
     11  C          8.5010   -0.8350   -1.8450 C.2     1  UNL1        0.1650
     12  O          8.2670   -3.0260   -1.5230 O.2     1  UNL1       -0.4540
     13  O          8.9890   -1.5170   -2.9500 O.2     1  UNL1       -0.4540
     14  C          8.9440   -2.9090   -2.7490 C.3     1  UNL1        0.4680
@<TRIPOS>BOND
     1    13    14    1
     2    13    11    1
     3    14    12    1
     4    11     9    2
     5    11    10    1
     6    12    10    1
     7     9     7    1
     8    10     8    2
     9     7     6    2
    10     8     6    1
    11     6     5    1
    12     3     2    1
    13     2     1    1
    14     2     4    2
    15     5     1    1
