MODEL 1
REMARK VINA RESULT:      -7.7      0.000      0.000
REMARK SMILES CC(=O)CCc1ccc2c(c1)OCO2
REMARK SMILES IDX 4 1 2 2 1 3 3 4 5 5 6 6 7 7 11 8 8 9 10 10 9 11 12 12 14 13
REMARK SMILES IDX 13 14
REMARK H PARENT
REMARK Flexibility Score: inf
ROOT
ATOM      1  C   UNL     1       5.493   1.933   1.244  1.00  0.00     0.080 C 
ENDROOT
BRANCH   1   2
ATOM      2  C   UNL     1       5.055   0.722   1.992  1.00  0.00     0.130 C 
ATOM      3  C   UNL     1       5.938  -0.466   2.141  1.00  0.00     0.087 C 
ATOM      4  O   UNL     1       3.950   0.669   2.508  1.00  0.00    -0.300 OA
ENDBRANCH   1   2
BRANCH   1   5
ATOM      5  C   UNL     1       5.374   1.728  -0.253  1.00  0.00     0.043 C 
BRANCH   5   6
ATOM      6  C   UNL     1       6.549   1.030  -0.805  1.00  0.00    -0.044 A 
ATOM      7  C   UNL     1       7.852   1.464  -0.536  1.00  0.00     0.008 A 
ATOM      8  C   UNL     1       6.372  -0.077  -1.603  1.00  0.00     0.054 A 
ATOM      9  C   UNL     1       8.916   0.769  -1.081  1.00  0.00     0.051 A 
ATOM     10  C   UNL     1       7.451  -0.777  -2.150  1.00  0.00     0.166 A 
ATOM     11  C   UNL     1       8.734  -0.350  -1.888  1.00  0.00     0.165 A 
ATOM     12  O   UNL     1       7.536  -1.888  -2.962  1.00  0.00    -0.454 OA
ATOM     13  O   UNL     1       9.589  -1.218  -2.549  1.00  0.00    -0.454 OA
ATOM     14  C   UNL     1       8.875  -2.261  -3.168  1.00  0.00     0.468 C 
ENDBRANCH   5   6
ENDBRANCH   1   5
TORSDOF 3
ENDMDL
MODEL 2
REMARK VINA RESULT:      -7.4      1.951      2.410
REMARK SMILES CC(=O)CCc1ccc2c(c1)OCO2
REMARK SMILES IDX 4 1 2 2 1 3 3 4 5 5 6 6 7 7 11 8 8 9 10 10 9 11 12 12 14 13
REMARK SMILES IDX 13 14
REMARK H PARENT
REMARK Flexibility Score: inf
ROOT
ATOM      1  C   UNL     1       5.776   1.386  -0.283  1.00  0.00     0.080 C 
ENDROOT
BRANCH   1   2
ATOM      2  C   UNL     1       5.119   1.266   1.049  1.00  0.00     0.130 C 
ATOM      3  C   UNL     1       5.396   0.121   1.956  1.00  0.00     0.087 C 
ATOM      4  O   UNL     1       4.327   2.111   1.435  1.00  0.00    -0.300 OA
ENDBRANCH   1   2
BRANCH   1   5
ATOM      5  C   UNL     1       7.263   1.105  -0.189  1.00  0.00     0.043 C 
BRANCH   5   6
ATOM      6  C   UNL     1       7.614  -0.189  -0.801  1.00  0.00    -0.044 A 
ATOM      7  C   UNL     1       7.631  -0.362  -2.190  1.00  0.00     0.008 A 
ATOM      8  C   UNL     1       7.937  -1.258   0.002  1.00  0.00     0.054 A 
ATOM      9  C   UNL     1       7.970  -1.599  -2.708  1.00  0.00     0.051 A 
ATOM     10  C   UNL     1       8.279  -2.507  -0.526  1.00  0.00     0.166 A 
ATOM     11  C   UNL     1       8.295  -2.679  -1.892  1.00  0.00     0.165 A 
ATOM     12  O   UNL     1       8.633  -3.707   0.053  1.00  0.00    -0.454 OA
ATOM     13  O   UNL     1       8.663  -3.994  -2.126  1.00  0.00    -0.454 OA
ATOM     14  C   UNL     1       8.975  -4.656  -0.924  1.00  0.00     0.468 C 
ENDBRANCH   5   6
ENDBRANCH   1   5
TORSDOF 3
ENDMDL
MODEL 3
REMARK VINA RESULT:      -7.2      2.062      2.616
REMARK SMILES CC(=O)CCc1ccc2c(c1)OCO2
REMARK SMILES IDX 4 1 2 2 1 3 3 4 5 5 6 6 7 7 11 8 8 9 10 10 9 11 12 12 14 13
REMARK SMILES IDX 13 14
REMARK H PARENT
REMARK Flexibility Score: inf
ROOT
ATOM      1  C   UNL     1       5.504   0.013   2.002  1.00  0.00     0.080 C 
ENDROOT
BRANCH   1   2
ATOM      2  C   UNL     1       4.606   1.161   1.696  1.00  0.00     0.130 C 
ATOM      3  C   UNL     1       4.901   2.109   0.588  1.00  0.00     0.087 C 
ATOM      4  O   UNL     1       3.596   1.359   2.351  1.00  0.00    -0.300 OA
ENDBRANCH   1   2
BRANCH   1   5
ATOM      5  C   UNL     1       6.916   0.274   1.518  1.00  0.00     0.043 C 
BRANCH   5   6
ATOM      6  C   UNL     1       7.320  -0.679   0.470  1.00  0.00    -0.044 A 
ATOM      7  C   UNL     1       7.176  -0.379  -0.890  1.00  0.00     0.008 A 
ATOM      8  C   UNL     1       7.855  -1.897   0.824  1.00  0.00     0.054 A 
ATOM      9  C   UNL     1       7.573  -1.312  -1.829  1.00  0.00     0.051 A 
ATOM     10  C   UNL     1       8.256  -2.837  -0.130  1.00  0.00     0.166 A 
ATOM     11  C   UNL     1       8.113  -2.543  -1.468  1.00  0.00     0.165 A 
ATOM     12  O   UNL     1       8.806  -4.098  -0.034  1.00  0.00    -0.454 OA
ATOM     13  O   UNL     1       8.584  -3.639  -2.172  1.00  0.00    -0.454 OA
ATOM     14  C   UNL     1       9.117  -4.611  -1.304  1.00  0.00     0.468 C 
ENDBRANCH   5   6
ENDBRANCH   1   5
TORSDOF 3
ENDMDL
MODEL 4
REMARK VINA RESULT:      -7.1      1.269      1.490
REMARK SMILES CC(=O)CCc1ccc2c(c1)OCO2
REMARK SMILES IDX 4 1 2 2 1 3 3 4 5 5 6 6 7 7 11 8 8 9 10 10 9 11 12 12 14 13
REMARK SMILES IDX 13 14
REMARK H PARENT
REMARK Flexibility Score: inf
ROOT
ATOM      1  C   UNL     1       6.412   1.194   0.938  1.00  0.00     0.080 C 
ENDROOT
BRANCH   1   2
ATOM      2  C   UNL     1       5.678   0.357   1.928  1.00  0.00     0.130 C 
ATOM      3  C   UNL     1       6.272  -0.883   2.495  1.00  0.00     0.087 C 
ATOM      4  O   UNL     1       4.559   0.668   2.304  1.00  0.00    -0.300 OA
ENDBRANCH   1   2
BRANCH   1   5
ATOM      5  C   UNL     1       5.907   0.951  -0.470  1.00  0.00     0.043 C 
BRANCH   5   6
ATOM      6  C   UNL     1       6.837   0.113  -1.247  1.00  0.00    -0.044 A 
ATOM      7  C   UNL     1       7.514   0.612  -2.366  1.00  0.00     0.008 A 
ATOM      8  C   UNL     1       7.055  -1.193  -0.871  1.00  0.00     0.054 A 
ATOM      9  C   UNL     1       8.376  -0.221  -3.056  1.00  0.00     0.051 A 
ATOM     10  C   UNL     1       7.928  -2.031  -1.572  1.00  0.00     0.166 A 
ATOM     11  C   UNL     1       8.593  -1.541  -2.673  1.00  0.00     0.165 A 
ATOM     12  O   UNL     1       8.308  -3.345  -1.402  1.00  0.00    -0.454 OA
ATOM     13  O   UNL     1       9.377  -2.575  -3.161  1.00  0.00    -0.454 OA
ATOM     14  C   UNL     1       9.296  -3.709  -2.331  1.00  0.00     0.468 C 
ENDBRANCH   5   6
ENDBRANCH   1   5
TORSDOF 3
ENDMDL
MODEL 5
REMARK VINA RESULT:      -6.8      1.284      1.773
REMARK SMILES CC(=O)CCc1ccc2c(c1)OCO2
REMARK SMILES IDX 4 1 2 2 1 3 3 4 5 5 6 6 7 7 11 8 8 9 10 10 9 11 12 12 14 13
REMARK SMILES IDX 13 14
REMARK H PARENT
REMARK Flexibility Score: inf
ROOT
ATOM      1  C   UNL     1       5.337  -0.059   1.986  1.00  0.00     0.080 C 
ENDROOT
BRANCH   1   2
ATOM      2  C   UNL     1       4.459   1.130   1.801  1.00  0.00     0.130 C 
ATOM      3  C   UNL     1       4.736   2.150   0.754  1.00  0.00     0.087 C 
ATOM      4  O   UNL     1       3.480   1.303   2.508  1.00  0.00    -0.300 OA
ENDBRANCH   1   2
BRANCH   1   5
ATOM      5  C   UNL     1       6.802   0.321   1.904  1.00  0.00     0.043 C 
BRANCH   5   6
ATOM      6  C   UNL     1       7.391  -0.051   0.605  1.00  0.00    -0.044 A 
ATOM      7  C   UNL     1       7.848   0.917  -0.297  1.00  0.00     0.008 A 
ATOM      8  C   UNL     1       7.500  -1.379   0.261  1.00  0.00     0.054 A 
ATOM      9  C   UNL     1       8.393   0.508  -1.501  1.00  0.00     0.051 A 
ATOM     10  C   UNL     1       8.052  -1.787  -0.957  1.00  0.00     0.166 A 
ATOM     11  C   UNL     1       8.501  -0.835  -1.845  1.00  0.00     0.165 A 
ATOM     12  O   UNL     1       8.267  -3.026  -1.523  1.00  0.00    -0.454 OA
ATOM     13  O   UNL     1       8.989  -1.517  -2.950  1.00  0.00    -0.454 OA
ATOM     14  C   UNL     1       8.944  -2.909  -2.749  1.00  0.00     0.468 C 
ENDBRANCH   5   6
ENDBRANCH   1   5
TORSDOF 3
ENDMDL
