@<TRIPOS>MOLECULE
/home/cewinharhar/GITHUB/reincatalyze/data/processed/docking_pred/2023-May-23-1437_sub9_nm5_bs15_s42_ex16_mel10_mts10000_k50_ec02_g099_lra3e-4_lrc1e-3/bde4f716ac8ce10fa2b7126593b1b8cc9fcb83f2_ligand_9.pdbqt
 14 15 0 0 0
SMALL
GASTEIGER

@<TRIPOS>ATOM
      1  C          5.5040    0.0130    2.0020 C.3     1  UNL1        0.0800
      2  C          4.6060    1.1610    1.6960 C.2     1  UNL1        0.1300
      3  C          4.9010    2.1090    0.5880 C.3     1  UNL1        0.0870
      4  O          3.5960    1.3590    2.3510 O.2     1  UNL1       -0.3000
      5  C          6.9160    0.2740    1.5180 C.3     1  UNL1        0.0430
      6  C          7.3200   -0.6790    0.4700 C.2     1  UNL1       -0.0440
      7  C          7.1760   -0.3790   -0.8900 C.2     1  UNL1        0.0080
      8  C          7.8550   -1.8970    0.8240 C.2     1  UNL1        0.0540
      9  C          7.5730   -1.3120   -1.8290 C.2     1  UNL1        0.0510
     10  C          8.2560   -2.8370   -0.1300 C.2     1  UNL1        0.1660
     11  C          8.1130   -2.5430   -1.4680 C.2     1  UNL1        0.1650
     12  O          8.8060   -4.0980   -0.0340 O.2     1  UNL1       -0.4540
     13  O          8.5840   -3.6390   -2.1720 O.2     1  UNL1       -0.4540
     14  C          9.1170   -4.6110   -1.3040 C.3     1  UNL1        0.4680
@<TRIPOS>BOND
     1    13    11    1
     2    13    14    1
     3     9    11    2
     4     9     7    1
     5    11    10    1
     6    14    12    1
     7     7     6    2
     8    10    12    1
     9    10     8    2
    10     6     8    1
    11     6     5    1
    12     3     2    1
    13     5     1    1
    14     2     1    1
    15     2     4    2
