MODEL 1
REMARK VINA RESULT:      -7.6      0.000      0.000
REMARK SMILES CC(=O)CCc1ccc2c(c1)OCO2
REMARK SMILES IDX 4 1 2 2 1 3 3 4 5 5 6 6 7 7 11 8 8 9 10 10 9 11 12 12 14 13
REMARK SMILES IDX 13 14
REMARK H PARENT
REMARK Flexibility Score: inf
ROOT
ATOM      1  C   UNL     1       5.519   1.916   1.248  1.00  0.00     0.080 C 
ENDROOT
BRANCH   1   2
ATOM      2  C   UNL     1       5.075   0.709   2.001  1.00  0.00     0.130 C 
ATOM      3  C   UNL     1       5.958  -0.476   2.166  1.00  0.00     0.087 C 
ATOM      4  O   UNL     1       3.965   0.659   2.506  1.00  0.00    -0.300 OA
ENDBRANCH   1   2
BRANCH   1   5
ATOM      5  C   UNL     1       5.391   1.710  -0.248  1.00  0.00     0.043 C 
BRANCH   5   6
ATOM      6  C   UNL     1       6.563   1.013  -0.806  1.00  0.00    -0.044 A 
ATOM      7  C   UNL     1       7.868   1.450  -0.547  1.00  0.00     0.008 A 
ATOM      8  C   UNL     1       6.383  -0.098  -1.599  1.00  0.00     0.054 A 
ATOM      9  C   UNL     1       8.930   0.755  -1.097  1.00  0.00     0.051 A 
ATOM     10  C   UNL     1       7.460  -0.797  -2.152  1.00  0.00     0.166 A 
ATOM     11  C   UNL     1       8.744  -0.367  -1.899  1.00  0.00     0.165 A 
ATOM     12  O   UNL     1       7.542  -1.911  -2.960  1.00  0.00    -0.454 OA
ATOM     13  O   UNL     1       9.596  -1.235  -2.564  1.00  0.00    -0.454 OA
ATOM     14  C   UNL     1       8.880  -2.282  -3.175  1.00  0.00     0.468 C 
ENDBRANCH   5   6
ENDBRANCH   1   5
TORSDOF 3
ENDMDL
MODEL 2
REMARK VINA RESULT:      -7.4      1.895      2.379
REMARK SMILES CC(=O)CCc1ccc2c(c1)OCO2
REMARK SMILES IDX 4 1 2 2 1 3 3 4 5 5 6 6 7 7 11 8 8 9 10 10 9 11 12 12 14 13
REMARK SMILES IDX 13 14
REMARK H PARENT
REMARK Flexibility Score: inf
ROOT
ATOM      1  C   UNL     1       5.797   1.393  -0.321  1.00  0.00     0.080 C 
ENDROOT
BRANCH   1   2
ATOM      2  C   UNL     1       5.175   1.287   1.029  1.00  0.00     0.130 C 
ATOM      3  C   UNL     1       5.451   0.133   1.927  1.00  0.00     0.087 C 
ATOM      4  O   UNL     1       4.416   2.150   1.439  1.00  0.00    -0.300 OA
ENDBRANCH   1   2
BRANCH   1   5
ATOM      5  C   UNL     1       7.286   1.114  -0.265  1.00  0.00     0.043 C 
BRANCH   5   6
ATOM      6  C   UNL     1       7.624  -0.177  -0.888  1.00  0.00    -0.044 A 
ATOM      7  C   UNL     1       7.637  -0.339  -2.278  1.00  0.00     0.008 A 
ATOM      8  C   UNL     1       7.940  -1.256  -0.094  1.00  0.00     0.054 A 
ATOM      9  C   UNL     1       7.963  -1.575  -2.807  1.00  0.00     0.051 A 
ATOM     10  C   UNL     1       8.270  -2.503  -0.634  1.00  0.00     0.166 A 
ATOM     11  C   UNL     1       8.281  -2.664  -2.001  1.00  0.00     0.165 A 
ATOM     12  O   UNL     1       8.614  -3.711  -0.066  1.00  0.00    -0.454 OA
ATOM     13  O   UNL     1       8.638  -3.980  -2.248  1.00  0.00    -0.454 OA
ATOM     14  C   UNL     1       8.946  -4.655  -1.051  1.00  0.00     0.468 C 
ENDBRANCH   5   6
ENDBRANCH   1   5
TORSDOF 3
ENDMDL
MODEL 3
REMARK VINA RESULT:      -7.2      2.069      2.625
REMARK SMILES CC(=O)CCc1ccc2c(c1)OCO2
REMARK SMILES IDX 4 1 2 2 1 3 3 4 5 5 6 6 7 7 11 8 8 9 10 10 9 11 12 12 14 13
REMARK SMILES IDX 13 14
REMARK H PARENT
REMARK Flexibility Score: inf
ROOT
ATOM      1  C   UNL     1       5.461  -0.006   2.012  1.00  0.00     0.080 C 
ENDROOT
BRANCH   1   2
ATOM      2  C   UNL     1       4.579   1.164   1.744  1.00  0.00     0.130 C 
ATOM      3  C   UNL     1       4.887   2.143   0.667  1.00  0.00     0.087 C 
ATOM      4  O   UNL     1       3.572   1.355   2.406  1.00  0.00    -0.300 OA
ENDBRANCH   1   2
BRANCH   1   5
ATOM      5  C   UNL     1       6.880   0.257   1.550  1.00  0.00     0.043 C 
BRANCH   5   6
ATOM      6  C   UNL     1       7.300  -0.694   0.505  1.00  0.00    -0.044 A 
ATOM      7  C   UNL     1       7.180  -0.389  -0.855  1.00  0.00     0.008 A 
ATOM      8  C   UNL     1       7.825  -1.915   0.865  1.00  0.00     0.054 A 
ATOM      9  C   UNL     1       7.592  -1.321  -1.791  1.00  0.00     0.051 A 
ATOM     10  C   UNL     1       8.240  -2.853  -0.085  1.00  0.00     0.166 A 
ATOM     11  C   UNL     1       8.122  -2.553  -1.424  1.00  0.00     0.165 A 
ATOM     12  O   UNL     1       8.785  -4.115   0.017  1.00  0.00    -0.454 OA
ATOM     13  O   UNL     1       8.603  -3.649  -2.124  1.00  0.00    -0.454 OA
ATOM     14  C   UNL     1       9.117  -4.625  -1.249  1.00  0.00     0.468 C 
ENDBRANCH   5   6
ENDBRANCH   1   5
TORSDOF 3
ENDMDL
MODEL 4
REMARK VINA RESULT:      -7.1      1.261      1.471
REMARK SMILES CC(=O)CCc1ccc2c(c1)OCO2
REMARK SMILES IDX 4 1 2 2 1 3 3 4 5 5 6 6 7 7 11 8 8 9 10 10 9 11 12 12 14 13
REMARK SMILES IDX 13 14
REMARK H PARENT
REMARK Flexibility Score: inf
ROOT
ATOM      1  C   UNL     1       6.387   1.189   0.947  1.00  0.00     0.080 C 
ENDROOT
BRANCH   1   2
ATOM      2  C   UNL     1       5.649   0.375   1.953  1.00  0.00     0.130 C 
ATOM      3  C   UNL     1       6.240  -0.853   2.548  1.00  0.00     0.087 C 
ATOM      4  O   UNL     1       4.529   0.694   2.318  1.00  0.00    -0.300 OA
ENDBRANCH   1   2
BRANCH   1   5
ATOM      5  C   UNL     1       5.876   0.927  -0.456  1.00  0.00     0.043 C 
BRANCH   5   6
ATOM      6  C   UNL     1       6.815   0.099  -1.233  1.00  0.00    -0.044 A 
ATOM      7  C   UNL     1       7.479   0.602  -2.357  1.00  0.00     0.008 A 
ATOM      8  C   UNL     1       7.053  -1.202  -0.852  1.00  0.00     0.054 A 
ATOM      9  C   UNL     1       8.350  -0.221  -3.047  1.00  0.00     0.051 A 
ATOM     10  C   UNL     1       7.935  -2.031  -1.553  1.00  0.00     0.166 A 
ATOM     11  C   UNL     1       8.588  -1.536  -2.659  1.00  0.00     0.165 A 
ATOM     12  O   UNL     1       8.334  -3.339  -1.378  1.00  0.00    -0.454 OA
ATOM     13  O   UNL     1       9.384  -2.561  -3.146  1.00  0.00    -0.454 OA
ATOM     14  C   UNL     1       9.323  -3.693  -2.311  1.00  0.00     0.468 C 
ENDBRANCH   5   6
ENDBRANCH   1   5
TORSDOF 3
ENDMDL
MODEL 5
REMARK VINA RESULT:      -7.0      1.974      2.593
REMARK SMILES CC(=O)CCc1ccc2c(c1)OCO2
REMARK SMILES IDX 4 1 2 2 1 3 3 4 5 5 6 6 7 7 11 8 8 9 10 10 9 11 12 12 14 13
REMARK SMILES IDX 13 14
REMARK H PARENT
REMARK Flexibility Score: inf
ROOT
ATOM      1  C   UNL     1       6.827   0.692   1.006  1.00  0.00     0.080 C 
ENDROOT
BRANCH   1   2
ATOM      2  C   UNL     1       5.449   1.126   1.367  1.00  0.00     0.130 C 
ATOM      3  C   UNL     1       4.719   2.150   0.572  1.00  0.00     0.087 C 
ATOM      4  O   UNL     1       4.875   0.651   2.334  1.00  0.00    -0.300 OA
ENDBRANCH   1   2
BRANCH   1   5
ATOM      5  C   UNL     1       7.062   0.792  -0.488  1.00  0.00     0.043 C 
BRANCH   5   6
ATOM      6  C   UNL     1       7.579  -0.471  -1.045  1.00  0.00    -0.044 A 
ATOM      7  C   UNL     1       7.872  -0.606  -2.407  1.00  0.00     0.008 A 
ATOM      8  C   UNL     1       7.784  -1.550  -0.215  1.00  0.00     0.054 A 
ATOM      9  C   UNL     1       8.355  -1.815  -2.873  1.00  0.00     0.051 A 
ATOM     10  C   UNL     1       8.273  -2.770  -0.691  1.00  0.00     0.166 A 
ATOM     11  C   UNL     1       8.560  -2.904  -2.031  1.00  0.00     0.165 A 
ATOM     12  O   UNL     1       8.557  -3.972  -0.078  1.00  0.00    -0.454 OA
ATOM     13  O   UNL     1       9.021  -4.198  -2.215  1.00  0.00    -0.454 OA
ATOM     14  C   UNL     1       9.121  -4.881  -0.988  1.00  0.00     0.468 C 
ENDBRANCH   5   6
ENDBRANCH   1   5
TORSDOF 3
ENDMDL
