@<TRIPOS>MOLECULE
/home/cewinharhar/GITHUB/reincatalyze/data/processed/docking_pred/2023-May-23-1437_sub9_nm5_bs15_s42_ex16_mel10_mts10000_k50_ec02_g099_lra3e-4_lrc1e-3/bdfc35a41e3d78d3bf59a6b88613069133e00868_ligand_9.pdbqt
 14 15 0 0 0
SMALL
GASTEIGER

@<TRIPOS>ATOM
      1  C          5.5190    1.9160    1.2480 C.3     1  UNL1        0.0800
      2  C          5.0750    0.7090    2.0010 C.2     1  UNL1        0.1300
      3  C          5.9580   -0.4760    2.1660 C.3     1  UNL1        0.0870
      4  O          3.9650    0.6590    2.5060 O.2     1  UNL1       -0.3000
      5  C          5.3910    1.7100   -0.2480 C.3     1  UNL1        0.0430
      6  C          6.5630    1.0130   -0.8060 C.2     1  UNL1       -0.0440
      7  C          7.8680    1.4500   -0.5470 C.2     1  UNL1        0.0080
      8  C          6.3830   -0.0980   -1.5990 C.2     1  UNL1        0.0540
      9  C          8.9300    0.7550   -1.0970 C.2     1  UNL1        0.0510
     10  C          7.4600   -0.7970   -2.1520 C.2     1  UNL1        0.1660
     11  C          8.7440   -0.3670   -1.8990 C.2     1  UNL1        0.1650
     12  O          7.5420   -1.9110   -2.9600 O.2     1  UNL1       -0.4540
     13  O          9.5960   -1.2350   -2.5640 O.2     1  UNL1       -0.4540
     14  C          8.8800   -2.2820   -3.1750 C.3     1  UNL1        0.4680
@<TRIPOS>BOND
     1    14    12    1
     2    14    13    1
     3    12    10    1
     4    13    11    1
     5    10    11    2
     6    10     8    1
     7    11     9    1
     8     8     6    2
     9     9     7    2
    10     6     7    1
    11     6     5    1
    12     5     1    1
    13     1     2    1
    14     2     3    1
    15     2     4    2
