@<TRIPOS>MOLECULE
/home/cewinharhar/GITHUB/reincatalyze/data/processed/docking_pred/2023-May-23-1437_sub9_nm5_bs15_s42_ex16_mel10_mts10000_k50_ec02_g099_lra3e-4_lrc1e-3/bdfc35a41e3d78d3bf59a6b88613069133e00868_ligand_9.pdbqt
 14 15 0 0 0
SMALL
GASTEIGER

@<TRIPOS>ATOM
      1  C          5.7970    1.3930   -0.3210 C.3     1  UNL1        0.0800
      2  C          5.1750    1.2870    1.0290 C.2     1  UNL1        0.1300
      3  C          5.4510    0.1330    1.9270 C.3     1  UNL1        0.0870
      4  O          4.4160    2.1500    1.4390 O.2     1  UNL1       -0.3000
      5  C          7.2860    1.1140   -0.2650 C.3     1  UNL1        0.0430
      6  C          7.6240   -0.1770   -0.8880 C.2     1  UNL1       -0.0440
      7  C          7.6370   -0.3390   -2.2780 C.2     1  UNL1        0.0080
      8  C          7.9400   -1.2560   -0.0940 C.2     1  UNL1        0.0540
      9  C          7.9630   -1.5750   -2.8070 C.2     1  UNL1        0.0510
     10  C          8.2700   -2.5030   -0.6340 C.2     1  UNL1        0.1660
     11  C          8.2810   -2.6640   -2.0010 C.2     1  UNL1        0.1650
     12  O          8.6140   -3.7110   -0.0660 O.2     1  UNL1       -0.4540
     13  O          8.6380   -3.9800   -2.2480 O.2     1  UNL1       -0.4540
     14  C          8.9460   -4.6550   -1.0510 C.3     1  UNL1        0.4680
@<TRIPOS>BOND
     1     9     7    1
     2     9    11    2
     3     7     6    2
     4    13    11    1
     5    13    14    1
     6    11    10    1
     7    14    12    1
     8     6     5    1
     9     6     8    1
    10    10     8    2
    11    10    12    1
    12     1     5    1
    13     1     2    1
    14     2     4    2
    15     2     3    1
