@<TRIPOS>MOLECULE
/home/cewinharhar/GITHUB/reincatalyze/data/processed/docking_pred/2023-May-23-1437_sub9_nm5_bs15_s42_ex16_mel10_mts10000_k50_ec02_g099_lra3e-4_lrc1e-3/be159ddb300952c005bf82764a5ce22912cca304_ligand_9.pdbqt
 14 15 0 0 0
SMALL
GASTEIGER

@<TRIPOS>ATOM
      1  C          5.5020    1.9390    1.2530 C.3     1  UNL1        0.0800
      2  C          5.0750    0.7210    1.9980 C.2     1  UNL1        0.1300
      3  C          5.9790   -0.4480    2.1660 C.3     1  UNL1        0.0870
      4  O          3.9620    0.6480    2.4940 O.2     1  UNL1       -0.3000
      5  C          5.3800    1.7390   -0.2450 C.3     1  UNL1        0.0430
      6  C          6.5510    1.0360   -0.7990 C.2     1  UNL1       -0.0440
      7  C          7.8570    1.4640   -0.5330 C.2     1  UNL1        0.0080
      8  C          6.3680   -0.0700   -1.5970 C.2     1  UNL1        0.0540
      9  C          8.9170    0.7650   -1.0800 C.2     1  UNL1        0.0510
     10  C          7.4430   -0.7740   -2.1470 C.2     1  UNL1        0.1660
     11  C          8.7280   -0.3530   -1.8860 C.2     1  UNL1        0.1650
     12  O          7.5220   -1.8860   -2.9590 O.2     1  UNL1       -0.4540
     13  O          9.5780   -1.2240   -2.5500 O.2     1  UNL1       -0.4540
     14  C          8.8590   -2.2640   -3.1670 C.3     1  UNL1        0.4680
@<TRIPOS>BOND
     1    14    12    1
     2    14    13    1
     3    12    10    1
     4    13    11    1
     5    10    11    2
     6    10     8    1
     7    11     9    1
     8     8     6    2
     9     9     7    2
    10     6     7    1
    11     6     5    1
    12     5     1    1
    13     1     2    1
    14     2     3    1
    15     2     4    2
