@<TRIPOS>MOLECULE
/home/cewinharhar/GITHUB/reincatalyze/data/processed/docking_pred/2023-May-23-1437_sub9_nm5_bs15_s42_ex16_mel10_mts10000_k50_ec02_g099_lra3e-4_lrc1e-3/be159ddb300952c005bf82764a5ce22912cca304_ligand_9.pdbqt
 14 15 0 0 0
SMALL
GASTEIGER

@<TRIPOS>ATOM
      1  C          6.3760    1.1670    0.9660 C.3     1  UNL1        0.0800
      2  C          5.6650    0.3310    1.9720 C.2     1  UNL1        0.1300
      3  C          6.2770   -0.9020    2.5360 C.3     1  UNL1        0.0870
      4  O          4.5510    0.6370    2.3660 O.2     1  UNL1       -0.3000
      5  C          5.8590    0.9020   -0.4340 C.3     1  UNL1        0.0430
      6  C          6.8010    0.0850   -1.2200 C.2     1  UNL1       -0.0440
      7  C          7.4630    0.6010   -2.3390 C.2     1  UNL1        0.0080
      8  C          7.0450   -1.2190   -0.8500 C.2     1  UNL1        0.0540
      9  C          8.3370   -0.2130   -3.0370 C.2     1  UNL1        0.0510
     10  C          7.9300   -2.0370   -1.5590 C.2     1  UNL1        0.1660
     11  C          8.5810   -1.5300   -2.6610 C.2     1  UNL1        0.1650
     12  O          8.3350   -3.3450   -1.3960 O.2     1  UNL1       -0.4540
     13  O          9.3810   -2.5470   -3.1570 O.2     1  UNL1       -0.4540
     14  C          9.3250   -3.6860   -2.3320 C.3     1  UNL1        0.4680
@<TRIPOS>BOND
     1    13    11    1
     2    13    14    1
     3     9    11    2
     4     9     7    1
     5    11    10    1
     6     7     6    2
     7    14    12    1
     8    10    12    1
     9    10     8    2
    10     6     8    1
    11     6     5    1
    12     5     1    1
    13     1     2    1
    14     2     4    2
    15     2     3    1
