@<TRIPOS>MOLECULE
/home/cewinharhar/GITHUB/reincatalyze/data/processed/docking_pred/2023-May-23-1437_sub9_nm5_bs15_s42_ex16_mel10_mts10000_k50_ec02_g099_lra3e-4_lrc1e-3/be159ddb300952c005bf82764a5ce22912cca304_ligand_9.pdbqt
 14 15 0 0 0
SMALL
GASTEIGER

@<TRIPOS>ATOM
      1  C          8.3400    0.2160   -2.6430 C.3     1  UNL1        0.0800
      2  C          8.0260   -1.2370   -2.7350 C.2     1  UNL1        0.1300
      3  C          9.0770   -2.2460   -3.0330 C.3     1  UNL1        0.0870
      4  O          6.8870   -1.6440   -2.5680 O.2     1  UNL1       -0.3000
      5  C          8.8570    0.5800   -1.2650 C.3     1  UNL1        0.0430
      6  C          7.8140    0.4340   -0.2340 C.2     1  UNL1       -0.0440
      7  C          7.9090   -0.5340    0.7720 C.2     1  UNL1        0.0080
      8  C          6.7180    1.2670   -0.2490 C.2     1  UNL1        0.0540
      9  C          6.9000   -0.6240    1.7140 C.2     1  UNL1        0.0510
     10  C          5.7010    1.1720    0.7060 C.2     1  UNL1        0.1660
     11  C          5.7930    0.2190    1.6950 C.2     1  UNL1        0.1650
     12  O          4.5290    1.8710    0.9020 O.2     1  UNL1       -0.4540
     13  O          4.6640    0.3540    2.4870 O.2     1  UNL1       -0.4540
     14  C          3.8810    1.4480    2.0740 C.3     1  UNL1        0.4680
@<TRIPOS>BOND
     1     3     2    1
     2     2     1    1
     3     2     4    2
     4     1     5    1
     5     5     6    1
     6     8     6    2
     7     8    10    1
     8     6     7    1
     9    10    12    1
    10    10    11    2
    11     7     9    2
    12    12    14    1
    13    11     9    1
    14    11    13    1
    15    14    13    1
