@<TRIPOS>MOLECULE
/home/cewinharhar/GITHUB/reincatalyze/data/processed/docking_pred/2023-May-23-1437_sub9_nm5_bs15_s42_ex16_mel10_mts10000_k50_ec02_g099_lra3e-4_lrc1e-3/c00c8b20774af87dd702fd508d588995eeb45aaa_ligand_9.pdbqt
 14 15 0 0 0
SMALL
GASTEIGER

@<TRIPOS>ATOM
      1  C          5.4730    0.0960    2.0290 C.3     1  UNL1        0.0800
      2  C          4.4830    1.1830    1.7880 C.2     1  UNL1        0.1300
      3  C          4.6410    2.1480    0.6680 C.3     1  UNL1        0.0870
      4  O          3.5080    1.3140    2.5100 O.2     1  UNL1       -0.3000
      5  C          6.8290    0.4480    1.4510 C.3     1  UNL1        0.0430
      6  C          7.1730   -0.4100    0.3030 C.2     1  UNL1       -0.0440
      7  C          6.8990   -0.0190   -1.0120 C.2     1  UNL1        0.0080
      8  C          7.7810   -1.6260    0.5180 C.2     1  UNL1        0.0540
      9  C          7.2450   -0.8650   -2.0500 C.2     1  UNL1        0.0510
     10  C          8.1300   -2.4780   -0.5340 C.2     1  UNL1        0.1660
     11  C          7.8590   -2.0940   -1.8290 C.2     1  UNL1        0.1650
     12  O          8.7320   -3.7170   -0.5800 O.2     1  UNL1       -0.4540
     13  O          8.3060   -3.1160   -2.6510 O.2     1  UNL1       -0.4540
     14  C          8.9480   -4.1240   -1.9070 C.3     1  UNL1        0.4680
@<TRIPOS>BOND
     1    13    14    1
     2    13    11    1
     3     9    11    2
     4     9     7    1
     5    14    12    1
     6    11    10    1
     7     7     6    2
     8    12    10    1
     9    10     8    2
    10     6     8    1
    11     6     5    1
    12     3     2    1
    13     5     1    1
    14     2     1    1
    15     2     4    2
