@<TRIPOS>MOLECULE
/home/cewinharhar/GITHUB/reincatalyze/data/processed/docking_pred/2023-May-23-1437_sub9_nm5_bs15_s42_ex16_mel10_mts10000_k50_ec02_g099_lra3e-4_lrc1e-3/c00c8b20774af87dd702fd508d588995eeb45aaa_ligand_9.pdbqt
 14 15 0 0 0
SMALL
GASTEIGER

@<TRIPOS>ATOM
      1  C          6.3920    1.1990    0.9350 C.3     1  UNL1        0.0800
      2  C          5.6610    0.3780    1.9410 C.2     1  UNL1        0.1300
      3  C          6.2600   -0.8480    2.5320 C.3     1  UNL1        0.0870
      4  O          4.5400    0.6910    2.3090 O.2     1  UNL1       -0.3000
      5  C          5.8880    0.9290   -0.4680 C.3     1  UNL1        0.0430
      6  C          6.8300    0.0950   -1.2360 C.2     1  UNL1       -0.0440
      7  C          7.5140    0.5970   -2.3490 C.2     1  UNL1        0.0080
      8  C          7.0510   -1.2100   -0.8570 C.2     1  UNL1        0.0540
      9  C          8.3870   -0.2310   -3.0300 C.2     1  UNL1        0.0510
     10  C          7.9350   -2.0430   -1.5490 C.2     1  UNL1        0.1660
     11  C          8.6080   -1.5500   -2.6450 C.2     1  UNL1        0.1650
     12  O          8.3210   -3.3550   -1.3750 O.2     1  UNL1       -0.4540
     13  O          9.4020   -2.5800   -3.1250 O.2     1  UNL1       -0.4540
     14  C          9.3190   -3.7140   -2.2950 C.3     1  UNL1        0.4680
@<TRIPOS>BOND
     1    13    11    1
     2    13    14    1
     3     9    11    2
     4     9     7    1
     5    11    10    1
     6     7     6    2
     7    14    12    1
     8    10    12    1
     9    10     8    2
    10     6     8    1
    11     6     5    1
    12     5     1    1
    13     1     2    1
    14     2     4    2
    15     2     3    1
