@<TRIPOS>MOLECULE
/home/cewinharhar/GITHUB/reincatalyze/data/processed/docking_pred/2023-May-23-1437_sub9_nm5_bs15_s42_ex16_mel10_mts10000_k50_ec02_g099_lra3e-4_lrc1e-3/c054a7f490e8e5c171bc57af56a9ae5cb4d717f8_ligand_9.pdbqt
 14 15 0 0 0
SMALL
GASTEIGER

@<TRIPOS>ATOM
      1  C          5.5320    1.8970    1.2820 C.3     1  UNL1        0.0800
      2  C          5.0900    0.6740    2.0100 C.2     1  UNL1        0.1300
      3  C          5.9870   -0.5000    2.1810 C.3     1  UNL1        0.0870
      4  O          3.9710    0.6020    2.4910 O.2     1  UNL1       -0.3000
      5  C          5.4030    1.7210   -0.2180 C.3     1  UNL1        0.0430
      6  C          6.5690    1.0220   -0.7880 C.2     1  UNL1       -0.0440
      7  C          7.8760    1.4620   -0.5500 C.2     1  UNL1        0.0080
      8  C          6.3790   -0.0920   -1.5740 C.2     1  UNL1        0.0540
      9  C          8.9310    0.7650   -1.1110 C.2     1  UNL1        0.0510
     10  C          7.4490   -0.7930   -2.1380 C.2     1  UNL1        0.1660
     11  C          8.7350   -0.3610   -1.9050 C.2     1  UNL1        0.1650
     12  O          7.5200   -1.9110   -2.9420 O.2     1  UNL1       -0.4540
     13  O          9.5790   -1.2310   -2.5770 O.2     1  UNL1       -0.4540
     14  C          8.8560   -2.2810   -3.1730 C.3     1  UNL1        0.4680
@<TRIPOS>BOND
     1    14    12    1
     2    14    13    1
     3    12    10    1
     4    13    11    1
     5    10    11    2
     6    10     8    1
     7    11     9    1
     8     8     6    2
     9     9     7    2
    10     6     7    1
    11     6     5    1
    12     5     1    1
    13     1     2    1
    14     2     3    1
    15     2     4    2
