@<TRIPOS>MOLECULE
/home/cewinharhar/GITHUB/reincatalyze/data/processed/docking_pred/2023-May-23-1437_sub9_nm5_bs15_s42_ex16_mel10_mts10000_k50_ec02_g099_lra3e-4_lrc1e-3/c054a7f490e8e5c171bc57af56a9ae5cb4d717f8_ligand_9.pdbqt
 14 15 0 0 0
SMALL
GASTEIGER

@<TRIPOS>ATOM
      1  C          5.4240   -0.0510    1.9780 C.3     1  UNL1        0.0800
      2  C          4.5840    1.1520    1.7190 C.2     1  UNL1        0.1300
      3  C          4.9190    2.1200    0.6410 C.3     1  UNL1        0.0870
      4  O          3.5910    1.3790    2.3910 O.2     1  UNL1       -0.3000
      5  C          6.8640    0.1850    1.5700 C.3     1  UNL1        0.0430
      6  C          7.2900   -0.7450    0.5080 C.2     1  UNL1       -0.0440
      7  C          7.1550   -0.4220   -0.8470 C.2     1  UNL1        0.0080
      8  C          7.8380   -1.9610    0.8460 C.2     1  UNL1        0.0540
      9  C          7.5730   -1.3330   -1.7990 C.2     1  UNL1        0.0510
     10  C          8.2600   -2.8790   -0.1210 C.2     1  UNL1        0.1660
     11  C          8.1260   -2.5620   -1.4540 C.2     1  UNL1        0.1650
     12  O          8.8260   -4.1340   -0.0420 O.2     1  UNL1       -0.4540
     13  O          8.6180   -3.6400   -2.1740 O.2     1  UNL1       -0.4540
     14  C          9.1560   -4.6200   -1.3180 C.3     1  UNL1        0.4680
@<TRIPOS>BOND
     1    13    11    1
     2    13    14    1
     3     9    11    2
     4     9     7    1
     5    11    10    1
     6    14    12    1
     7     7     6    2
     8    10    12    1
     9    10     8    2
    10     6     8    1
    11     6     5    1
    12     3     2    1
    13     5     1    1
    14     2     1    1
    15     2     4    2
