@<TRIPOS>MOLECULE
/home/cewinharhar/GITHUB/reincatalyze/data/processed/docking_pred/2023-May-23-1437_sub9_nm5_bs15_s42_ex16_mel10_mts10000_k50_ec02_g099_lra3e-4_lrc1e-3/c054a7f490e8e5c171bc57af56a9ae5cb4d717f8_ligand_9.pdbqt
 14 15 0 0 0
SMALL
GASTEIGER

@<TRIPOS>ATOM
      1  C          6.3740    1.2080    0.9360 C.3     1  UNL1        0.0800
      2  C          5.6610    0.3680    1.9380 C.2     1  UNL1        0.1300
      3  C          6.2780   -0.8590    2.5090 C.3     1  UNL1        0.0870
      4  O          4.5400    0.6640    2.3210 O.2     1  UNL1       -0.3000
      5  C          5.8690    0.9380   -0.4680 C.3     1  UNL1        0.0430
      6  C          6.8170    0.1140   -1.2400 C.2     1  UNL1       -0.0440
      7  C          7.5080    0.6310   -2.3420 C.2     1  UNL1        0.0080
      8  C          7.0360   -1.1950   -0.8760 C.2     1  UNL1        0.0540
      9  C          8.3850   -0.1890   -3.0280 C.2     1  UNL1        0.0510
     10  C          7.9250   -2.0190   -1.5720 C.2     1  UNL1        0.1660
     11  C          8.6050   -1.5120   -2.6580 C.2     1  UNL1        0.1650
     12  O          8.3100   -3.3330   -1.4120 O.2     1  UNL1       -0.4540
     13  O          9.4020   -2.5360   -3.1450 O.2     1  UNL1       -0.4540
     14  C          9.3150   -3.6800   -2.3300 C.3     1  UNL1        0.4680
@<TRIPOS>BOND
     1    13    11    1
     2    13    14    1
     3     9    11    2
     4     9     7    1
     5    11    10    1
     6     7     6    2
     7    14    12    1
     8    10    12    1
     9    10     8    2
    10     6     8    1
    11     6     5    1
    12     5     1    1
    13     1     2    1
    14     2     4    2
    15     2     3    1
