@<TRIPOS>MOLECULE
/home/cewinharhar/GITHUB/reincatalyze/data/processed/docking_pred/2023-May-23-1437_sub9_nm5_bs15_s42_ex16_mel10_mts10000_k50_ec02_g099_lra3e-4_lrc1e-3/c054a7f490e8e5c171bc57af56a9ae5cb4d717f8_ligand_9.pdbqt
 14 15 0 0 0
SMALL
GASTEIGER

@<TRIPOS>ATOM
      1  C          8.3630    0.2400   -2.5170 C.3     1  UNL1        0.0800
      2  C          8.0430   -1.2050   -2.6860 C.2     1  UNL1        0.1300
      3  C          9.0930   -2.2020   -3.0250 C.3     1  UNL1        0.0870
      4  O          6.9020   -1.6140   -2.5500 O.2     1  UNL1       -0.3000
      5  C          8.8620    0.5340   -1.1160 C.3     1  UNL1        0.0430
      6  C          7.7890    0.4000   -0.1150 C.2     1  UNL1       -0.0440
      7  C          7.8400   -0.5750    0.8890 C.2     1  UNL1        0.0080
      8  C          6.7080    1.2510   -0.1560 C.2     1  UNL1        0.0540
      9  C          6.8040   -0.6520    1.8020 C.2     1  UNL1        0.0510
     10  C          5.6640    1.1690    0.7710 C.2     1  UNL1        0.1660
     11  C          5.7120    0.2090    1.7570 C.2     1  UNL1        0.1650
     12  O          4.4980    1.8860    0.9380 O.2     1  UNL1       -0.4540
     13  O          4.5640    0.3590    2.5190 O.2     1  UNL1       -0.4540
     14  C          3.8110    1.4680    2.0900 C.3     1  UNL1        0.4680
@<TRIPOS>BOND
     1     3     2    1
     2     2     4    2
     3     2     1    1
     4     1     5    1
     5     5     6    1
     6     8     6    2
     7     8    10    1
     8     6     7    1
     9    10    12    1
    10    10    11    2
    11     7     9    2
    12    12    14    1
    13    11     9    1
    14    11    13    1
    15    14    13    1
