@<TRIPOS>MOLECULE
/home/cewinharhar/GITHUB/reincatalyze/data/processed/docking_pred/2023-May-23-1437_sub9_nm5_bs15_s42_ex16_mel10_mts10000_k50_ec02_g099_lra3e-4_lrc1e-3/c2bbe2b0b698b4c34a14c6b9d782c5d04fb4e97c_ligand_9.pdbqt
 14 15 0 0 0
SMALL
GASTEIGER

@<TRIPOS>ATOM
      1  C          6.3710    1.2050    0.9410 C.3     1  UNL1        0.0800
      2  C          5.6580    0.3690    1.9460 C.2     1  UNL1        0.1300
      3  C          6.2750   -0.8570    2.5200 C.3     1  UNL1        0.0870
      4  O          4.5390    0.6680    2.3300 O.2     1  UNL1       -0.3000
      5  C          5.8650    0.9310   -0.4620 C.3     1  UNL1        0.0430
      6  C          6.8140    0.1090   -1.2340 C.2     1  UNL1       -0.0440
      7  C          7.5020    0.6260   -2.3370 C.2     1  UNL1        0.0080
      8  C          7.0380   -1.1990   -0.8680 C.2     1  UNL1        0.0540
      9  C          8.3810   -0.1930   -3.0230 C.2     1  UNL1        0.0510
     10  C          7.9280   -2.0220   -1.5650 C.2     1  UNL1        0.1660
     11  C          8.6050   -1.5150   -2.6510 C.2     1  UNL1        0.1650
     12  O          8.3170   -3.3350   -1.4030 O.2     1  UNL1       -0.4540
     13  O          9.4050   -2.5370   -3.1380 O.2     1  UNL1       -0.4540
     14  C          9.3210   -3.6800   -2.3220 C.3     1  UNL1        0.4680
@<TRIPOS>BOND
     1    13    11    1
     2    13    14    1
     3     9    11    2
     4     9     7    1
     5    11    10    1
     6     7     6    2
     7    14    12    1
     8    10    12    1
     9    10     8    2
    10     6     8    1
    11     6     5    1
    12     5     1    1
    13     1     2    1
    14     2     4    2
    15     2     3    1
