@<TRIPOS>MOLECULE
/home/cewinharhar/GITHUB/reincatalyze/data/processed/docking_pred/2023-May-23-1437_sub9_nm5_bs15_s42_ex16_mel10_mts10000_k50_ec02_g099_lra3e-4_lrc1e-3/c2bbe2b0b698b4c34a14c6b9d782c5d04fb4e97c_ligand_9.pdbqt
 14 15 0 0 0
SMALL
GASTEIGER

@<TRIPOS>ATOM
      1  C          5.4130   -0.0430    2.0590 C.3     1  UNL1        0.0800
      2  C          4.5560    1.1430    1.7790 C.2     1  UNL1        0.1300
      3  C          4.8950    2.1160    0.7070 C.3     1  UNL1        0.0870
      4  O          3.5430    1.3510    2.4280 O.2     1  UNL1       -0.3000
      5  C          6.8480    0.2020    1.6340 C.3     1  UNL1        0.0430
      6  C          7.2660   -0.7220    0.5650 C.2     1  UNL1       -0.0440
      7  C          7.1190   -0.3920   -0.7880 C.2     1  UNL1        0.0080
      8  C          7.8180   -1.9390    0.8930 C.2     1  UNL1        0.0540
      9  C          7.5310   -1.2990   -1.7470 C.2     1  UNL1        0.0510
     10  C          8.2340   -2.8520   -0.0810 C.2     1  UNL1        0.1660
     11  C          8.0880   -2.5290   -1.4120 C.2     1  UNL1        0.1650
     12  O          8.8020   -4.1060   -0.0120 O.2     1  UNL1       -0.4540
     13  O          8.5760   -3.6030   -2.1400 O.2     1  UNL1       -0.4540
     14  C          9.1220   -4.5860   -1.2930 C.3     1  UNL1        0.4680
@<TRIPOS>BOND
     1    13    11    1
     2    13    14    1
     3     9    11    2
     4     9     7    1
     5    11    10    1
     6    14    12    1
     7     7     6    2
     8    10    12    1
     9    10     8    2
    10     6     8    1
    11     6     5    1
    12     3     2    1
    13     5     1    1
    14     2     1    1
    15     2     4    2
