@<TRIPOS>MOLECULE
/home/cewinharhar/GITHUB/reincatalyze/data/processed/docking_pred/2023-May-23-1437_sub9_nm5_bs15_s42_ex16_mel10_mts10000_k50_ec02_g099_lra3e-4_lrc1e-3/c2bbe2b0b698b4c34a14c6b9d782c5d04fb4e97c_ligand_9.pdbqt
 14 15 0 0 0
SMALL
GASTEIGER

@<TRIPOS>ATOM
      1  C          5.5100    1.9230    1.2530 C.3     1  UNL1        0.0800
      2  C          5.0670    0.7120    1.9980 C.2     1  UNL1        0.1300
      3  C          5.9520   -0.4730    2.1590 C.3     1  UNL1        0.0870
      4  O          3.9560    0.6570    2.5010 O.2     1  UNL1       -0.3000
      5  C          5.3860    1.7250   -0.2440 C.3     1  UNL1        0.0430
      6  C          6.5570    1.0240   -0.8020 C.2     1  UNL1       -0.0440
      7  C          7.8620    1.4610   -0.5470 C.2     1  UNL1        0.0080
      8  C          6.3740   -0.0890   -1.5900 C.2     1  UNL1        0.0540
      9  C          8.9220    0.7640   -1.0970 C.2     1  UNL1        0.0510
     10  C          7.4500   -0.7910   -2.1430 C.2     1  UNL1        0.1660
     11  C          8.7340   -0.3610   -1.8940 C.2     1  UNL1        0.1650
     12  O          7.5290   -1.9080   -2.9470 O.2     1  UNL1       -0.4540
     13  O          9.5840   -1.2320   -2.5570 O.2     1  UNL1       -0.4540
     14  C          8.8660   -2.2810   -3.1620 C.3     1  UNL1        0.4680
@<TRIPOS>BOND
     1    14    12    1
     2    14    13    1
     3    12    10    1
     4    13    11    1
     5    10    11    2
     6    10     8    1
     7    11     9    1
     8     8     6    2
     9     9     7    2
    10     6     7    1
    11     6     5    1
    12     5     1    1
    13     1     2    1
    14     2     3    1
    15     2     4    2
