@<TRIPOS>MOLECULE
/home/cewinharhar/GITHUB/reincatalyze/data/processed/docking_pred/2023-May-23-1437_sub9_nm5_bs15_s42_ex16_mel10_mts10000_k50_ec02_g099_lra3e-4_lrc1e-3/c584487daa348165e33ca71579c90fd99cb4babd_ligand_9.pdbqt
 14 15 0 0 0
SMALL
GASTEIGER

@<TRIPOS>ATOM
      1  C          5.7610    1.3440   -0.3430 C.3     1  UNL1        0.0800
      2  C          5.1570    1.2570    1.0160 C.2     1  UNL1        0.1300
      3  C          5.3980    0.0890    1.9050 C.3     1  UNL1        0.0870
      4  O          4.4420    2.1500    1.4420 O.2     1  UNL1       -0.3000
      5  C          7.2560    1.1020   -0.2970 C.3     1  UNL1        0.0430
      6  C          7.6180   -0.1980   -0.8890 C.2     1  UNL1       -0.0440
      7  C          7.6600   -0.3860   -2.2750 C.2     1  UNL1        0.0080
      8  C          7.9270   -1.2590   -0.0680 C.2     1  UNL1        0.0540
      9  C          8.0070   -1.6280   -2.7730 C.2     1  UNL1        0.0510
     10  C          8.2790   -2.5130   -0.5770 C.2     1  UNL1        0.1660
     11  C          8.3190   -2.6990   -1.9410 C.2     1  UNL1        0.1650
     12  O          8.6220   -3.7070    0.0210 O.2     1  UNL1       -0.4540
     13  O          8.6910   -4.0170   -2.1550 O.2     1  UNL1       -0.4540
     14  C          8.9820   -4.6660   -0.9400 C.3     1  UNL1        0.4680
@<TRIPOS>BOND
     1     9     7    1
     2     9    11    2
     3     7     6    2
     4    13    11    1
     5    13    14    1
     6    11    10    1
     7    14    12    1
     8     6     5    1
     9     6     8    1
    10    10     8    2
    11    10    12    1
    12     1     5    1
    13     1     2    1
    14     2     4    2
    15     2     3    1
