@<TRIPOS>MOLECULE
/home/cewinharhar/GITHUB/reincatalyze/data/processed/docking_pred/2023-May-23-1437_sub9_nm5_bs15_s42_ex16_mel10_mts10000_k50_ec02_g099_lra3e-4_lrc1e-3/c584487daa348165e33ca71579c90fd99cb4babd_ligand_9.pdbqt
 14 15 0 0 0
SMALL
GASTEIGER

@<TRIPOS>ATOM
      1  C          6.3410    1.2510    0.8650 C.3     1  UNL1        0.0800
      2  C          5.6610    0.4390    1.9130 C.2     1  UNL1        0.1300
      3  C          6.2860   -0.7860    2.4790 C.3     1  UNL1        0.0870
      4  O          4.5630    0.7590    2.3390 O.2     1  UNL1       -0.3000
      5  C          5.8290    0.9040   -0.5180 C.3     1  UNL1        0.0430
      6  C          6.8030    0.0970   -1.2750 C.2     1  UNL1       -0.0440
      7  C          7.5270    0.6350   -2.3440 C.2     1  UNL1        0.0080
      8  C          7.0140   -1.2180   -0.9280 C.2     1  UNL1        0.0540
      9  C          8.4280   -0.1700   -3.0170 C.2     1  UNL1        0.0510
     10  C          7.9270   -2.0280   -1.6110 C.2     1  UNL1        0.1660
     11  C          8.6400   -1.4990   -2.6640 C.2     1  UNL1        0.1650
     12  O          8.3110   -3.3430   -1.4620 O.2     1  UNL1       -0.4540
     13  O          9.4550   -2.5120   -3.1440 O.2     1  UNL1       -0.4540
     14  C          9.3450   -3.6710   -2.3540 C.3     1  UNL1        0.4680
@<TRIPOS>BOND
     1    13    11    1
     2    13    14    1
     3     9    11    2
     4     9     7    1
     5    11    10    1
     6    14    12    1
     7     7     6    2
     8    10    12    1
     9    10     8    2
    10     6     8    1
    11     6     5    1
    12     5     1    1
    13     1     2    1
    14     2     4    2
    15     2     3    1
