@<TRIPOS>MOLECULE
/home/cewinharhar/GITHUB/reincatalyze/data/processed/docking_pred/2023-May-23-1437_sub9_nm5_bs15_s42_ex16_mel10_mts10000_k50_ec02_g099_lra3e-4_lrc1e-3/c584487daa348165e33ca71579c90fd99cb4babd_ligand_9.pdbqt
 14 15 0 0 0
SMALL
GASTEIGER

@<TRIPOS>ATOM
      1  C          8.2400    0.1180   -2.7670 C.3     1  UNL1        0.0800
      2  C          8.0290   -1.3550   -2.8330 C.2     1  UNL1        0.1300
      3  C          9.1650   -2.2990   -3.0100 C.3     1  UNL1        0.0870
      4  O          6.9100   -1.8320   -2.7440 O.2     1  UNL1       -0.3000
      5  C          8.8070    0.5330   -1.4240 C.3     1  UNL1        0.0430
      6  C          7.8100    0.4040   -0.3460 C.2     1  UNL1       -0.0440
      7  C          7.9680   -0.5230    0.6910 C.2     1  UNL1        0.0080
      8  C          6.6950    1.2100   -0.3480 C.2     1  UNL1        0.0540
      9  C          7.0000   -0.5990    1.6750 C.2     1  UNL1        0.0510
     10  C          5.7190    1.1290    0.6500 C.2     1  UNL1        0.1660
     11  C          5.8730    0.2170    1.6700 C.2     1  UNL1        0.1650
     12  O          4.5390    1.8080    0.8680 O.2     1  UNL1       -0.4540
     13  O          4.7730    0.3570    2.5020 O.2     1  UNL1       -0.4540
     14  C          3.9480    1.4160    2.0800 C.3     1  UNL1        0.4680
@<TRIPOS>BOND
     1     3     2    1
     2     2     1    1
     3     2     4    2
     4     1     5    1
     5     5     6    1
     6     8     6    2
     7     8    10    1
     8     6     7    1
     9    10    12    1
    10    10    11    2
    11     7     9    2
    12    12    14    1
    13    11     9    1
    14    11    13    1
    15    14    13    1
