@<TRIPOS>MOLECULE
/home/cewinharhar/GITHUB/reincatalyze/data/processed/docking_pred/2023-May-23-1437_sub9_nm5_bs15_s42_ex16_mel10_mts10000_k50_ec02_g099_lra3e-4_lrc1e-3/c584487daa348165e33ca71579c90fd99cb4babd_ligand_9.pdbqt
 14 15 0 0 0
SMALL
GASTEIGER

@<TRIPOS>ATOM
      1  C          5.5170    1.8970    1.2910 C.3     1  UNL1        0.0800
      2  C          5.0280    0.6840    2.0050 C.2     1  UNL1        0.1300
      3  C          5.8550   -0.5480    2.1080 C.3     1  UNL1        0.0870
      4  O          3.9260    0.6680    2.5290 O.2     1  UNL1       -0.3000
      5  C          5.3970    1.7360   -0.2120 C.3     1  UNL1        0.0430
      6  C          6.5630    1.0370   -0.7820 C.2     1  UNL1       -0.0440
      7  C          7.8710    1.4750   -0.5400 C.2     1  UNL1        0.0080
      8  C          6.3740   -0.0750   -1.5700 C.2     1  UNL1        0.0540
      9  C          8.9260    0.7790   -1.1000 C.2     1  UNL1        0.0510
     10  C          7.4440   -0.7760   -2.1340 C.2     1  UNL1        0.1660
     11  C          8.7310   -0.3450   -1.8970 C.2     1  UNL1        0.1650
     12  O          7.5160   -1.8920   -2.9400 O.2     1  UNL1       -0.4540
     13  O          9.5750   -1.2150   -2.5690 O.2     1  UNL1       -0.4540
     14  C          8.8510   -2.2630   -3.1690 C.3     1  UNL1        0.4680
@<TRIPOS>BOND
     1    14    12    1
     2    14    13    1
     3    12    10    1
     4    13    11    1
     5    10    11    2
     6    10     8    1
     7    11     9    1
     8     8     6    2
     9     9     7    2
    10     6     7    1
    11     6     5    1
    12     5     1    1
    13     1     2    1
    14     2     3    1
    15     2     4    2
