@<TRIPOS>MOLECULE
/home/cewinharhar/GITHUB/reincatalyze/data/processed/docking_pred/2023-May-23-1437_sub9_nm5_bs15_s42_ex16_mel10_mts10000_k50_ec02_g099_lra3e-4_lrc1e-3/c5f7f675b3df69e676e62d17e40489667b0e6a6f_ligand_9.pdbqt
 14 15 0 0 0
SMALL
GASTEIGER

@<TRIPOS>ATOM
      1  C          5.5420   -0.0250    1.9600 C.3     1  UNL1        0.0800
      2  C          4.6710    1.1460    1.6610 C.2     1  UNL1        0.1300
      3  C          5.0060    2.1140    0.5830 C.3     1  UNL1        0.0870
      4  O          3.6490    1.3450    2.2980 O.2     1  UNL1       -0.3000
      5  C          6.9660    0.2170    1.4980 C.3     1  UNL1        0.0430
      6  C          7.3700   -0.7390    0.4520 C.2     1  UNL1       -0.0440
      7  C          7.2460   -0.4330   -0.9080 C.2     1  UNL1        0.0080
      8  C          7.8860   -1.9640    0.8100 C.2     1  UNL1        0.0540
      9  C          7.6430   -1.3690   -1.8460 C.2     1  UNL1        0.0510
     10  C          8.2870   -2.9070   -0.1420 C.2     1  UNL1        0.1660
     11  C          8.1640   -2.6070   -1.4800 C.2     1  UNL1        0.1650
     12  O          8.8200   -4.1740   -0.0420 O.2     1  UNL1       -0.4540
     13  O          8.6310   -3.7080   -2.1820 O.2     1  UNL1       -0.4540
     14  C          9.1410   -4.6880   -1.3090 C.3     1  UNL1        0.4680
@<TRIPOS>BOND
     1    13    11    1
     2    13    14    1
     3     9    11    2
     4     9     7    1
     5    11    10    1
     6    14    12    1
     7     7     6    2
     8    10    12    1
     9    10     8    2
    10     6     8    1
    11     6     5    1
    12     3     2    1
    13     5     1    1
    14     2     1    1
    15     2     4    2
