MODEL 1
REMARK VINA RESULT:      -7.6      0.000      0.000
REMARK SMILES CC(=O)CCc1ccc2c(c1)OCO2
REMARK SMILES IDX 4 1 2 2 1 3 3 4 5 5 6 6 7 7 11 8 8 9 10 10 9 11 12 12 14 13
REMARK SMILES IDX 13 14
REMARK H PARENT
REMARK Flexibility Score: inf
ROOT
ATOM      1  C   UNL     1       5.559   1.891   1.285  1.00  0.00     0.080 C 
ENDROOT
BRANCH   1   2
ATOM      2  C   UNL     1       5.120   0.671   2.019  1.00  0.00     0.130 C 
ATOM      3  C   UNL     1       6.017  -0.503   2.188  1.00  0.00     0.087 C 
ATOM      4  O   UNL     1       4.003   0.601   2.506  1.00  0.00    -0.300 OA
ENDBRANCH   1   2
BRANCH   1   5
ATOM      5  C   UNL     1       5.424   1.709  -0.214  1.00  0.00     0.043 C 
BRANCH   5   6
ATOM      6  C   UNL     1       6.588   1.009  -0.787  1.00  0.00    -0.044 A 
ATOM      7  C   UNL     1       7.896   1.441  -0.542  1.00  0.00     0.008 A 
ATOM      8  C   UNL     1       6.395  -0.100  -1.580  1.00  0.00     0.054 A 
ATOM      9  C   UNL     1       8.950   0.744  -1.105  1.00  0.00     0.051 A 
ATOM     10  C   UNL     1       7.463  -0.802  -2.146  1.00  0.00     0.166 A 
ATOM     11  C   UNL     1       8.751  -0.376  -1.907  1.00  0.00     0.165 A 
ATOM     12  O   UNL     1       7.532  -1.914  -2.957  1.00  0.00    -0.454 OA
ATOM     13  O   UNL     1       9.593  -1.246  -2.583  1.00  0.00    -0.454 OA
ATOM     14  C   UNL     1       8.866  -2.289  -3.187  1.00  0.00     0.468 C 
ENDBRANCH   5   6
ENDBRANCH   1   5
TORSDOF 3
ENDMDL
MODEL 2
REMARK VINA RESULT:      -7.5      1.921      2.371
REMARK SMILES CC(=O)CCc1ccc2c(c1)OCO2
REMARK SMILES IDX 4 1 2 2 1 3 3 4 5 5 6 6 7 7 11 8 8 9 10 10 9 11 12 12 14 13
REMARK SMILES IDX 13 14
REMARK H PARENT
REMARK Flexibility Score: inf
ROOT
ATOM      1  C   UNL     1       5.732   1.356  -0.289  1.00  0.00     0.080 C 
ENDROOT
BRANCH   1   2
ATOM      2  C   UNL     1       5.120   1.275   1.067  1.00  0.00     0.130 C 
ATOM      3  C   UNL     1       5.394   0.132   1.980  1.00  0.00     0.087 C 
ATOM      4  O   UNL     1       4.372   2.150   1.470  1.00  0.00    -0.300 OA
ENDBRANCH   1   2
BRANCH   1   5
ATOM      5  C   UNL     1       7.228   1.119  -0.233  1.00  0.00     0.043 C 
BRANCH   5   6
ATOM      6  C   UNL     1       7.601  -0.169  -0.843  1.00  0.00    -0.044 A 
ATOM      7  C   UNL     1       7.674  -0.330  -2.231  1.00  0.00     0.008 A 
ATOM      8  C   UNL     1       7.889  -1.247  -0.037  1.00  0.00     0.054 A 
ATOM      9  C   UNL     1       8.030  -1.562  -2.747  1.00  0.00     0.051 A 
ATOM     10  C   UNL     1       8.250  -2.492  -0.563  1.00  0.00     0.166 A 
ATOM     11  C   UNL     1       8.320  -2.650  -1.929  1.00  0.00     0.165 A 
ATOM     12  O   UNL     1       8.578  -3.698   0.018  1.00  0.00    -0.454 OA
ATOM     13  O   UNL     1       8.695  -3.965  -2.161  1.00  0.00    -0.454 OA
ATOM     14  C   UNL     1       8.957  -4.639  -0.953  1.00  0.00     0.468 C 
ENDBRANCH   5   6
ENDBRANCH   1   5
TORSDOF 3
ENDMDL
MODEL 3
REMARK VINA RESULT:      -7.2      2.087      2.635
REMARK SMILES CC(=O)CCc1ccc2c(c1)OCO2
REMARK SMILES IDX 4 1 2 2 1 3 3 4 5 5 6 6 7 7 11 8 8 9 10 10 9 11 12 12 14 13
REMARK SMILES IDX 13 14
REMARK H PARENT
REMARK Flexibility Score: inf
ROOT
ATOM      1  C   UNL     1       5.542  -0.025   1.960  1.00  0.00     0.080 C 
ENDROOT
BRANCH   1   2
ATOM      2  C   UNL     1       4.671   1.146   1.661  1.00  0.00     0.130 C 
ATOM      3  C   UNL     1       5.006   2.114   0.583  1.00  0.00     0.087 C 
ATOM      4  O   UNL     1       3.649   1.345   2.298  1.00  0.00    -0.300 OA
ENDBRANCH   1   2
BRANCH   1   5
ATOM      5  C   UNL     1       6.966   0.217   1.498  1.00  0.00     0.043 C 
BRANCH   5   6
ATOM      6  C   UNL     1       7.370  -0.739   0.452  1.00  0.00    -0.044 A 
ATOM      7  C   UNL     1       7.246  -0.433  -0.908  1.00  0.00     0.008 A 
ATOM      8  C   UNL     1       7.886  -1.964   0.810  1.00  0.00     0.054 A 
ATOM      9  C   UNL     1       7.643  -1.369  -1.846  1.00  0.00     0.051 A 
ATOM     10  C   UNL     1       8.287  -2.907  -0.142  1.00  0.00     0.166 A 
ATOM     11  C   UNL     1       8.164  -2.607  -1.480  1.00  0.00     0.165 A 
ATOM     12  O   UNL     1       8.820  -4.174  -0.042  1.00  0.00    -0.454 OA
ATOM     13  O   UNL     1       8.631  -3.708  -2.182  1.00  0.00    -0.454 OA
ATOM     14  C   UNL     1       9.141  -4.688  -1.309  1.00  0.00     0.468 C 
ENDBRANCH   5   6
ENDBRANCH   1   5
TORSDOF 3
ENDMDL
MODEL 4
REMARK VINA RESULT:      -7.1      1.243      1.447
REMARK SMILES CC(=O)CCc1ccc2c(c1)OCO2
REMARK SMILES IDX 4 1 2 2 1 3 3 4 5 5 6 6 7 7 11 8 8 9 10 10 9 11 12 12 14 13
REMARK SMILES IDX 13 14
REMARK H PARENT
REMARK Flexibility Score: inf
ROOT
ATOM      1  C   UNL     1       6.391   1.211   0.925  1.00  0.00     0.080 C 
ENDROOT
BRANCH   1   2
ATOM      2  C   UNL     1       5.663   0.382   1.926  1.00  0.00     0.130 C 
ATOM      3  C   UNL     1       6.266  -0.846   2.509  1.00  0.00     0.087 C 
ATOM      4  O   UNL     1       4.543   0.689   2.298  1.00  0.00    -0.300 OA
ENDBRANCH   1   2
BRANCH   1   5
ATOM      5  C   UNL     1       5.886   0.948  -0.479  1.00  0.00     0.043 C 
BRANCH   5   6
ATOM      6  C   UNL     1       6.826   0.117  -1.252  1.00  0.00    -0.044 A 
ATOM      7  C   UNL     1       7.515   0.626  -2.359  1.00  0.00     0.008 A 
ATOM      8  C   UNL     1       7.043  -1.191  -0.882  1.00  0.00     0.054 A 
ATOM      9  C   UNL     1       8.385  -0.201  -3.045  1.00  0.00     0.051 A 
ATOM     10  C   UNL     1       7.925  -2.022  -1.579  1.00  0.00     0.166 A 
ATOM     11  C   UNL     1       8.601  -1.523  -2.670  1.00  0.00     0.165 A 
ATOM     12  O   UNL     1       8.306  -3.337  -1.413  1.00  0.00    -0.454 OA
ATOM     13  O   UNL     1       9.393  -2.552  -3.155  1.00  0.00    -0.454 OA
ATOM     14  C   UNL     1       9.305  -3.693  -2.334  1.00  0.00     0.468 C 
ENDBRANCH   5   6
ENDBRANCH   1   5
TORSDOF 3
ENDMDL
MODEL 5
REMARK VINA RESULT:      -7.1      1.925      2.582
REMARK SMILES CC(=O)CCc1ccc2c(c1)OCO2
REMARK SMILES IDX 4 1 2 2 1 3 3 4 5 5 6 6 7 7 11 8 8 9 10 10 9 11 12 12 14 13
REMARK SMILES IDX 13 14
REMARK H PARENT
REMARK Flexibility Score: inf
ROOT
ATOM      1  C   UNL     1       6.654   1.113   1.144  1.00  0.00     0.080 C 
ENDROOT
BRANCH   1   2
ATOM      2  C   UNL     1       5.286   1.631   0.860  1.00  0.00     0.130 C 
ATOM      3  C   UNL     1       4.911   2.148  -0.484  1.00  0.00     0.087 C 
ATOM      4  O   UNL     1       4.429   1.647   1.728  1.00  0.00    -0.300 OA
ENDBRANCH   1   2
BRANCH   1   5
ATOM      5  C   UNL     1       7.550   1.231  -0.073  1.00  0.00     0.043 C 
BRANCH   5   6
ATOM      6  C   UNL     1       7.786  -0.079  -0.706  1.00  0.00    -0.044 A 
ATOM      7  C   UNL     1       7.713  -0.246  -2.094  1.00  0.00     0.008 A 
ATOM      8  C   UNL     1       8.087  -1.171   0.076  1.00  0.00     0.054 A 
ATOM      9  C   UNL     1       7.945  -1.498  -2.633  1.00  0.00     0.051 A 
ATOM     10  C   UNL     1       8.321  -2.435  -0.474  1.00  0.00     0.166 A 
ATOM     11  C   UNL     1       8.249  -2.600  -1.839  1.00  0.00     0.165 A 
ATOM     12  O   UNL     1       8.633  -3.658   0.082  1.00  0.00    -0.454 OA
ATOM     13  O   UNL     1       8.521  -3.935  -2.096  1.00  0.00    -0.454 OA
ATOM     14  C   UNL     1       8.859  -4.621  -0.915  1.00  0.00     0.468 C 
ENDBRANCH   5   6
ENDBRANCH   1   5
TORSDOF 3
ENDMDL
