@<TRIPOS>MOLECULE
/home/cewinharhar/GITHUB/reincatalyze/data/processed/docking_pred/2023-May-23-1437_sub9_nm5_bs15_s42_ex16_mel10_mts10000_k50_ec02_g099_lra3e-4_lrc1e-3/c61eb663c2c3330cf201d691d278f59eb7eebd68_ligand_9.pdbqt
 14 15 0 0 0
SMALL
GASTEIGER

@<TRIPOS>ATOM
      1  C          6.7570    0.7620    1.3290 C.3     1  UNL1        0.0800
      2  C          5.3220    1.1550    1.3990 C.2     1  UNL1        0.1300
      3  C          4.7380    2.1500    0.4610 C.3     1  UNL1        0.0870
      4  O          4.5790    0.6670    2.2360 O.2     1  UNL1       -0.3000
      5  C          7.3260    0.9980   -0.0560 C.3     1  UNL1        0.0430
      6  C          7.6810   -0.2660   -0.7240 C.2     1  UNL1       -0.0440
      7  C          7.7640   -0.3610   -2.1180 C.2     1  UNL1        0.0080
      8  C          7.9440   -1.3860    0.0320 C.2     1  UNL1        0.0540
      9  C          8.1030   -1.5740   -2.6890 C.2     1  UNL1        0.0510
     10  C          8.2870   -2.6100   -0.5510 C.2     1  UNL1        0.1660
     11  C          8.3670   -2.7050   -1.9220 C.2     1  UNL1        0.1650
     12  O          8.5880   -3.8490   -0.0260 O.2     1  UNL1       -0.4540
     13  O          8.7210   -4.0130   -2.2140 O.2     1  UNL1       -0.4540
     14  C          8.9600   -4.7490   -1.0380 C.3     1  UNL1        0.4680
@<TRIPOS>BOND
     1     9     7    1
     2     9    11    2
     3    13    11    1
     4    13    14    1
     5     7     6    2
     6    11    10    1
     7    14    12    1
     8     6     5    1
     9     6     8    1
    10    10    12    1
    11    10     8    2
    12     5     1    1
    13     3     2    1
    14     1     2    1
    15     2     4    2
