@<TRIPOS>MOLECULE
/home/cewinharhar/GITHUB/reincatalyze/data/processed/docking_pred/2023-May-23-1437_sub9_nm5_bs15_s42_ex16_mel10_mts10000_k50_ec02_g099_lra3e-4_lrc1e-3/c61eb663c2c3330cf201d691d278f59eb7eebd68_ligand_9.pdbqt
 14 15 0 0 0
SMALL
GASTEIGER

@<TRIPOS>ATOM
      1  C          5.4530   -0.0130    2.0040 C.3     1  UNL1        0.0800
      2  C          4.5400    1.1360    1.7450 C.2     1  UNL1        0.1300
      3  C          4.8120    2.1200    0.6640 C.3     1  UNL1        0.0870
      4  O          3.5370    1.3020    2.4190 O.2     1  UNL1       -0.3000
      5  C          6.8580    0.2790    1.5140 C.3     1  UNL1        0.0430
      6  C          7.2810   -0.6720    0.4710 C.2     1  UNL1       -0.0440
      7  C          7.1560   -0.3710   -0.8900 C.2     1  UNL1        0.0080
      8  C          7.8160   -1.8870    0.8330 C.2     1  UNL1        0.0540
      9  C          7.5720   -1.3020   -1.8240 C.2     1  UNL1        0.0510
     10  C          8.2360   -2.8250   -0.1160 C.2     1  UNL1        0.1660
     11  C          8.1120   -2.5300   -1.4550 C.2     1  UNL1        0.1650
     12  O          8.7900   -4.0830   -0.0120 O.2     1  UNL1       -0.4540
     13  O          8.5990   -3.6240   -2.1530 O.2     1  UNL1       -0.4540
     14  C          9.1230   -4.5940   -1.2770 C.3     1  UNL1        0.4680
@<TRIPOS>BOND
     1    13    11    1
     2    13    14    1
     3     9    11    2
     4     9     7    1
     5    11    10    1
     6    14    12    1
     7     7     6    2
     8    10    12    1
     9    10     8    2
    10     6     8    1
    11     6     5    1
    12     3     2    1
    13     5     1    1
    14     2     1    1
    15     2     4    2
