MODEL 1
REMARK VINA RESULT:      -7.7      0.000      0.000
REMARK SMILES CC(=O)CCc1ccc2c(c1)OCO2
REMARK SMILES IDX 4 1 2 2 1 3 3 4 5 5 6 6 7 7 11 8 8 9 10 10 9 11 12 12 14 13
REMARK SMILES IDX 13 14
REMARK H PARENT
REMARK Flexibility Score: inf
ROOT
ATOM      1  C   UNL     1       5.542   1.890   1.278  1.00  0.00     0.080 C 
ENDROOT
BRANCH   1   2
ATOM      2  C   UNL     1       5.098   0.671   2.010  1.00  0.00     0.130 C 
ATOM      3  C   UNL     1       5.984  -0.513   2.165  1.00  0.00     0.087 C 
ATOM      4  O   UNL     1       3.985   0.610   2.507  1.00  0.00    -0.300 OA
ENDBRANCH   1   2
BRANCH   1   5
ATOM      5  C   UNL     1       5.410   1.710  -0.221  1.00  0.00     0.043 C 
BRANCH   5   6
ATOM      6  C   UNL     1       6.575   1.011  -0.793  1.00  0.00    -0.044 A 
ATOM      7  C   UNL     1       7.883   1.446  -0.549  1.00  0.00     0.008 A 
ATOM      8  C   UNL     1       6.384  -0.100  -1.583  1.00  0.00     0.054 A 
ATOM      9  C   UNL     1       8.937   0.749  -1.111  1.00  0.00     0.051 A 
ATOM     10  C   UNL     1       7.453  -0.801  -2.149  1.00  0.00     0.166 A 
ATOM     11  C   UNL     1       8.740  -0.373  -1.911  1.00  0.00     0.165 A 
ATOM     12  O   UNL     1       7.523  -1.915  -2.958  1.00  0.00    -0.454 OA
ATOM     13  O   UNL     1       9.583  -1.242  -2.585  1.00  0.00    -0.454 OA
ATOM     14  C   UNL     1       8.858  -2.288  -3.187  1.00  0.00     0.468 C 
ENDBRANCH   5   6
ENDBRANCH   1   5
TORSDOF 3
ENDMDL
MODEL 2
REMARK VINA RESULT:      -7.3      1.770      2.170
REMARK SMILES CC(=O)CCc1ccc2c(c1)OCO2
REMARK SMILES IDX 4 1 2 2 1 3 3 4 5 5 6 6 7 7 11 8 8 9 10 10 9 11 12 12 14 13
REMARK SMILES IDX 13 14
REMARK H PARENT
REMARK Flexibility Score: inf
ROOT
ATOM      1  C   UNL     1       5.559   1.508  -0.062  1.00  0.00     0.080 C 
ENDROOT
BRANCH   1   2
ATOM      2  C   UNL     1       4.957   1.205   1.267  1.00  0.00     0.130 C 
ATOM      3  C   UNL     1       5.412   0.048   2.084  1.00  0.00     0.087 C 
ATOM      4  O   UNL     1       4.067   1.902   1.725  1.00  0.00    -0.300 OA
ENDBRANCH   1   2
BRANCH   1   5
ATOM      5  C   UNL     1       7.058   1.277  -0.052  1.00  0.00     0.043 C 
BRANCH   5   6
ATOM      6  C   UNL     1       7.422   0.028  -0.744  1.00  0.00    -0.044 A 
ATOM      7  C   UNL     1       7.359  -0.083  -2.138  1.00  0.00     0.008 A 
ATOM      8  C   UNL     1       7.838  -1.061  -0.013  1.00  0.00     0.054 A 
ATOM      9  C   UNL     1       7.715  -1.280  -2.733  1.00  0.00     0.051 A 
ATOM     10  C   UNL     1       8.197  -2.269  -0.618  1.00  0.00     0.166 A 
ATOM     11  C   UNL     1       8.134  -2.379  -1.990  1.00  0.00     0.165 A 
ATOM     12  O   UNL     1       8.635  -3.477  -0.119  1.00  0.00    -0.454 OA
ATOM     13  O   UNL     1       8.541  -3.666  -2.307  1.00  0.00    -0.454 OA
ATOM     14  C   UNL     1       8.954  -4.367  -1.158  1.00  0.00     0.468 C 
ENDBRANCH   5   6
ENDBRANCH   1   5
TORSDOF 3
ENDMDL
MODEL 3
REMARK VINA RESULT:      -7.2      2.070      2.624
REMARK SMILES CC(=O)CCc1ccc2c(c1)OCO2
REMARK SMILES IDX 4 1 2 2 1 3 3 4 5 5 6 6 7 7 11 8 8 9 10 10 9 11 12 12 14 13
REMARK SMILES IDX 13 14
REMARK H PARENT
REMARK Flexibility Score: inf
ROOT
ATOM      1  C   UNL     1       5.469  -0.018   2.007  1.00  0.00     0.080 C 
ENDROOT
BRANCH   1   2
ATOM      2  C   UNL     1       4.590   1.156   1.748  1.00  0.00     0.130 C 
ATOM      3  C   UNL     1       4.894   2.136   0.670  1.00  0.00     0.087 C 
ATOM      4  O   UNL     1       3.589   1.350   2.418  1.00  0.00    -0.300 OA
ENDBRANCH   1   2
BRANCH   1   5
ATOM      5  C   UNL     1       6.889   0.244   1.547  1.00  0.00     0.043 C 
BRANCH   5   6
ATOM      6  C   UNL     1       7.308  -0.704   0.500  1.00  0.00    -0.044 A 
ATOM      7  C   UNL     1       7.189  -0.396  -0.860  1.00  0.00     0.008 A 
ATOM      8  C   UNL     1       7.834  -1.925   0.857  1.00  0.00     0.054 A 
ATOM      9  C   UNL     1       7.599  -1.325  -1.798  1.00  0.00     0.051 A 
ATOM     10  C   UNL     1       8.249  -2.862  -0.095  1.00  0.00     0.166 A 
ATOM     11  C   UNL     1       8.130  -2.559  -1.433  1.00  0.00     0.165 A 
ATOM     12  O   UNL     1       8.794  -4.124   0.004  1.00  0.00    -0.454 OA
ATOM     13  O   UNL     1       8.611  -3.653  -2.136  1.00  0.00    -0.454 OA
ATOM     14  C   UNL     1       9.126  -4.631  -1.264  1.00  0.00     0.468 C 
ENDBRANCH   5   6
ENDBRANCH   1   5
TORSDOF 3
ENDMDL
MODEL 4
REMARK VINA RESULT:      -7.1      1.245      1.448
REMARK SMILES CC(=O)CCc1ccc2c(c1)OCO2
REMARK SMILES IDX 4 1 2 2 1 3 3 4 5 5 6 6 7 7 11 8 8 9 10 10 9 11 12 12 14 13
REMARK SMILES IDX 13 14
REMARK H PARENT
REMARK Flexibility Score: inf
ROOT
ATOM      1  C   UNL     1       6.379   1.251   0.896  1.00  0.00     0.080 C 
ENDROOT
BRANCH   1   2
ATOM      2  C   UNL     1       5.700   0.398   1.911  1.00  0.00     0.130 C 
ATOM      3  C   UNL     1       6.364  -0.798   2.495  1.00  0.00     0.087 C 
ATOM      4  O   UNL     1       4.571   0.657   2.293  1.00  0.00    -0.300 OA
ENDBRANCH   1   2
BRANCH   1   5
ATOM      5  C   UNL     1       5.869   0.958  -0.501  1.00  0.00     0.043 C 
BRANCH   5   6
ATOM      6  C   UNL     1       6.814   0.125  -1.265  1.00  0.00    -0.044 A 
ATOM      7  C   UNL     1       7.510   0.631  -2.369  1.00  0.00     0.008 A 
ATOM      8  C   UNL     1       7.028  -1.182  -0.890  1.00  0.00     0.054 A 
ATOM      9  C   UNL     1       8.386  -0.198  -3.047  1.00  0.00     0.051 A 
ATOM     10  C   UNL     1       7.915  -2.015  -1.579  1.00  0.00     0.166 A 
ATOM     11  C   UNL     1       8.599  -1.519  -2.666  1.00  0.00     0.165 A 
ATOM     12  O   UNL     1       8.294  -3.330  -1.407  1.00  0.00    -0.454 OA
ATOM     13  O   UNL     1       9.393  -2.549  -3.144  1.00  0.00    -0.454 OA
ATOM     14  C   UNL     1       9.299  -3.688  -2.321  1.00  0.00     0.468 C 
ENDBRANCH   5   6
ENDBRANCH   1   5
TORSDOF 3
ENDMDL
MODEL 5
REMARK VINA RESULT:      -7.0      1.954      2.658
REMARK SMILES CC(=O)CCc1ccc2c(c1)OCO2
REMARK SMILES IDX 4 1 2 2 1 3 3 4 5 5 6 6 7 7 11 8 8 9 10 10 9 11 12 12 14 13
REMARK SMILES IDX 13 14
REMARK H PARENT
REMARK Flexibility Score: inf
ROOT
ATOM      1  C   UNL     1       6.666   1.073   0.970  1.00  0.00     0.080 C 
ENDROOT
BRANCH   1   2
ATOM      2  C   UNL     1       5.378   1.765   0.686  1.00  0.00     0.130 C 
ATOM      3  C   UNL     1       4.987   2.150  -0.697  1.00  0.00     0.087 C 
ATOM      4  O   UNL     1       4.601   2.039   1.586  1.00  0.00    -0.300 OA
ENDBRANCH   1   2
BRANCH   1   5
ATOM      5  C   UNL     1       7.614   1.169  -0.209  1.00  0.00     0.043 C 
BRANCH   5   6
ATOM      6  C   UNL     1       7.853  -0.148  -0.826  1.00  0.00    -0.044 A 
ATOM      7  C   UNL     1       7.824  -0.322  -2.214  1.00  0.00     0.008 A 
ATOM      8  C   UNL     1       8.114  -1.238  -0.028  1.00  0.00     0.054 A 
ATOM      9  C   UNL     1       8.056  -1.582  -2.737  1.00  0.00     0.051 A 
ATOM     10  C   UNL     1       8.349  -2.509  -0.562  1.00  0.00     0.166 A 
ATOM     11  C   UNL     1       8.319  -2.682  -1.927  1.00  0.00     0.165 A 
ATOM     12  O   UNL     1       8.626  -3.732   0.011  1.00  0.00    -0.454 OA
ATOM     13  O   UNL     1       8.582  -4.022  -2.168  1.00  0.00    -0.454 OA
ATOM     14  C   UNL     1       8.872  -4.705  -0.972  1.00  0.00     0.468 C 
ENDBRANCH   5   6
ENDBRANCH   1   5
TORSDOF 3
ENDMDL
