@<TRIPOS>MOLECULE
/home/cewinharhar/GITHUB/reincatalyze/data/processed/docking_pred/2023-May-23-1437_sub9_nm5_bs15_s42_ex16_mel10_mts10000_k50_ec02_g099_lra3e-4_lrc1e-3/ca2511eb0ea692a115cf18c67ef7ccdfaa736476_ligand_9.pdbqt
 14 15 0 0 0
SMALL
GASTEIGER

@<TRIPOS>ATOM
      1  C          5.7060    1.2960   -0.2910 C.3     1  UNL1        0.0800
      2  C          5.1410    1.2460    1.0860 C.2     1  UNL1        0.1300
      3  C          5.4060    0.1000    1.9970 C.3     1  UNL1        0.0870
      4  O          4.4390    2.1500    1.5090 O.2     1  UNL1       -0.3000
      5  C          7.2080    1.0900   -0.2780 C.3     1  UNL1        0.0430
      6  C          7.5870   -0.2020   -0.8780 C.2     1  UNL1       -0.0440
      7  C          7.6520   -0.3750   -2.2650 C.2     1  UNL1        0.0080
      8  C          7.8880   -1.2700   -0.0630 C.2     1  UNL1        0.0540
      9  C          8.0140   -1.6100   -2.7710 C.2     1  UNL1        0.0510
     10  C          8.2550   -2.5160   -0.5800 C.2     1  UNL1        0.1660
     11  C          8.3180   -2.6880   -1.9450 C.2     1  UNL1        0.1650
     12  O          8.5960   -3.7150    0.0110 O.2     1  UNL1       -0.4540
     13  O          8.7010   -4.0020   -2.1660 O.2     1  UNL1       -0.4540
     14  C          8.9760   -4.6620   -0.9540 C.3     1  UNL1        0.4680
@<TRIPOS>BOND
     1     9     7    1
     2     9    11    2
     3     7     6    2
     4    13    11    1
     5    13    14    1
     6    11    10    1
     7    14    12    1
     8     6     5    1
     9     6     8    1
    10    10     8    2
    11    10    12    1
    12     1     5    1
    13     1     2    1
    14     2     4    2
    15     2     3    1
