MODEL 1
REMARK VINA RESULT:      -7.6      0.000      0.000
REMARK SMILES CC(=O)CCc1ccc2c(c1)OCO2
REMARK SMILES IDX 4 1 2 2 1 3 3 4 5 5 6 6 7 7 11 8 8 9 10 10 9 11 12 12 14 13
REMARK SMILES IDX 13 14
REMARK H PARENT
REMARK Flexibility Score: inf
ROOT
ATOM      1  C   UNL     1       5.525   1.917   1.267  1.00  0.00     0.080 C 
ENDROOT
BRANCH   1   2
ATOM      2  C   UNL     1       5.075   0.703   2.004  1.00  0.00     0.130 C 
ATOM      3  C   UNL     1       5.957  -0.484   2.166  1.00  0.00     0.087 C 
ATOM      4  O   UNL     1       3.960   0.647   2.498  1.00  0.00    -0.300 OA
ENDBRANCH   1   2
BRANCH   1   5
ATOM      5  C   UNL     1       5.399   1.729  -0.232  1.00  0.00     0.043 C 
BRANCH   5   6
ATOM      6  C   UNL     1       6.566   1.027  -0.795  1.00  0.00    -0.044 A 
ATOM      7  C   UNL     1       7.873   1.463  -0.548  1.00  0.00     0.008 A 
ATOM      8  C   UNL     1       6.378  -0.086  -1.582  1.00  0.00     0.054 A 
ATOM      9  C   UNL     1       8.930   0.764  -1.103  1.00  0.00     0.051 A 
ATOM     10  C   UNL     1       7.450  -0.790  -2.140  1.00  0.00     0.166 A 
ATOM     11  C   UNL     1       8.736  -0.361  -1.898  1.00  0.00     0.165 A 
ATOM     12  O   UNL     1       7.523  -1.907  -2.944  1.00  0.00    -0.454 OA
ATOM     13  O   UNL     1       9.581  -1.234  -2.565  1.00  0.00    -0.454 OA
ATOM     14  C   UNL     1       8.858  -2.282  -3.166  1.00  0.00     0.468 C 
ENDBRANCH   5   6
ENDBRANCH   1   5
TORSDOF 3
ENDMDL
MODEL 2
REMARK VINA RESULT:      -7.5      1.925      2.390
REMARK SMILES CC(=O)CCc1ccc2c(c1)OCO2
REMARK SMILES IDX 4 1 2 2 1 3 3 4 5 5 6 6 7 7 11 8 8 9 10 10 9 11 12 12 14 13
REMARK SMILES IDX 13 14
REMARK H PARENT
REMARK Flexibility Score: inf
ROOT
ATOM      1  C   UNL     1       5.706   1.296  -0.291  1.00  0.00     0.080 C 
ENDROOT
BRANCH   1   2
ATOM      2  C   UNL     1       5.141   1.246   1.086  1.00  0.00     0.130 C 
ATOM      3  C   UNL     1       5.406   0.100   1.997  1.00  0.00     0.087 C 
ATOM      4  O   UNL     1       4.439   2.150   1.509  1.00  0.00    -0.300 OA
ENDBRANCH   1   2
BRANCH   1   5
ATOM      5  C   UNL     1       7.208   1.090  -0.278  1.00  0.00     0.043 C 
BRANCH   5   6
ATOM      6  C   UNL     1       7.587  -0.202  -0.878  1.00  0.00    -0.044 A 
ATOM      7  C   UNL     1       7.652  -0.375  -2.265  1.00  0.00     0.008 A 
ATOM      8  C   UNL     1       7.888  -1.270  -0.063  1.00  0.00     0.054 A 
ATOM      9  C   UNL     1       8.014  -1.610  -2.771  1.00  0.00     0.051 A 
ATOM     10  C   UNL     1       8.255  -2.516  -0.580  1.00  0.00     0.166 A 
ATOM     11  C   UNL     1       8.318  -2.688  -1.945  1.00  0.00     0.165 A 
ATOM     12  O   UNL     1       8.596  -3.715   0.011  1.00  0.00    -0.454 OA
ATOM     13  O   UNL     1       8.701  -4.002  -2.166  1.00  0.00    -0.454 OA
ATOM     14  C   UNL     1       8.976  -4.662  -0.954  1.00  0.00     0.468 C 
ENDBRANCH   5   6
ENDBRANCH   1   5
TORSDOF 3
ENDMDL
MODEL 3
REMARK VINA RESULT:      -7.2      2.052      2.617
REMARK SMILES CC(=O)CCc1ccc2c(c1)OCO2
REMARK SMILES IDX 4 1 2 2 1 3 3 4 5 5 6 6 7 7 11 8 8 9 10 10 9 11 12 12 14 13
REMARK SMILES IDX 13 14
REMARK H PARENT
REMARK Flexibility Score: inf
ROOT
ATOM      1  C   UNL     1       5.450  -0.045   1.992  1.00  0.00     0.080 C 
ENDROOT
BRANCH   1   2
ATOM      2  C   UNL     1       4.588   1.145   1.748  1.00  0.00     0.130 C 
ATOM      3  C   UNL     1       4.886   2.114   0.660  1.00  0.00     0.087 C 
ATOM      4  O   UNL     1       3.605   1.360   2.439  1.00  0.00    -0.300 OA
ENDBRANCH   1   2
BRANCH   1   5
ATOM      5  C   UNL     1       6.878   0.209   1.551  1.00  0.00     0.043 C 
BRANCH   5   6
ATOM      6  C   UNL     1       7.297  -0.725   0.491  1.00  0.00    -0.044 A 
ATOM      7  C   UNL     1       7.163  -0.404  -0.864  1.00  0.00     0.008 A 
ATOM      8  C   UNL     1       7.836  -1.945   0.831  1.00  0.00     0.054 A 
ATOM      9  C   UNL     1       7.575  -1.320  -1.815  1.00  0.00     0.051 A 
ATOM     10  C   UNL     1       8.251  -2.868  -0.133  1.00  0.00     0.166 A 
ATOM     11  C   UNL     1       8.119  -2.553  -1.468  1.00  0.00     0.165 A 
ATOM     12  O   UNL     1       8.808  -4.126  -0.052  1.00  0.00    -0.454 OA
ATOM     13  O   UNL     1       8.604  -3.635  -2.185  1.00  0.00    -0.454 OA
ATOM     14  C   UNL     1       9.134  -4.617  -1.327  1.00  0.00     0.468 C 
ENDBRANCH   5   6
ENDBRANCH   1   5
TORSDOF 3
ENDMDL
MODEL 4
REMARK VINA RESULT:      -7.1      1.258      1.474
REMARK SMILES CC(=O)CCc1ccc2c(c1)OCO2
REMARK SMILES IDX 4 1 2 2 1 3 3 4 5 5 6 6 7 7 11 8 8 9 10 10 9 11 12 12 14 13
REMARK SMILES IDX 13 14
REMARK H PARENT
REMARK Flexibility Score: inf
ROOT
ATOM      1  C   UNL     1       6.412   1.194   0.938  1.00  0.00     0.080 C 
ENDROOT
BRANCH   1   2
ATOM      2  C   UNL     1       5.678   0.357   1.928  1.00  0.00     0.130 C 
ATOM      3  C   UNL     1       6.272  -0.883   2.495  1.00  0.00     0.087 C 
ATOM      4  O   UNL     1       4.559   0.668   2.304  1.00  0.00    -0.300 OA
ENDBRANCH   1   2
BRANCH   1   5
ATOM      5  C   UNL     1       5.907   0.951  -0.470  1.00  0.00     0.043 C 
BRANCH   5   6
ATOM      6  C   UNL     1       6.837   0.113  -1.247  1.00  0.00    -0.044 A 
ATOM      7  C   UNL     1       7.514   0.612  -2.366  1.00  0.00     0.008 A 
ATOM      8  C   UNL     1       7.055  -1.193  -0.871  1.00  0.00     0.054 A 
ATOM      9  C   UNL     1       8.376  -0.221  -3.056  1.00  0.00     0.051 A 
ATOM     10  C   UNL     1       7.928  -2.031  -1.572  1.00  0.00     0.166 A 
ATOM     11  C   UNL     1       8.593  -1.541  -2.673  1.00  0.00     0.165 A 
ATOM     12  O   UNL     1       8.308  -3.345  -1.402  1.00  0.00    -0.454 OA
ATOM     13  O   UNL     1       9.377  -2.575  -3.161  1.00  0.00    -0.454 OA
ATOM     14  C   UNL     1       9.296  -3.709  -2.331  1.00  0.00     0.468 C 
ENDBRANCH   5   6
ENDBRANCH   1   5
TORSDOF 3
ENDMDL
MODEL 5
REMARK VINA RESULT:      -6.8      1.245      1.741
REMARK SMILES CC(=O)CCc1ccc2c(c1)OCO2
REMARK SMILES IDX 4 1 2 2 1 3 3 4 5 5 6 6 7 7 11 8 8 9 10 10 9 11 12 12 14 13
REMARK SMILES IDX 13 14
REMARK H PARENT
REMARK Flexibility Score: inf
ROOT
ATOM      1  C   UNL     1       5.339  -0.090   1.932  1.00  0.00     0.080 C 
ENDROOT
BRANCH   1   2
ATOM      2  C   UNL     1       4.459   1.101   1.768  1.00  0.00     0.130 C 
ATOM      3  C   UNL     1       4.745   2.149   0.752  1.00  0.00     0.087 C 
ATOM      4  O   UNL     1       3.472   1.252   2.470  1.00  0.00    -0.300 OA
ENDBRANCH   1   2
BRANCH   1   5
ATOM      5  C   UNL     1       6.804   0.296   1.881  1.00  0.00     0.043 C 
BRANCH   5   6
ATOM      6  C   UNL     1       7.417  -0.055   0.588  1.00  0.00    -0.044 A 
ATOM      7  C   UNL     1       7.937   0.925  -0.266  1.00  0.00     0.008 A 
ATOM      8  C   UNL     1       7.488  -1.374   0.202  1.00  0.00     0.054 A 
ATOM      9  C   UNL     1       8.502   0.536  -1.467  1.00  0.00     0.051 A 
ATOM     10  C   UNL     1       8.061  -1.761  -1.013  1.00  0.00     0.166 A 
ATOM     11  C   UNL     1       8.572  -0.798  -1.855  1.00  0.00     0.165 A 
ATOM     12  O   UNL     1       8.248  -2.988  -1.615  1.00  0.00    -0.454 OA
ATOM     13  O   UNL     1       9.068  -1.460  -2.967  1.00  0.00    -0.454 OA
ATOM     14  C   UNL     1       8.965  -2.856  -2.816  1.00  0.00     0.468 C 
ENDBRANCH   5   6
ENDBRANCH   1   5
TORSDOF 3
ENDMDL
