@<TRIPOS>MOLECULE
/home/cewinharhar/GITHUB/reincatalyze/data/processed/docking_pred/2023-May-23-1437_sub9_nm5_bs15_s42_ex16_mel10_mts10000_k50_ec02_g099_lra3e-4_lrc1e-3/cc4a81c85f0f72a0e9860fd8246284f5ccc1e781_ligand_9.pdbqt
 14 15 0 0 0
SMALL
GASTEIGER

@<TRIPOS>ATOM
      1  C          5.5010    1.9360    1.2500 C.3     1  UNL1        0.0800
      2  C          5.0720    0.7210    1.9960 C.2     1  UNL1        0.1300
      3  C          5.9750   -0.4490    2.1670 C.3     1  UNL1        0.0870
      4  O          3.9590    0.6500    2.4920 O.2     1  UNL1       -0.3000
      5  C          5.3780    1.7340   -0.2480 C.3     1  UNL1        0.0430
      6  C          6.5480    1.0320   -0.8030 C.2     1  UNL1       -0.0440
      7  C          7.8540    1.4630   -0.5410 C.2     1  UNL1        0.0080
      8  C          6.3650   -0.0770   -1.5970 C.2     1  UNL1        0.0540
      9  C          8.9140    0.7640   -1.0880 C.2     1  UNL1        0.0510
     10  C          7.4400   -0.7810   -2.1470 C.2     1  UNL1        0.1660
     11  C          8.7250   -0.3570   -1.8910 C.2     1  UNL1        0.1650
     12  O          7.5190   -1.8950   -2.9560 O.2     1  UNL1       -0.4540
     13  O          9.5750   -1.2290   -2.5540 O.2     1  UNL1       -0.4540
     14  C          8.8550   -2.2720   -3.1670 C.3     1  UNL1        0.4680
@<TRIPOS>BOND
     1    14    12    1
     2    14    13    1
     3    12    10    1
     4    13    11    1
     5    10    11    2
     6    10     8    1
     7    11     9    1
     8     8     6    2
     9     9     7    2
    10     6     7    1
    11     6     5    1
    12     5     1    1
    13     1     2    1
    14     2     3    1
    15     2     4    2
