@<TRIPOS>MOLECULE
/home/cewinharhar/GITHUB/reincatalyze/data/processed/docking_pred/2023-May-23-1437_sub9_nm5_bs15_s42_ex16_mel10_mts10000_k50_ec02_g099_lra3e-4_lrc1e-3/cdc825ac9d1cfd0e1f917a20457d8153cb4f8d56_ligand_9.pdbqt
 14 15 0 0 0
SMALL
GASTEIGER

@<TRIPOS>ATOM
      1  C          5.5290    1.9370    1.2550 C.3     1  UNL1        0.0800
      2  C          5.1080    0.7240    2.0100 C.2     1  UNL1        0.1300
      3  C          6.0210   -0.4360    2.1950 C.3     1  UNL1        0.0870
      4  O          3.9940    0.6460    2.5010 O.2     1  UNL1       -0.3000
      5  C          5.3980    1.7270   -0.2410 C.3     1  UNL1        0.0430
      6  C          6.5680    1.0260   -0.7990 C.2     1  UNL1       -0.0440
      7  C          7.8740    1.4560   -0.5360 C.2     1  UNL1        0.0080
      8  C          6.3840   -0.0810   -1.5960 C.2     1  UNL1        0.0540
      9  C          8.9340    0.7580   -1.0860 C.2     1  UNL1        0.0510
     10  C          7.4590   -0.7840   -2.1490 C.2     1  UNL1        0.1660
     11  C          8.7440   -0.3610   -1.8920 C.2     1  UNL1        0.1650
     12  O          7.5360   -1.8960   -2.9610 O.2     1  UNL1       -0.4540
     13  O          9.5930   -1.2310   -2.5580 O.2     1  UNL1       -0.4540
     14  C          8.8720   -2.2720   -3.1730 C.3     1  UNL1        0.4680
@<TRIPOS>BOND
     1    14    12    1
     2    14    13    1
     3    12    10    1
     4    13    11    1
     5    10    11    2
     6    10     8    1
     7    11     9    1
     8     8     6    2
     9     9     7    2
    10     6     7    1
    11     6     5    1
    12     5     1    1
    13     1     2    1
    14     2     3    1
    15     2     4    2
