@<TRIPOS>MOLECULE
/home/cewinharhar/GITHUB/reincatalyze/data/processed/docking_pred/2023-May-23-1437_sub9_nm5_bs15_s42_ex16_mel10_mts10000_k50_ec02_g099_lra3e-4_lrc1e-3/cdc825ac9d1cfd0e1f917a20457d8153cb4f8d56_ligand_9.pdbqt
 14 15 0 0 0
SMALL
GASTEIGER

@<TRIPOS>ATOM
      1  C          5.4450   -0.0340    2.0090 C.3     1  UNL1        0.0800
      2  C          4.5810    1.1540    1.7650 C.2     1  UNL1        0.1300
      3  C          4.8980    2.1460    0.7030 C.3     1  UNL1        0.0870
      4  O          3.5810    1.3500    2.4370 O.2     1  UNL1       -0.3000
      5  C          6.8730    0.2240    1.5700 C.3     1  UNL1        0.0430
      6  C          7.2950   -0.7060    0.5070 C.2     1  UNL1       -0.0440
      7  C          7.1710   -0.3760   -0.8470 C.2     1  UNL1        0.0080
      8  C          7.8270   -1.9300    0.8440 C.2     1  UNL1        0.0540
      9  C          7.5840   -1.2890   -1.8010 C.2     1  UNL1        0.0510
     10  C          8.2440   -2.8490   -0.1240 C.2     1  UNL1        0.1660
     11  C          8.1220   -2.5260   -1.4570 C.2     1  UNL1        0.1650
     12  O          8.7960   -4.1100   -0.0460 O.2     1  UNL1       -0.4540
     13  O          8.6060   -3.6060   -2.1780 O.2     1  UNL1       -0.4540
     14  C          9.1280   -4.5950   -1.3220 C.3     1  UNL1        0.4680
@<TRIPOS>BOND
     1    13    11    1
     2    13    14    1
     3     9    11    2
     4     9     7    1
     5    11    10    1
     6    14    12    1
     7     7     6    2
     8    10    12    1
     9    10     8    2
    10     6     8    1
    11     6     5    1
    12     3     2    1
    13     5     1    1
    14     2     1    1
    15     2     4    2
