MODEL 1
REMARK VINA RESULT:      -7.6      0.000      0.000
REMARK SMILES CC(=O)CCc1ccc2c(c1)OCO2
REMARK SMILES IDX 4 1 2 2 1 3 3 4 5 5 6 6 7 7 11 8 8 9 10 10 9 11 12 12 14 13
REMARK SMILES IDX 13 14
REMARK H PARENT
REMARK Flexibility Score: inf
ROOT
ATOM      1  C   UNL     1       5.529   1.937   1.255  1.00  0.00     0.080 C 
ENDROOT
BRANCH   1   2
ATOM      2  C   UNL     1       5.108   0.724   2.010  1.00  0.00     0.130 C 
ATOM      3  C   UNL     1       6.021  -0.436   2.195  1.00  0.00     0.087 C 
ATOM      4  O   UNL     1       3.994   0.646   2.501  1.00  0.00    -0.300 OA
ENDBRANCH   1   2
BRANCH   1   5
ATOM      5  C   UNL     1       5.398   1.727  -0.241  1.00  0.00     0.043 C 
BRANCH   5   6
ATOM      6  C   UNL     1       6.568   1.026  -0.799  1.00  0.00    -0.044 A 
ATOM      7  C   UNL     1       7.874   1.456  -0.536  1.00  0.00     0.008 A 
ATOM      8  C   UNL     1       6.384  -0.081  -1.596  1.00  0.00     0.054 A 
ATOM      9  C   UNL     1       8.934   0.758  -1.086  1.00  0.00     0.051 A 
ATOM     10  C   UNL     1       7.459  -0.784  -2.149  1.00  0.00     0.166 A 
ATOM     11  C   UNL     1       8.744  -0.361  -1.892  1.00  0.00     0.165 A 
ATOM     12  O   UNL     1       7.536  -1.896  -2.961  1.00  0.00    -0.454 OA
ATOM     13  O   UNL     1       9.593  -1.231  -2.558  1.00  0.00    -0.454 OA
ATOM     14  C   UNL     1       8.872  -2.272  -3.173  1.00  0.00     0.468 C 
ENDBRANCH   5   6
ENDBRANCH   1   5
TORSDOF 3
ENDMDL
MODEL 2
REMARK VINA RESULT:      -7.5      1.907      2.369
REMARK SMILES CC(=O)CCc1ccc2c(c1)OCO2
REMARK SMILES IDX 4 1 2 2 1 3 3 4 5 5 6 6 7 7 11 8 8 9 10 10 9 11 12 12 14 13
REMARK SMILES IDX 13 14
REMARK H PARENT
REMARK Flexibility Score: inf
ROOT
ATOM      1  C   UNL     1       5.741   1.364  -0.317  1.00  0.00     0.080 C 
ENDROOT
BRANCH   1   2
ATOM      2  C   UNL     1       5.109   1.284   1.029  1.00  0.00     0.130 C 
ATOM      3  C   UNL     1       5.388   0.156   1.957  1.00  0.00     0.087 C 
ATOM      4  O   UNL     1       4.338   2.150   1.412  1.00  0.00    -0.300 OA
ENDBRANCH   1   2
BRANCH   1   5
ATOM      5  C   UNL     1       7.234   1.114  -0.241  1.00  0.00     0.043 C 
BRANCH   5   6
ATOM      6  C   UNL     1       7.606  -0.168  -0.863  1.00  0.00    -0.044 A 
ATOM      7  C   UNL     1       7.683  -0.314  -2.253  1.00  0.00     0.008 A 
ATOM      8  C   UNL     1       7.890  -1.256  -0.069  1.00  0.00     0.054 A 
ATOM      9  C   UNL     1       8.038  -1.542  -2.781  1.00  0.00     0.051 A 
ATOM     10  C   UNL     1       8.250  -2.495  -0.607  1.00  0.00     0.166 A 
ATOM     11  C   UNL     1       8.324  -2.639  -1.975  1.00  0.00     0.165 A 
ATOM     12  O   UNL     1       8.574  -3.708  -0.038  1.00  0.00    -0.454 OA
ATOM     13  O   UNL     1       8.697  -3.951  -2.220  1.00  0.00    -0.454 OA
ATOM     14  C   UNL     1       8.954  -4.639  -1.019  1.00  0.00     0.468 C 
ENDBRANCH   5   6
ENDBRANCH   1   5
TORSDOF 3
ENDMDL
MODEL 3
REMARK VINA RESULT:      -7.2      2.047      2.612
REMARK SMILES CC(=O)CCc1ccc2c(c1)OCO2
REMARK SMILES IDX 4 1 2 2 1 3 3 4 5 5 6 6 7 7 11 8 8 9 10 10 9 11 12 12 14 13
REMARK SMILES IDX 13 14
REMARK H PARENT
REMARK Flexibility Score: inf
ROOT
ATOM      1  C   UNL     1       5.445  -0.034   2.009  1.00  0.00     0.080 C 
ENDROOT
BRANCH   1   2
ATOM      2  C   UNL     1       4.581   1.154   1.765  1.00  0.00     0.130 C 
ATOM      3  C   UNL     1       4.898   2.146   0.703  1.00  0.00     0.087 C 
ATOM      4  O   UNL     1       3.581   1.350   2.437  1.00  0.00    -0.300 OA
ENDBRANCH   1   2
BRANCH   1   5
ATOM      5  C   UNL     1       6.873   0.224   1.570  1.00  0.00     0.043 C 
BRANCH   5   6
ATOM      6  C   UNL     1       7.295  -0.706   0.507  1.00  0.00    -0.044 A 
ATOM      7  C   UNL     1       7.171  -0.376  -0.847  1.00  0.00     0.008 A 
ATOM      8  C   UNL     1       7.827  -1.930   0.844  1.00  0.00     0.054 A 
ATOM      9  C   UNL     1       7.584  -1.289  -1.801  1.00  0.00     0.051 A 
ATOM     10  C   UNL     1       8.244  -2.849  -0.124  1.00  0.00     0.166 A 
ATOM     11  C   UNL     1       8.122  -2.526  -1.457  1.00  0.00     0.165 A 
ATOM     12  O   UNL     1       8.796  -4.110  -0.046  1.00  0.00    -0.454 OA
ATOM     13  O   UNL     1       8.606  -3.606  -2.178  1.00  0.00    -0.454 OA
ATOM     14  C   UNL     1       9.128  -4.595  -1.322  1.00  0.00     0.468 C 
ENDBRANCH   5   6
ENDBRANCH   1   5
TORSDOF 3
ENDMDL
MODEL 4
REMARK VINA RESULT:      -7.1      1.261      1.478
REMARK SMILES CC(=O)CCc1ccc2c(c1)OCO2
REMARK SMILES IDX 4 1 2 2 1 3 3 4 5 5 6 6 7 7 11 8 8 9 10 10 9 11 12 12 14 13
REMARK SMILES IDX 13 14
REMARK H PARENT
REMARK Flexibility Score: inf
ROOT
ATOM      1  C   UNL     1       6.412   1.194   0.938  1.00  0.00     0.080 C 
ENDROOT
BRANCH   1   2
ATOM      2  C   UNL     1       5.678   0.357   1.928  1.00  0.00     0.130 C 
ATOM      3  C   UNL     1       6.272  -0.883   2.495  1.00  0.00     0.087 C 
ATOM      4  O   UNL     1       4.559   0.668   2.304  1.00  0.00    -0.300 OA
ENDBRANCH   1   2
BRANCH   1   5
ATOM      5  C   UNL     1       5.907   0.951  -0.470  1.00  0.00     0.043 C 
BRANCH   5   6
ATOM      6  C   UNL     1       6.837   0.113  -1.247  1.00  0.00    -0.044 A 
ATOM      7  C   UNL     1       7.514   0.612  -2.366  1.00  0.00     0.008 A 
ATOM      8  C   UNL     1       7.055  -1.193  -0.871  1.00  0.00     0.054 A 
ATOM      9  C   UNL     1       8.376  -0.221  -3.056  1.00  0.00     0.051 A 
ATOM     10  C   UNL     1       7.928  -2.031  -1.572  1.00  0.00     0.166 A 
ATOM     11  C   UNL     1       8.593  -1.541  -2.673  1.00  0.00     0.165 A 
ATOM     12  O   UNL     1       8.308  -3.345  -1.402  1.00  0.00    -0.454 OA
ATOM     13  O   UNL     1       9.377  -2.575  -3.161  1.00  0.00    -0.454 OA
ATOM     14  C   UNL     1       9.296  -3.709  -2.331  1.00  0.00     0.468 C 
ENDBRANCH   5   6
ENDBRANCH   1   5
TORSDOF 3
ENDMDL
MODEL 5
REMARK VINA RESULT:      -7.0      1.943      2.508
REMARK SMILES CC(=O)CCc1ccc2c(c1)OCO2
REMARK SMILES IDX 4 1 2 2 1 3 3 4 5 5 6 6 7 7 11 8 8 9 10 10 9 11 12 12 14 13
REMARK SMILES IDX 13 14
REMARK H PARENT
REMARK Flexibility Score: inf
ROOT
ATOM      1  C   UNL     1       6.863   0.924   1.308  1.00  0.00     0.080 C 
ENDROOT
BRANCH   1   2
ATOM      2  C   UNL     1       5.403   1.148   1.497  1.00  0.00     0.130 C 
ATOM      3  C   UNL     1       4.656   2.150   0.690  1.00  0.00     0.087 C 
ATOM      4  O   UNL     1       4.773   0.511   2.326  1.00  0.00    -0.300 OA
ENDBRANCH   1   2
BRANCH   1   5
ATOM      5  C   UNL     1       7.262   1.091  -0.145  1.00  0.00     0.043 C 
BRANCH   5   6
ATOM      6  C   UNL     1       7.582  -0.201  -0.777  1.00  0.00    -0.044 A 
ATOM      7  C   UNL     1       7.524  -0.373  -2.165  1.00  0.00     0.008 A 
ATOM      8  C   UNL     1       7.950  -1.271   0.007  1.00  0.00     0.054 A 
ATOM      9  C   UNL     1       7.836  -1.609  -2.701  1.00  0.00     0.051 A 
ATOM     10  C   UNL     1       8.265  -2.518  -0.540  1.00  0.00     0.166 A 
ATOM     11  C   UNL     1       8.207  -2.689  -1.906  1.00  0.00     0.165 A 
ATOM     12  O   UNL     1       8.651  -3.719   0.017  1.00  0.00    -0.454 OA
ATOM     13  O   UNL     1       8.564  -4.004  -2.161  1.00  0.00    -0.454 OA
ATOM     14  C   UNL     1       8.941  -4.667  -0.978  1.00  0.00     0.468 C 
ENDBRANCH   5   6
ENDBRANCH   1   5
TORSDOF 3
ENDMDL
