MODEL 1
REMARK VINA RESULT:      -7.7      0.000      0.000
REMARK SMILES CC(=O)CCc1ccc2c(c1)OCO2
REMARK SMILES IDX 4 1 2 2 1 3 3 4 5 5 6 6 7 7 11 8 8 9 10 10 9 11 12 12 14 13
REMARK SMILES IDX 13 14
REMARK H PARENT
REMARK Flexibility Score: inf
ROOT
ATOM      1  C   UNL     1       5.522   1.918   1.251  1.00  0.00     0.080 C 
ENDROOT
BRANCH   1   2
ATOM      2  C   UNL     1       5.076   0.711   2.001  1.00  0.00     0.130 C 
ATOM      3  C   UNL     1       5.960  -0.474   2.168  1.00  0.00     0.087 C 
ATOM      4  O   UNL     1       3.965   0.659   2.503  1.00  0.00    -0.300 OA
ENDBRANCH   1   2
BRANCH   1   5
ATOM      5  C   UNL     1       5.394   1.716  -0.245  1.00  0.00     0.043 C 
BRANCH   5   6
ATOM      6  C   UNL     1       6.565   1.018  -0.805  1.00  0.00    -0.044 A 
ATOM      7  C   UNL     1       7.870   1.455  -0.550  1.00  0.00     0.008 A 
ATOM      8  C   UNL     1       6.383  -0.094  -1.596  1.00  0.00     0.054 A 
ATOM      9  C   UNL     1       8.930   0.759  -1.102  1.00  0.00     0.051 A 
ATOM     10  C   UNL     1       7.458  -0.794  -2.150  1.00  0.00     0.166 A 
ATOM     11  C   UNL     1       8.742  -0.364  -1.901  1.00  0.00     0.165 A 
ATOM     12  O   UNL     1       7.538  -1.909  -2.957  1.00  0.00    -0.454 OA
ATOM     13  O   UNL     1       9.593  -1.233  -2.567  1.00  0.00    -0.454 OA
ATOM     14  C   UNL     1       8.875  -2.281  -3.174  1.00  0.00     0.468 C 
ENDBRANCH   5   6
ENDBRANCH   1   5
TORSDOF 3
ENDMDL
MODEL 2
REMARK VINA RESULT:      -7.5      1.900      2.340
REMARK SMILES CC(=O)CCc1ccc2c(c1)OCO2
REMARK SMILES IDX 4 1 2 2 1 3 3 4 5 5 6 6 7 7 11 8 8 9 10 10 9 11 12 12 14 13
REMARK SMILES IDX 13 14
REMARK H PARENT
REMARK Flexibility Score: inf
ROOT
ATOM      1  C   UNL     1       5.635   1.368  -0.261  1.00  0.00     0.080 C 
ENDROOT
BRANCH   1   2
ATOM      2  C   UNL     1       5.041   1.233   1.099  1.00  0.00     0.130 C 
ATOM      3  C   UNL     1       5.330   0.058   1.964  1.00  0.00     0.087 C 
ATOM      4  O   UNL     1       4.295   2.090   1.544  1.00  0.00    -0.300 OA
ENDBRANCH   1   2
BRANCH   1   5
ATOM      5  C   UNL     1       7.136   1.157  -0.229  1.00  0.00     0.043 C 
BRANCH   5   6
ATOM      6  C   UNL     1       7.520  -0.131  -0.833  1.00  0.00    -0.044 A 
ATOM      7  C   UNL     1       7.564  -0.306  -2.221  1.00  0.00     0.008 A 
ATOM      8  C   UNL     1       7.847  -1.194  -0.022  1.00  0.00     0.054 A 
ATOM      9  C   UNL     1       7.932  -1.538  -2.730  1.00  0.00     0.051 A 
ATOM     10  C   UNL     1       8.219  -2.437  -0.542  1.00  0.00     0.166 A 
ATOM     11  C   UNL     1       8.262  -2.610  -1.908  1.00  0.00     0.165 A 
ATOM     12  O   UNL     1       8.584  -3.631   0.044  1.00  0.00    -0.454 OA
ATOM     13  O   UNL     1       8.657  -3.920  -2.134  1.00  0.00    -0.454 OA
ATOM     14  C   UNL     1       8.959  -4.575  -0.925  1.00  0.00     0.468 C 
ENDBRANCH   5   6
ENDBRANCH   1   5
TORSDOF 3
ENDMDL
MODEL 3
REMARK VINA RESULT:      -7.3      2.048      2.608
REMARK SMILES CC(=O)CCc1ccc2c(c1)OCO2
REMARK SMILES IDX 4 1 2 2 1 3 3 4 5 5 6 6 7 7 11 8 8 9 10 10 9 11 12 12 14 13
REMARK SMILES IDX 13 14
REMARK H PARENT
REMARK Flexibility Score: inf
ROOT
ATOM      1  C   UNL     1       5.442  -0.023   2.030  1.00  0.00     0.080 C 
ENDROOT
BRANCH   1   2
ATOM      2  C   UNL     1       4.562   1.149   1.768  1.00  0.00     0.130 C 
ATOM      3  C   UNL     1       4.875   2.138   0.702  1.00  0.00     0.087 C 
ATOM      4  O   UNL     1       3.551   1.334   2.427  1.00  0.00    -0.300 OA
ENDBRANCH   1   2
BRANCH   1   5
ATOM      5  C   UNL     1       6.865   0.245   1.579  1.00  0.00     0.043 C 
BRANCH   5   6
ATOM      6  C   UNL     1       7.288  -0.690   0.522  1.00  0.00    -0.044 A 
ATOM      7  C   UNL     1       7.170  -0.364  -0.835  1.00  0.00     0.008 A 
ATOM      8  C   UNL     1       7.815  -1.915   0.864  1.00  0.00     0.054 A 
ATOM      9  C   UNL     1       7.585  -1.281  -1.783  1.00  0.00     0.051 A 
ATOM     10  C   UNL     1       8.233  -2.838  -0.099  1.00  0.00     0.166 A 
ATOM     11  C   UNL     1       8.116  -2.518  -1.434  1.00  0.00     0.165 A 
ATOM     12  O   UNL     1       8.780  -4.101  -0.015  1.00  0.00    -0.454 OA
ATOM     13  O   UNL     1       8.600  -3.603  -2.149  1.00  0.00    -0.454 OA
ATOM     14  C   UNL     1       9.115  -4.591  -1.288  1.00  0.00     0.468 C 
ENDBRANCH   5   6
ENDBRANCH   1   5
TORSDOF 3
ENDMDL
MODEL 4
REMARK VINA RESULT:      -7.1      1.260      1.468
REMARK SMILES CC(=O)CCc1ccc2c(c1)OCO2
REMARK SMILES IDX 4 1 2 2 1 3 3 4 5 5 6 6 7 7 11 8 8 9 10 10 9 11 12 12 14 13
REMARK SMILES IDX 13 14
REMARK H PARENT
REMARK Flexibility Score: inf
ROOT
ATOM      1  C   UNL     1       6.408   1.186   0.953  1.00  0.00     0.080 C 
ENDROOT
BRANCH   1   2
ATOM      2  C   UNL     1       5.667   0.348   1.936  1.00  0.00     0.130 C 
ATOM      3  C   UNL     1       6.260  -0.889   2.511  1.00  0.00     0.087 C 
ATOM      4  O   UNL     1       4.544   0.656   2.301  1.00  0.00    -0.300 OA
ENDBRANCH   1   2
BRANCH   1   5
ATOM      5  C   UNL     1       5.908   0.950  -0.459  1.00  0.00     0.043 C 
BRANCH   5   6
ATOM      6  C   UNL     1       6.839   0.114  -1.236  1.00  0.00    -0.044 A 
ATOM      7  C   UNL     1       7.520   0.616  -2.351  1.00  0.00     0.008 A 
ATOM      8  C   UNL     1       7.055  -1.194  -0.864  1.00  0.00     0.054 A 
ATOM      9  C   UNL     1       8.382  -0.215  -3.042  1.00  0.00     0.051 A 
ATOM     10  C   UNL     1       7.928  -2.030  -1.565  1.00  0.00     0.166 A 
ATOM     11  C   UNL     1       8.597  -1.537  -2.663  1.00  0.00     0.165 A 
ATOM     12  O   UNL     1       8.307  -3.345  -1.399  1.00  0.00    -0.454 OA
ATOM     13  O   UNL     1       9.381  -2.570  -3.153  1.00  0.00    -0.454 OA
ATOM     14  C   UNL     1       9.297  -3.707  -2.327  1.00  0.00     0.468 C 
ENDBRANCH   5   6
ENDBRANCH   1   5
TORSDOF 3
ENDMDL
MODEL 5
REMARK VINA RESULT:      -7.0      1.965      2.538
REMARK SMILES CC(=O)CCc1ccc2c(c1)OCO2
REMARK SMILES IDX 4 1 2 2 1 3 3 4 5 5 6 6 7 7 11 8 8 9 10 10 9 11 12 12 14 13
REMARK SMILES IDX 13 14
REMARK H PARENT
REMARK Flexibility Score: inf
ROOT
ATOM      1  C   UNL     1       6.874   0.855   1.214  1.00  0.00     0.080 C 
ENDROOT
BRANCH   1   2
ATOM      2  C   UNL     1       5.435   1.172   1.429  1.00  0.00     0.130 C 
ATOM      3  C   UNL     1       4.714   2.150   0.571  1.00  0.00     0.087 C 
ATOM      4  O   UNL     1       4.801   0.635   2.323  1.00  0.00    -0.300 OA
ENDBRANCH   1   2
BRANCH   1   5
ATOM      5  C   UNL     1       7.261   1.015  -0.243  1.00  0.00     0.043 C 
BRANCH   5   6
ATOM      6  C   UNL     1       7.634  -0.273  -0.854  1.00  0.00    -0.044 A 
ATOM      7  C   UNL     1       7.671  -0.443  -2.243  1.00  0.00     0.008 A 
ATOM      8  C   UNL     1       7.959  -1.341  -0.049  1.00  0.00     0.054 A 
ATOM      9  C   UNL     1       8.029  -1.675  -2.759  1.00  0.00     0.051 A 
ATOM     10  C   UNL     1       8.322  -2.584  -0.576  1.00  0.00     0.166 A 
ATOM     11  C   UNL     1       8.356  -2.752  -1.943  1.00  0.00     0.165 A 
ATOM     12  O   UNL     1       8.682  -3.782   0.004  1.00  0.00    -0.454 OA
ATOM     13  O   UNL     1       8.742  -4.063  -2.176  1.00  0.00    -0.454 OA
ATOM     14  C   UNL     1       9.047  -4.725  -0.971  1.00  0.00     0.468 C 
ENDBRANCH   5   6
ENDBRANCH   1   5
TORSDOF 3
ENDMDL
