@<TRIPOS>MOLECULE
/home/cewinharhar/GITHUB/reincatalyze/data/processed/docking_pred/2023-May-23-1437_sub9_nm5_bs15_s42_ex16_mel10_mts10000_k50_ec02_g099_lra3e-4_lrc1e-3/d18fc177cce43baae8a65556dd45e7572e61ad5e_ligand_9.pdbqt
 14 15 0 0 0
SMALL
GASTEIGER

@<TRIPOS>ATOM
      1  C          8.3270    0.2060   -2.6680 C.3     1  UNL1        0.0800
      2  C          8.0400   -1.2530   -2.7510 C.2     1  UNL1        0.1300
      3  C          9.1110   -2.2440   -3.0390 C.3     1  UNL1        0.0870
      4  O          6.9090   -1.6800   -2.5830 O.2     1  UNL1       -0.3000
      5  C          8.8530    0.5870   -1.2990 C.3     1  UNL1        0.0430
      6  C          7.8210    0.4370   -0.2560 C.2     1  UNL1       -0.0440
      7  C          7.9340   -0.5250    0.7530 C.2     1  UNL1        0.0080
      8  C          6.7180    1.2600   -0.2650 C.2     1  UNL1        0.0540
      9  C          6.9360   -0.6190    1.7060 C.2     1  UNL1        0.0510
     10  C          5.7110    1.1610    0.7000 C.2     1  UNL1        0.1660
     11  C          5.8210    0.2130    1.6930 C.2     1  UNL1        0.1650
     12  O          4.5350    1.8500    0.9050 O.2     1  UNL1       -0.4540
     13  O          4.6990    0.3420    2.4960 O.2     1  UNL1       -0.4540
     14  C          3.9020    1.4270    2.0850 C.3     1  UNL1        0.4680
@<TRIPOS>BOND
     1     3     2    1
     2     2     1    1
     3     2     4    2
     4     1     5    1
     5     5     6    1
     6     8     6    2
     7     8    10    1
     8     6     7    1
     9    10    12    1
    10    10    11    2
    11     7     9    2
    12    12    14    1
    13    11     9    1
    14    11    13    1
    15    14    13    1
