@<TRIPOS>MOLECULE
/home/cewinharhar/GITHUB/reincatalyze/data/processed/docking_pred/2023-May-23-1437_sub9_nm5_bs15_s42_ex16_mel10_mts10000_k50_ec02_g099_lra3e-4_lrc1e-3/d27e6afc186b75c76b7fe435f4b9560b42cd14a2_ligand_9.pdbqt
 14 15 0 0 0
SMALL
GASTEIGER

@<TRIPOS>ATOM
      1  C          5.6420    0.2500    2.5270 C.3     1  UNL1        0.0800
      2  C          4.5120    1.0670    2.0030 C.2     1  UNL1        0.1300
      3  C          4.6290    1.8420    0.7380 C.3     1  UNL1        0.0870
      4  O          3.4500    1.1250    2.6010 O.2     1  UNL1       -0.3000
      5  C          5.7760   -1.0550    1.7680 C.3     1  UNL1        0.0430
      6  C          6.7890   -0.9650    0.7010 C.2     1  UNL1       -0.0440
      7  C          8.0340   -0.3660    0.9210 C.2     1  UNL1        0.0080
      8  C          6.5150   -1.4820   -0.5450 C.2     1  UNL1        0.0540
      9  C          8.9460   -0.3110   -0.1180 C.2     1  UNL1        0.0510
     10  C          7.4400   -1.4250   -1.5920 C.2     1  UNL1        0.1660
     11  C          8.6660   -0.8340   -1.3760 C.2     1  UNL1        0.1650
     12  O          7.4070   -1.8590   -2.9000 O.2     1  UNL1       -0.4540
     13  O          9.3670   -0.9190   -2.5690 O.2     1  UNL1       -0.4540
     14  C          8.6410   -1.6420   -3.5350 C.3     1  UNL1        0.4680
@<TRIPOS>BOND
     1    14    12    1
     2    14    13    1
     3    12    10    1
     4    13    11    1
     5    10    11    2
     6    10     8    1
     7    11     9    1
     8     8     6    2
     9     9     7    2
    10     6     7    1
    11     6     5    1
    12     3     2    1
    13     5     1    1
    14     2     1    1
    15     2     4    2
