@<TRIPOS>MOLECULE
/home/cewinharhar/GITHUB/reincatalyze/data/processed/docking_pred/2023-May-23-1437_sub9_nm5_bs15_s42_ex16_mel10_mts10000_k50_ec02_g099_lra3e-4_lrc1e-3/d29de17412cd01c0ee6022e9d720ef028927a1a9_ligand_9.pdbqt
 14 15 0 0 0
SMALL
GASTEIGER

@<TRIPOS>ATOM
      1  C          5.7170    1.4030   -0.2420 C.3     1  UNL1        0.0800
      2  C          5.0820    1.2960    1.1010 C.2     1  UNL1        0.1300
      3  C          5.3660    0.1530    2.0100 C.3     1  UNL1        0.0870
      4  O          4.3050    2.1500    1.4970 O.2     1  UNL1       -0.3000
      5  C          7.2120    1.1630   -0.1650 C.3     1  UNL1        0.0430
      6  C          7.5940   -0.1110   -0.8000 C.2     1  UNL1       -0.0440
      7  C          7.6800   -0.2400   -2.1910 C.2     1  UNL1        0.0080
      8  C          7.8770   -1.2060   -0.0150 C.2     1  UNL1        0.0540
      9  C          8.0450   -1.4610   -2.7300 C.2     1  UNL1        0.0510
     10  C          8.2460   -2.4370   -0.5650 C.2     1  UNL1        0.1660
     11  C          8.3300   -2.5660   -1.9340 C.2     1  UNL1        0.1650
     12  O          8.5720   -3.6560   -0.0080 O.2     1  UNL1       -0.4540
     13  O          8.7110   -3.8740   -2.1910 O.2     1  UNL1       -0.4540
     14  C          8.9630   -4.5740   -0.9960 C.3     1  UNL1        0.4680
@<TRIPOS>BOND
     1     9     7    1
     2     9    11    2
     3     7     6    2
     4    13    11    1
     5    13    14    1
     6    11    10    1
     7    14    12    1
     8     6     5    1
     9     6     8    1
    10    10     8    2
    11    10    12    1
    12     1     5    1
    13     1     2    1
    14     2     4    2
    15     2     3    1
