MODEL 1
REMARK VINA RESULT:      -7.7      0.000      0.000
REMARK SMILES CC(=O)CCc1ccc2c(c1)OCO2
REMARK SMILES IDX 4 1 2 2 1 3 3 4 5 5 6 6 7 7 11 8 8 9 10 10 9 11 12 12 14 13
REMARK SMILES IDX 13 14
REMARK H PARENT
REMARK Flexibility Score: inf
ROOT
ATOM      1  C   UNL     1       5.500   1.893   1.263  1.00  0.00     0.080 C 
ENDROOT
BRANCH   1   2
ATOM      2  C   UNL     1       5.024   0.687   1.997  1.00  0.00     0.130 C 
ATOM      3  C   UNL     1       5.849  -0.548   2.087  1.00  0.00     0.087 C 
ATOM      4  O   UNL     1       3.935   0.678   2.548  1.00  0.00    -0.300 OA
ENDBRANCH   1   2
BRANCH   1   5
ATOM      5  C   UNL     1       5.380   1.708  -0.236  1.00  0.00     0.043 C 
BRANCH   5   6
ATOM      6  C   UNL     1       6.555   1.018  -0.798  1.00  0.00    -0.044 A 
ATOM      7  C   UNL     1       7.857   1.471  -0.556  1.00  0.00     0.008 A 
ATOM      8  C   UNL     1       6.380  -0.102  -1.578  1.00  0.00     0.054 A 
ATOM      9  C   UNL     1       8.921   0.782  -1.108  1.00  0.00     0.051 A 
ATOM     10  C   UNL     1       7.459  -0.796  -2.134  1.00  0.00     0.166 A 
ATOM     11  C   UNL     1       8.740  -0.350  -1.898  1.00  0.00     0.165 A 
ATOM     12  O   UNL     1       7.545  -1.917  -2.932  1.00  0.00    -0.454 OA
ATOM     13  O   UNL     1       9.595  -1.216  -2.561  1.00  0.00    -0.454 OA
ATOM     14  C   UNL     1       8.884  -2.276  -3.155  1.00  0.00     0.468 C 
ENDBRANCH   5   6
ENDBRANCH   1   5
TORSDOF 3
ENDMDL
MODEL 2
REMARK VINA RESULT:      -7.5      1.883      2.319
REMARK SMILES CC(=O)CCc1ccc2c(c1)OCO2
REMARK SMILES IDX 4 1 2 2 1 3 3 4 5 5 6 6 7 7 11 8 8 9 10 10 9 11 12 12 14 13
REMARK SMILES IDX 13 14
REMARK H PARENT
REMARK Flexibility Score: inf
ROOT
ATOM      1  C   UNL     1       5.717   1.403  -0.242  1.00  0.00     0.080 C 
ENDROOT
BRANCH   1   2
ATOM      2  C   UNL     1       5.082   1.296   1.101  1.00  0.00     0.130 C 
ATOM      3  C   UNL     1       5.366   0.153   2.010  1.00  0.00     0.087 C 
ATOM      4  O   UNL     1       4.305   2.150   1.497  1.00  0.00    -0.300 OA
ENDBRANCH   1   2
BRANCH   1   5
ATOM      5  C   UNL     1       7.212   1.163  -0.165  1.00  0.00     0.043 C 
BRANCH   5   6
ATOM      6  C   UNL     1       7.594  -0.111  -0.800  1.00  0.00    -0.044 A 
ATOM      7  C   UNL     1       7.680  -0.240  -2.191  1.00  0.00     0.008 A 
ATOM      8  C   UNL     1       7.877  -1.206  -0.015  1.00  0.00     0.054 A 
ATOM      9  C   UNL     1       8.045  -1.461  -2.730  1.00  0.00     0.051 A 
ATOM     10  C   UNL     1       8.246  -2.437  -0.565  1.00  0.00     0.166 A 
ATOM     11  C   UNL     1       8.330  -2.566  -1.934  1.00  0.00     0.165 A 
ATOM     12  O   UNL     1       8.572  -3.656  -0.008  1.00  0.00    -0.454 OA
ATOM     13  O   UNL     1       8.711  -3.874  -2.191  1.00  0.00    -0.454 OA
ATOM     14  C   UNL     1       8.963  -4.574  -0.996  1.00  0.00     0.468 C 
ENDBRANCH   5   6
ENDBRANCH   1   5
TORSDOF 3
ENDMDL
MODEL 3
REMARK VINA RESULT:      -7.3      2.052      2.622
REMARK SMILES CC(=O)CCc1ccc2c(c1)OCO2
REMARK SMILES IDX 4 1 2 2 1 3 3 4 5 5 6 6 7 7 11 8 8 9 10 10 9 11 12 12 14 13
REMARK SMILES IDX 13 14
REMARK H PARENT
REMARK Flexibility Score: inf
ROOT
ATOM      1  C   UNL     1       5.416  -0.051   2.010  1.00  0.00     0.080 C 
ENDROOT
BRANCH   1   2
ATOM      2  C   UNL     1       4.571   1.150   1.764  1.00  0.00     0.130 C 
ATOM      3  C   UNL     1       4.908   2.138   0.704  1.00  0.00     0.087 C 
ATOM      4  O   UNL     1       3.570   1.360   2.430  1.00  0.00    -0.300 OA
ENDBRANCH   1   2
BRANCH   1   5
ATOM      5  C   UNL     1       6.854   0.194   1.598  1.00  0.00     0.043 C 
BRANCH   5   6
ATOM      6  C   UNL     1       7.284  -0.733   0.536  1.00  0.00    -0.044 A 
ATOM      7  C   UNL     1       7.163  -0.402  -0.819  1.00  0.00     0.008 A 
ATOM      8  C   UNL     1       7.821  -1.954   0.873  1.00  0.00     0.054 A 
ATOM      9  C   UNL     1       7.584  -1.312  -1.772  1.00  0.00     0.051 A 
ATOM     10  C   UNL     1       8.246  -2.870  -0.094  1.00  0.00     0.166 A 
ATOM     11  C   UNL     1       8.126  -2.547  -1.427  1.00  0.00     0.165 A 
ATOM     12  O   UNL     1       8.803  -4.129  -0.016  1.00  0.00    -0.454 OA
ATOM     13  O   UNL     1       8.618  -3.624  -2.147  1.00  0.00    -0.454 OA
ATOM     14  C   UNL     1       9.141  -4.611  -1.291  1.00  0.00     0.468 C 
ENDBRANCH   5   6
ENDBRANCH   1   5
TORSDOF 3
ENDMDL
MODEL 4
REMARK VINA RESULT:      -7.1      1.244      1.440
REMARK SMILES CC(=O)CCc1ccc2c(c1)OCO2
REMARK SMILES IDX 4 1 2 2 1 3 3 4 5 5 6 6 7 7 11 8 8 9 10 10 9 11 12 12 14 13
REMARK SMILES IDX 13 14
REMARK H PARENT
REMARK Flexibility Score: inf
ROOT
ATOM      1  C   UNL     1       6.335   1.252   0.868  1.00  0.00     0.080 C 
ENDROOT
BRANCH   1   2
ATOM      2  C   UNL     1       5.659   0.436   1.914  1.00  0.00     0.130 C 
ATOM      3  C   UNL     1       6.292  -0.783   2.485  1.00  0.00     0.087 C 
ATOM      4  O   UNL     1       4.556   0.747   2.336  1.00  0.00    -0.300 OA
ENDBRANCH   1   2
BRANCH   1   5
ATOM      5  C   UNL     1       5.824   0.905  -0.516  1.00  0.00     0.043 C 
BRANCH   5   6
ATOM      6  C   UNL     1       6.797   0.097  -1.272  1.00  0.00    -0.044 A 
ATOM      7  C   UNL     1       7.523   0.635  -2.341  1.00  0.00     0.008 A 
ATOM      8  C   UNL     1       7.008  -1.218  -0.926  1.00  0.00     0.054 A 
ATOM      9  C   UNL     1       8.425  -0.170  -3.013  1.00  0.00     0.051 A 
ATOM     10  C   UNL     1       7.921  -2.028  -1.608  1.00  0.00     0.166 A 
ATOM     11  C   UNL     1       8.634  -1.500  -2.661  1.00  0.00     0.165 A 
ATOM     12  O   UNL     1       8.303  -3.344  -1.459  1.00  0.00    -0.454 OA
ATOM     13  O   UNL     1       9.450  -2.513  -3.141  1.00  0.00    -0.454 OA
ATOM     14  C   UNL     1       9.338  -3.673  -2.351  1.00  0.00     0.468 C 
ENDBRANCH   5   6
ENDBRANCH   1   5
TORSDOF 3
ENDMDL
MODEL 5
REMARK VINA RESULT:      -7.1      1.941      2.542
REMARK SMILES CC(=O)CCc1ccc2c(c1)OCO2
REMARK SMILES IDX 4 1 2 2 1 3 3 4 5 5 6 6 7 7 11 8 8 9 10 10 9 11 12 12 14 13
REMARK SMILES IDX 13 14
REMARK H PARENT
REMARK Flexibility Score: inf
ROOT
ATOM      1  C   UNL     1       6.859   0.854   1.071  1.00  0.00     0.080 C 
ENDROOT
BRANCH   1   2
ATOM      2  C   UNL     1       5.424   1.153   1.339  1.00  0.00     0.130 C 
ATOM      3  C   UNL     1       4.670   2.149   0.531  1.00  0.00     0.087 C 
ATOM      4  O   UNL     1       4.823   0.585   2.236  1.00  0.00    -0.300 OA
ENDBRANCH   1   2
BRANCH   1   5
ATOM      5  C   UNL     1       7.180   0.975  -0.406  1.00  0.00     0.043 C 
BRANCH   5   6
ATOM      6  C   UNL     1       7.619  -0.310  -0.977  1.00  0.00    -0.044 A 
ATOM      7  C   UNL     1       7.805  -0.475  -2.354  1.00  0.00     0.008 A 
ATOM      8  C   UNL     1       7.856  -1.381  -0.145  1.00  0.00     0.054 A 
ATOM      9  C   UNL     1       8.219  -1.704  -2.833  1.00  0.00     0.051 A 
ATOM     10  C   UNL     1       8.275  -2.622  -0.634  1.00  0.00     0.166 A 
ATOM     11  C   UNL     1       8.458  -2.785  -1.989  1.00  0.00     0.165 A 
ATOM     12  O   UNL     1       8.571  -3.821  -0.023  1.00  0.00    -0.454 OA
ATOM     13  O   UNL     1       8.868  -4.095  -2.184  1.00  0.00    -0.454 OA
ATOM     14  C   UNL     1       9.041  -4.761  -0.956  1.00  0.00     0.468 C 
ENDBRANCH   5   6
ENDBRANCH   1   5
TORSDOF 3
ENDMDL
