@<TRIPOS>MOLECULE
/home/cewinharhar/GITHUB/reincatalyze/data/processed/docking_pred/2023-May-23-1437_sub9_nm5_bs15_s42_ex16_mel10_mts10000_k50_ec02_g099_lra3e-4_lrc1e-3/d32515ef85c53a65d829162c3cbbbf13c46f52f9_ligand_9.pdbqt
 14 15 0 0 0
SMALL
GASTEIGER

@<TRIPOS>ATOM
      1  C          6.9710    1.0320    1.1160 C.3     1  UNL1        0.0800
      2  C          5.5320    1.1520    1.4830 C.2     1  UNL1        0.1300
      3  C          4.6390    2.1440    0.8250 C.3     1  UNL1        0.0870
      4  O          5.0420    0.4350    2.3400 O.2     1  UNL1       -0.3000
      5  C          7.1660    1.1170   -0.3850 C.3     1  UNL1        0.0430
      6  C          7.5940   -0.1730   -0.9540 C.2     1  UNL1       -0.0440
      7  C          7.7830   -0.3410   -2.3300 C.2     1  UNL1        0.0080
      8  C          7.8190   -1.2450   -0.1200 C.2     1  UNL1        0.0540
      9  C          8.1860   -1.5750   -2.8070 C.2     1  UNL1        0.0510
     10  C          8.2280   -2.4910   -0.6070 C.2     1  UNL1        0.1660
     11  C          8.4120   -2.6570   -1.9620 C.2     1  UNL1        0.1650
     12  O          8.5120   -3.6920    0.0060 O.2     1  UNL1       -0.4540
     13  O          8.8110   -3.9700   -2.1540 O.2     1  UNL1       -0.4540
     14  C          8.9750   -4.6370   -0.9250 C.3     1  UNL1        0.4680
@<TRIPOS>BOND
     1     9     7    1
     2     9    11    2
     3     7     6    2
     4    13    11    1
     5    13    14    1
     6    11    10    1
     7     6     5    1
     8     6     8    1
     9    14    12    1
    10    10     8    2
    11    10    12    1
    12     5     1    1
    13     3     2    1
    14     1     2    1
    15     2     4    2
