@<TRIPOS>MOLECULE
/home/cewinharhar/GITHUB/reincatalyze/data/processed/docking_pred/2023-May-23-1437_sub9_nm5_bs15_s42_ex16_mel10_mts10000_k50_ec02_g099_lra3e-4_lrc1e-3/d3a7bace4d7284fd134c29c8ba069397c7215f06_ligand_9.pdbqt
 14 15 0 0 0
SMALL
GASTEIGER

@<TRIPOS>ATOM
      1  C          5.5270    1.9110    1.2480 C.3     1  UNL1        0.0800
      2  C          5.0780    0.7080    2.0030 C.2     1  UNL1        0.1300
      3  C          5.9600   -0.4770    2.1790 C.3     1  UNL1        0.0870
      4  O          3.9660    0.6600    2.5020 O.2     1  UNL1       -0.3000
      5  C          5.3940    1.7040   -0.2480 C.3     1  UNL1        0.0430
      6  C          6.5670    1.0090   -0.8090 C.2     1  UNL1       -0.0440
      7  C          7.8700    1.4510   -0.5580 C.2     1  UNL1        0.0080
      8  C          6.3870   -0.1040   -1.5980 C.2     1  UNL1        0.0540
      9  C          8.9320    0.7590   -1.1100 C.2     1  UNL1        0.0510
     10  C          7.4640   -0.8010   -2.1550 C.2     1  UNL1        0.1660
     11  C          8.7470   -0.3660   -1.9090 C.2     1  UNL1        0.1650
     12  O          7.5450   -1.9170   -2.9610 O.2     1  UNL1       -0.4540
     13  O          9.5990   -1.2330   -2.5750 O.2     1  UNL1       -0.4540
     14  C          8.8830   -2.2830   -3.1800 C.3     1  UNL1        0.4680
@<TRIPOS>BOND
     1    14    12    1
     2    14    13    1
     3    12    10    1
     4    13    11    1
     5    10    11    2
     6    10     8    1
     7    11     9    1
     8     8     6    2
     9     9     7    2
    10     6     7    1
    11     6     5    1
    12     5     1    1
    13     1     2    1
    14     2     3    1
    15     2     4    2
