MODEL 1
REMARK VINA RESULT:      -7.6      0.000      0.000
REMARK SMILES CC(=O)CCc1ccc2c(c1)OCO2
REMARK SMILES IDX 4 1 2 2 1 3 3 4 5 5 6 6 7 7 11 8 8 9 10 10 9 11 12 12 14 13
REMARK SMILES IDX 13 14
REMARK H PARENT
REMARK Flexibility Score: inf
ROOT
ATOM      1  C   UNL     1       5.527   1.911   1.248  1.00  0.00     0.080 C 
ENDROOT
BRANCH   1   2
ATOM      2  C   UNL     1       5.078   0.708   2.003  1.00  0.00     0.130 C 
ATOM      3  C   UNL     1       5.960  -0.477   2.179  1.00  0.00     0.087 C 
ATOM      4  O   UNL     1       3.966   0.660   2.502  1.00  0.00    -0.300 OA
ENDBRANCH   1   2
BRANCH   1   5
ATOM      5  C   UNL     1       5.394   1.704  -0.248  1.00  0.00     0.043 C 
BRANCH   5   6
ATOM      6  C   UNL     1       6.567   1.009  -0.809  1.00  0.00    -0.044 A 
ATOM      7  C   UNL     1       7.870   1.451  -0.558  1.00  0.00     0.008 A 
ATOM      8  C   UNL     1       6.387  -0.104  -1.598  1.00  0.00     0.054 A 
ATOM      9  C   UNL     1       8.932   0.759  -1.110  1.00  0.00     0.051 A 
ATOM     10  C   UNL     1       7.464  -0.801  -2.155  1.00  0.00     0.166 A 
ATOM     11  C   UNL     1       8.747  -0.366  -1.909  1.00  0.00     0.165 A 
ATOM     12  O   UNL     1       7.545  -1.917  -2.961  1.00  0.00    -0.454 OA
ATOM     13  O   UNL     1       9.599  -1.233  -2.575  1.00  0.00    -0.454 OA
ATOM     14  C   UNL     1       8.883  -2.283  -3.180  1.00  0.00     0.468 C 
ENDBRANCH   5   6
ENDBRANCH   1   5
TORSDOF 3
ENDMDL
MODEL 2
REMARK VINA RESULT:      -7.3      1.901      2.405
REMARK SMILES CC(=O)CCc1ccc2c(c1)OCO2
REMARK SMILES IDX 4 1 2 2 1 3 3 4 5 5 6 6 7 7 11 8 8 9 10 10 9 11 12 12 14 13
REMARK SMILES IDX 13 14
REMARK H PARENT
REMARK Flexibility Score: inf
ROOT
ATOM      1  C   UNL     1       5.755   1.240  -0.338  1.00  0.00     0.080 C 
ENDROOT
BRANCH   1   2
ATOM      2  C   UNL     1       5.284   1.219   1.075  1.00  0.00     0.130 C 
ATOM      3  C   UNL     1       5.572   0.072   1.978  1.00  0.00     0.087 C 
ATOM      4  O   UNL     1       4.644   2.150   1.536  1.00  0.00    -0.300 OA
ENDBRANCH   1   2
BRANCH   1   5
ATOM      5  C   UNL     1       7.260   1.076  -0.419  1.00  0.00     0.043 C 
BRANCH   5   6
ATOM      6  C   UNL     1       7.638  -0.224  -1.001  1.00  0.00    -0.044 A 
ATOM      7  C   UNL     1       7.703  -0.416  -2.385  1.00  0.00     0.008 A 
ATOM      8  C   UNL     1       7.939  -1.281  -0.172  1.00  0.00     0.054 A 
ATOM      9  C   UNL     1       8.064  -1.658  -2.874  1.00  0.00     0.051 A 
ATOM     10  C   UNL     1       8.304  -2.535  -0.671  1.00  0.00     0.166 A 
ATOM     11  C   UNL     1       8.367  -2.725  -2.034  1.00  0.00     0.165 A 
ATOM     12  O   UNL     1       8.644  -3.725  -0.064  1.00  0.00    -0.454 OA
ATOM     13  O   UNL     1       8.749  -4.042  -2.237  1.00  0.00    -0.454 OA
ATOM     14  C   UNL     1       9.023  -4.686  -1.016  1.00  0.00     0.468 C 
ENDBRANCH   5   6
ENDBRANCH   1   5
TORSDOF 3
ENDMDL
MODEL 3
REMARK VINA RESULT:      -7.2      2.089      2.617
REMARK SMILES CC(=O)CCc1ccc2c(c1)OCO2
REMARK SMILES IDX 4 1 2 2 1 3 3 4 5 5 6 6 7 7 11 8 8 9 10 10 9 11 12 12 14 13
REMARK SMILES IDX 13 14
REMARK H PARENT
REMARK Flexibility Score: inf
ROOT
ATOM      1  C   UNL     1       5.617   0.048   1.950  1.00  0.00     0.080 C 
ENDROOT
BRANCH   1   2
ATOM      2  C   UNL     1       4.699   1.177   1.630  1.00  0.00     0.130 C 
ATOM      3  C   UNL     1       4.998   2.140   0.536  1.00  0.00     0.087 C 
ATOM      4  O   UNL     1       3.669   1.346   2.262  1.00  0.00    -0.300 OA
ENDBRANCH   1   2
BRANCH   1   5
ATOM      5  C   UNL     1       7.015   0.309   1.425  1.00  0.00     0.043 C 
BRANCH   5   6
ATOM      6  C   UNL     1       7.405  -0.673   0.399  1.00  0.00    -0.044 A 
ATOM      7  C   UNL     1       7.287  -0.393  -0.967  1.00  0.00     0.008 A 
ATOM      8  C   UNL     1       7.901  -1.899   0.781  1.00  0.00     0.054 A 
ATOM      9  C   UNL     1       7.670  -1.353  -1.885  1.00  0.00     0.051 A 
ATOM     10  C   UNL     1       8.287  -2.867  -0.151  1.00  0.00     0.166 A 
ATOM     11  C   UNL     1       8.170  -2.592  -1.495  1.00  0.00     0.165 A 
ATOM     12  O   UNL     1       8.800  -4.140  -0.025  1.00  0.00    -0.454 OA
ATOM     13  O   UNL     1       8.620  -3.713  -2.174  1.00  0.00    -0.454 OA
ATOM     14  C   UNL     1       9.114  -4.684  -1.282  1.00  0.00     0.468 C 
ENDBRANCH   5   6
ENDBRANCH   1   5
TORSDOF 3
ENDMDL
MODEL 4
REMARK VINA RESULT:      -7.1      1.259      1.467
REMARK SMILES CC(=O)CCc1ccc2c(c1)OCO2
REMARK SMILES IDX 4 1 2 2 1 3 3 4 5 5 6 6 7 7 11 8 8 9 10 10 9 11 12 12 14 13
REMARK SMILES IDX 13 14
REMARK H PARENT
REMARK Flexibility Score: inf
ROOT
ATOM      1  C   UNL     1       6.412   1.194   0.938  1.00  0.00     0.080 C 
ENDROOT
BRANCH   1   2
ATOM      2  C   UNL     1       5.678   0.357   1.928  1.00  0.00     0.130 C 
ATOM      3  C   UNL     1       6.272  -0.883   2.495  1.00  0.00     0.087 C 
ATOM      4  O   UNL     1       4.559   0.668   2.304  1.00  0.00    -0.300 OA
ENDBRANCH   1   2
BRANCH   1   5
ATOM      5  C   UNL     1       5.907   0.951  -0.470  1.00  0.00     0.043 C 
BRANCH   5   6
ATOM      6  C   UNL     1       6.837   0.113  -1.247  1.00  0.00    -0.044 A 
ATOM      7  C   UNL     1       7.514   0.612  -2.366  1.00  0.00     0.008 A 
ATOM      8  C   UNL     1       7.055  -1.193  -0.871  1.00  0.00     0.054 A 
ATOM      9  C   UNL     1       8.376  -0.221  -3.056  1.00  0.00     0.051 A 
ATOM     10  C   UNL     1       7.928  -2.031  -1.572  1.00  0.00     0.166 A 
ATOM     11  C   UNL     1       8.593  -1.541  -2.673  1.00  0.00     0.165 A 
ATOM     12  O   UNL     1       8.308  -3.345  -1.402  1.00  0.00    -0.454 OA
ATOM     13  O   UNL     1       9.377  -2.575  -3.161  1.00  0.00    -0.454 OA
ATOM     14  C   UNL     1       9.296  -3.709  -2.331  1.00  0.00     0.468 C 
ENDBRANCH   5   6
ENDBRANCH   1   5
TORSDOF 3
ENDMDL
MODEL 5
REMARK VINA RESULT:      -7.0      1.940      2.502
REMARK SMILES CC(=O)CCc1ccc2c(c1)OCO2
REMARK SMILES IDX 4 1 2 2 1 3 3 4 5 5 6 6 7 7 11 8 8 9 10 10 9 11 12 12 14 13
REMARK SMILES IDX 13 14
REMARK H PARENT
REMARK Flexibility Score: inf
ROOT
ATOM      1  C   UNL     1       6.863   0.924   1.308  1.00  0.00     0.080 C 
ENDROOT
BRANCH   1   2
ATOM      2  C   UNL     1       5.403   1.148   1.497  1.00  0.00     0.130 C 
ATOM      3  C   UNL     1       4.656   2.150   0.690  1.00  0.00     0.087 C 
ATOM      4  O   UNL     1       4.773   0.511   2.326  1.00  0.00    -0.300 OA
ENDBRANCH   1   2
BRANCH   1   5
ATOM      5  C   UNL     1       7.262   1.091  -0.145  1.00  0.00     0.043 C 
BRANCH   5   6
ATOM      6  C   UNL     1       7.582  -0.201  -0.777  1.00  0.00    -0.044 A 
ATOM      7  C   UNL     1       7.524  -0.373  -2.165  1.00  0.00     0.008 A 
ATOM      8  C   UNL     1       7.950  -1.271   0.007  1.00  0.00     0.054 A 
ATOM      9  C   UNL     1       7.836  -1.609  -2.701  1.00  0.00     0.051 A 
ATOM     10  C   UNL     1       8.265  -2.518  -0.540  1.00  0.00     0.166 A 
ATOM     11  C   UNL     1       8.207  -2.689  -1.906  1.00  0.00     0.165 A 
ATOM     12  O   UNL     1       8.651  -3.719   0.017  1.00  0.00    -0.454 OA
ATOM     13  O   UNL     1       8.564  -4.004  -2.161  1.00  0.00    -0.454 OA
ATOM     14  C   UNL     1       8.941  -4.667  -0.978  1.00  0.00     0.468 C 
ENDBRANCH   5   6
ENDBRANCH   1   5
TORSDOF 3
ENDMDL
