MODEL 1
REMARK VINA RESULT:      -7.5      0.000      0.000
REMARK SMILES CC(=O)CCc1ccc2c(c1)OCO2
REMARK SMILES IDX 4 1 2 2 1 3 3 4 5 5 6 6 7 7 11 8 8 9 10 10 9 11 12 12 14 13
REMARK SMILES IDX 13 14
REMARK H PARENT
REMARK Flexibility Score: inf
ROOT
ATOM      1  C   UNL     1       5.540   1.899   1.273  1.00  0.00     0.080 C 
ENDROOT
BRANCH   1   2
ATOM      2  C   UNL     1       5.100   0.681   2.009  1.00  0.00     0.130 C 
ATOM      3  C   UNL     1       5.998  -0.492   2.185  1.00  0.00     0.087 C 
ATOM      4  O   UNL     1       3.982   0.611   2.492  1.00  0.00    -0.300 OA
ENDBRANCH   1   2
BRANCH   1   5
ATOM      5  C   UNL     1       5.408   1.714  -0.226  1.00  0.00     0.043 C 
BRANCH   5   6
ATOM      6  C   UNL     1       6.573   1.012  -0.794  1.00  0.00    -0.044 A 
ATOM      7  C   UNL     1       7.880   1.452  -0.559  1.00  0.00     0.008 A 
ATOM      8  C   UNL     1       6.382  -0.106  -1.575  1.00  0.00     0.054 A 
ATOM      9  C   UNL     1       8.935   0.753  -1.119  1.00  0.00     0.051 A 
ATOM     10  C   UNL     1       7.451  -0.810  -2.137  1.00  0.00     0.166 A 
ATOM     11  C   UNL     1       8.738  -0.376  -1.907  1.00  0.00     0.165 A 
ATOM     12  O   UNL     1       7.521  -1.931  -2.936  1.00  0.00    -0.454 OA
ATOM     13  O   UNL     1       9.580  -1.250  -2.576  1.00  0.00    -0.454 OA
ATOM     14  C   UNL     1       8.856  -2.303  -3.167  1.00  0.00     0.468 C 
ENDBRANCH   5   6
ENDBRANCH   1   5
TORSDOF 3
ENDMDL
MODEL 2
REMARK VINA RESULT:      -7.1      2.072      2.633
REMARK SMILES CC(=O)CCc1ccc2c(c1)OCO2
REMARK SMILES IDX 4 1 2 2 1 3 3 4 5 5 6 6 7 7 11 8 8 9 10 10 9 11 12 12 14 13
REMARK SMILES IDX 13 14
REMARK H PARENT
REMARK Flexibility Score: inf
ROOT
ATOM      1  C   UNL     1       5.504  -0.047   1.954  1.00  0.00     0.080 C 
ENDROOT
BRANCH   1   2
ATOM      2  C   UNL     1       4.658   1.144   1.663  1.00  0.00     0.130 C 
ATOM      3  C   UNL     1       5.015   2.112   0.593  1.00  0.00     0.087 C 
ATOM      4  O   UNL     1       3.640   1.360   2.300  1.00  0.00    -0.300 OA
ENDBRANCH   1   2
BRANCH   1   5
ATOM      5  C   UNL     1       6.940   0.180   1.527  1.00  0.00     0.043 C 
BRANCH   5   6
ATOM      6  C   UNL     1       7.352  -0.762   0.471  1.00  0.00    -0.044 A 
ATOM      7  C   UNL     1       7.225  -0.444  -0.886  1.00  0.00     0.008 A 
ATOM      8  C   UNL     1       7.878  -1.986   0.817  1.00  0.00     0.054 A 
ATOM      9  C   UNL     1       7.629  -1.368  -1.832  1.00  0.00     0.051 A 
ATOM     10  C   UNL     1       8.286  -2.916  -0.144  1.00  0.00     0.166 A 
ATOM     11  C   UNL     1       8.160  -2.605  -1.479  1.00  0.00     0.165 A 
ATOM     12  O   UNL     1       8.830  -4.180  -0.056  1.00  0.00    -0.454 OA
ATOM     13  O   UNL     1       8.635  -3.695  -2.192  1.00  0.00    -0.454 OA
ATOM     14  C   UNL     1       9.154  -4.679  -1.329  1.00  0.00     0.468 C 
ENDBRANCH   5   6
ENDBRANCH   1   5
TORSDOF 3
ENDMDL
MODEL 3
REMARK VINA RESULT:      -7.1      1.816      2.224
REMARK SMILES CC(=O)CCc1ccc2c(c1)OCO2
REMARK SMILES IDX 4 1 2 2 1 3 3 4 5 5 6 6 7 7 11 8 8 9 10 10 9 11 12 12 14 13
REMARK SMILES IDX 13 14
REMARK H PARENT
REMARK Flexibility Score: inf
ROOT
ATOM      1  C   UNL     1       5.565   1.540  -0.034  1.00  0.00     0.080 C 
ENDROOT
BRANCH   1   2
ATOM      2  C   UNL     1       4.900   1.209   1.257  1.00  0.00     0.130 C 
ATOM      3  C   UNL     1       5.303   0.025   2.063  1.00  0.00     0.087 C 
ATOM      4  O   UNL     1       3.999   1.906   1.694  1.00  0.00    -0.300 OA
ENDBRANCH   1   2
BRANCH   1   5
ATOM      5  C   UNL     1       7.051   1.246   0.021  1.00  0.00     0.043 C 
BRANCH   5   6
ATOM      6  C   UNL     1       7.384  -0.018  -0.660  1.00  0.00    -0.044 A 
ATOM      7  C   UNL     1       7.240  -0.164  -2.045  1.00  0.00     0.008 A 
ATOM      8  C   UNL     1       7.850  -1.086   0.072  1.00  0.00     0.054 A 
ATOM      9  C   UNL     1       7.569  -1.374  -2.629  1.00  0.00     0.051 A 
ATOM     10  C   UNL     1       8.181  -2.307  -0.524  1.00  0.00     0.166 A 
ATOM     11  C   UNL     1       8.039  -2.452  -1.886  1.00  0.00     0.165 A 
ATOM     12  O   UNL     1       8.657  -3.499  -0.021  1.00  0.00    -0.454 OA
ATOM     13  O   UNL     1       8.436  -3.743  -2.195  1.00  0.00    -0.454 OA
ATOM     14  C   UNL     1       8.920  -4.413  -1.055  1.00  0.00     0.468 C 
ENDBRANCH   5   6
ENDBRANCH   1   5
TORSDOF 3
ENDMDL
MODEL 4
REMARK VINA RESULT:      -7.0      1.969      2.561
REMARK SMILES CC(=O)CCc1ccc2c(c1)OCO2
REMARK SMILES IDX 4 1 2 2 1 3 3 4 5 5 6 6 7 7 11 8 8 9 10 10 9 11 12 12 14 13
REMARK SMILES IDX 13 14
REMARK H PARENT
REMARK Flexibility Score: inf
ROOT
ATOM      1  C   UNL     1       6.806   0.771   1.292  1.00  0.00     0.080 C 
ENDROOT
BRANCH   1   2
ATOM      2  C   UNL     1       5.376   1.178   1.380  1.00  0.00     0.130 C 
ATOM      3  C   UNL     1       4.782   2.150   0.423  1.00  0.00     0.087 C 
ATOM      4  O   UNL     1       4.647   0.723   2.246  1.00  0.00    -0.300 OA
ENDBRANCH   1   2
BRANCH   1   5
ATOM      5  C   UNL     1       7.351   0.968  -0.109  1.00  0.00     0.043 C 
BRANCH   5   6
ATOM      6  C   UNL     1       7.665  -0.316  -0.759  1.00  0.00    -0.044 A 
ATOM      7  C   UNL     1       7.641  -0.459  -2.151  1.00  0.00     0.008 A 
ATOM      8  C   UNL     1       7.993  -1.409   0.012  1.00  0.00     0.054 A 
ATOM      9  C   UNL     1       7.946  -1.688  -2.705  1.00  0.00     0.051 A 
ATOM     10  C   UNL     1       8.301  -2.650  -0.553  1.00  0.00     0.166 A 
ATOM     11  C   UNL     1       8.277  -2.791  -1.923  1.00  0.00     0.165 A 
ATOM     12  O   UNL     1       8.652  -3.868  -0.012  1.00  0.00    -0.454 OA
ATOM     13  O   UNL     1       8.619  -4.106  -2.197  1.00  0.00    -0.454 OA
ATOM     14  C   UNL     1       8.953  -4.800  -1.018  1.00  0.00     0.468 C 
ENDBRANCH   5   6
ENDBRANCH   1   5
TORSDOF 3
ENDMDL
MODEL 5
REMARK VINA RESULT:      -6.6      1.182      5.188
REMARK SMILES CC(=O)CCc1ccc2c(c1)OCO2
REMARK SMILES IDX 4 1 2 2 1 3 3 4 5 5 6 6 7 7 11 8 8 9 10 10 9 11 12 12 14 13
REMARK SMILES IDX 13 14
REMARK H PARENT
REMARK Flexibility Score: inf
ROOT
ATOM      1  C   UNL     1       8.356   0.176  -2.622  1.00  0.00     0.080 C 
ENDROOT
BRANCH   1   2
ATOM      2  C   UNL     1       8.073  -1.279  -2.766  1.00  0.00     0.130 C 
ATOM      3  C   UNL     1       9.159  -2.264  -3.021  1.00  0.00     0.087 C 
ATOM      4  O   UNL     1       6.934  -1.708  -2.678  1.00  0.00    -0.300 OA
ENDBRANCH   1   2
BRANCH   1   5
ATOM      5  C   UNL     1       8.881   0.501  -1.238  1.00  0.00     0.043 C 
BRANCH   5   6
ATOM      6  C   UNL     1       7.831   0.375  -0.212  1.00  0.00    -0.044 A 
ATOM      7  C   UNL     1       7.908  -0.587   0.802  1.00  0.00     0.008 A 
ATOM      8  C   UNL     1       6.745   1.220  -0.240  1.00  0.00     0.054 A 
ATOM      9  C   UNL     1       6.892  -0.658   1.738  1.00  0.00     0.051 A 
ATOM     10  C   UNL     1       5.721   1.144   0.710  1.00  0.00     0.166 A 
ATOM     11  C   UNL     1       5.796   0.197   1.707  1.00  0.00     0.165 A 
ATOM     12  O   UNL     1       4.556   1.858   0.894  1.00  0.00    -0.454 OA
ATOM     13  O   UNL     1       4.663   0.351   2.491  1.00  0.00    -0.454 OA
ATOM     14  C   UNL     1       3.896   1.452   2.066  1.00  0.00     0.468 C 
ENDBRANCH   5   6
ENDBRANCH   1   5
TORSDOF 3
ENDMDL
