MODEL 1
REMARK VINA RESULT:      -7.7      0.000      0.000
REMARK SMILES CC(=O)CCc1ccc2c(c1)OCO2
REMARK SMILES IDX 4 1 2 2 1 3 3 4 5 5 6 6 7 7 11 8 8 9 10 10 9 11 12 12 14 13
REMARK SMILES IDX 13 14
REMARK H PARENT
REMARK Flexibility Score: inf
ROOT
ATOM      1  C   UNL     1       5.549   1.924   1.273  1.00  0.00     0.080 C 
ENDROOT
BRANCH   1   2
ATOM      2  C   UNL     1       5.126   0.704   2.016  1.00  0.00     0.130 C 
ATOM      3  C   UNL     1       6.039  -0.456   2.197  1.00  0.00     0.087 C 
ATOM      4  O   UNL     1       4.009   0.622   2.501  1.00  0.00    -0.300 OA
ENDBRANCH   1   2
BRANCH   1   5
ATOM      5  C   UNL     1       5.416   1.729  -0.225  1.00  0.00     0.043 C 
BRANCH   5   6
ATOM      6  C   UNL     1       6.581   1.026  -0.790  1.00  0.00    -0.044 A 
ATOM      7  C   UNL     1       7.890   1.452  -0.535  1.00  0.00     0.008 A 
ATOM      8  C   UNL     1       6.389  -0.079  -1.588  1.00  0.00     0.054 A 
ATOM      9  C   UNL     1       8.944   0.752  -1.093  1.00  0.00     0.051 A 
ATOM     10  C   UNL     1       7.459  -0.784  -2.148  1.00  0.00     0.166 A 
ATOM     11  C   UNL     1       8.747  -0.365  -1.899  1.00  0.00     0.165 A 
ATOM     12  O   UNL     1       7.529  -1.895  -2.962  1.00  0.00    -0.454 OA
ATOM     13  O   UNL     1       9.589  -1.237  -2.571  1.00  0.00    -0.454 OA
ATOM     14  C   UNL     1       8.863  -2.275  -3.183  1.00  0.00     0.468 C 
ENDBRANCH   5   6
ENDBRANCH   1   5
TORSDOF 3
ENDMDL
MODEL 2
REMARK VINA RESULT:      -7.4      1.941      2.411
REMARK SMILES CC(=O)CCc1ccc2c(c1)OCO2
REMARK SMILES IDX 4 1 2 2 1 3 3 4 5 5 6 6 7 7 11 8 8 9 10 10 9 11 12 12 14 13
REMARK SMILES IDX 13 14
REMARK H PARENT
REMARK Flexibility Score: inf
ROOT
ATOM      1  C   UNL     1       5.781   1.265  -0.315  1.00  0.00     0.080 C 
ENDROOT
BRANCH   1   2
ATOM      2  C   UNL     1       5.242   1.195   1.071  1.00  0.00     0.130 C 
ATOM      3  C   UNL     1       5.379  -0.032   1.901  1.00  0.00     0.087 C 
ATOM      4  O   UNL     1       4.668   2.150   1.569  1.00  0.00    -0.300 OA
ENDBRANCH   1   2
BRANCH   1   5
ATOM      5  C   UNL     1       7.286   1.085  -0.331  1.00  0.00     0.043 C 
BRANCH   5   6
ATOM      6  C   UNL     1       7.676  -0.209  -0.918  1.00  0.00    -0.044 A 
ATOM      7  C   UNL     1       7.773  -0.386  -2.303  1.00  0.00     0.008 A 
ATOM      8  C   UNL     1       7.955  -1.276  -0.094  1.00  0.00     0.054 A 
ATOM      9  C   UNL     1       8.144  -1.623  -2.797  1.00  0.00     0.051 A 
ATOM     10  C   UNL     1       8.330  -2.525  -0.599  1.00  0.00     0.166 A 
ATOM     11  C   UNL     1       8.425  -2.700  -1.961  1.00  0.00     0.165 A 
ATOM     12  O   UNL     1       8.654  -3.722   0.003  1.00  0.00    -0.454 OA
ATOM     13  O   UNL     1       8.810  -4.015  -2.171  1.00  0.00    -0.454 OA
ATOM     14  C   UNL     1       9.054  -4.673  -0.951  1.00  0.00     0.468 C 
ENDBRANCH   5   6
ENDBRANCH   1   5
TORSDOF 3
ENDMDL
MODEL 3
REMARK VINA RESULT:      -7.3      2.054      2.629
REMARK SMILES CC(=O)CCc1ccc2c(c1)OCO2
REMARK SMILES IDX 4 1 2 2 1 3 3 4 5 5 6 6 7 7 11 8 8 9 10 10 9 11 12 12 14 13
REMARK SMILES IDX 13 14
REMARK H PARENT
REMARK Flexibility Score: inf
ROOT
ATOM      1  C   UNL     1       5.404  -0.060   2.035  1.00  0.00     0.080 C 
ENDROOT
BRANCH   1   2
ATOM      2  C   UNL     1       4.553   1.135   1.774  1.00  0.00     0.130 C 
ATOM      3  C   UNL     1       4.897   2.122   0.716  1.00  0.00     0.087 C 
ATOM      4  O   UNL     1       3.543   1.339   2.427  1.00  0.00    -0.300 OA
ENDBRANCH   1   2
BRANCH   1   5
ATOM      5  C   UNL     1       6.842   0.189   1.626  1.00  0.00     0.043 C 
BRANCH   5   6
ATOM      6  C   UNL     1       7.273  -0.730   0.557  1.00  0.00    -0.044 A 
ATOM      7  C   UNL     1       7.153  -0.390  -0.795  1.00  0.00     0.008 A 
ATOM      8  C   UNL     1       7.810  -1.954   0.885  1.00  0.00     0.054 A 
ATOM      9  C   UNL     1       7.575  -1.292  -1.755  1.00  0.00     0.051 A 
ATOM     10  C   UNL     1       8.236  -2.863  -0.088  1.00  0.00     0.166 A 
ATOM     11  C   UNL     1       8.117  -2.529  -1.419  1.00  0.00     0.165 A 
ATOM     12  O   UNL     1       8.793  -4.122  -0.019  1.00  0.00    -0.454 OA
ATOM     13  O   UNL     1       8.610  -3.601  -2.147  1.00  0.00    -0.454 OA
ATOM     14  C   UNL     1       9.132  -4.595  -1.297  1.00  0.00     0.468 C 
ENDBRANCH   5   6
ENDBRANCH   1   5
TORSDOF 3
ENDMDL
MODEL 4
REMARK VINA RESULT:      -7.1      1.240      1.436
REMARK SMILES CC(=O)CCc1ccc2c(c1)OCO2
REMARK SMILES IDX 4 1 2 2 1 3 3 4 5 5 6 6 7 7 11 8 8 9 10 10 9 11 12 12 14 13
REMARK SMILES IDX 13 14
REMARK H PARENT
REMARK Flexibility Score: inf
ROOT
ATOM      1  C   UNL     1       6.352   1.230   0.922  1.00  0.00     0.080 C 
ENDROOT
BRANCH   1   2
ATOM      2  C   UNL     1       5.657   0.383   1.931  1.00  0.00     0.130 C 
ATOM      3  C   UNL     1       6.296  -0.832   2.504  1.00  0.00     0.087 C 
ATOM      4  O   UNL     1       4.534   0.663   2.318  1.00  0.00    -0.300 OA
ENDBRANCH   1   2
BRANCH   1   5
ATOM      5  C   UNL     1       5.841   0.950  -0.478  1.00  0.00     0.043 C 
BRANCH   5   6
ATOM      6  C   UNL     1       6.791   0.134  -1.253  1.00  0.00    -0.044 A 
ATOM      7  C   UNL     1       7.477   0.656  -2.356  1.00  0.00     0.008 A 
ATOM      8  C   UNL     1       7.020  -1.175  -0.893  1.00  0.00     0.054 A 
ATOM      9  C   UNL     1       8.358  -0.157  -3.046  1.00  0.00     0.051 A 
ATOM     10  C   UNL     1       7.912  -1.993  -1.593  1.00  0.00     0.166 A 
ATOM     11  C   UNL     1       8.586  -1.479  -2.678  1.00  0.00     0.165 A 
ATOM     12  O   UNL     1       8.305  -3.305  -1.435  1.00  0.00    -0.454 OA
ATOM     13  O   UNL     1       9.388  -2.497  -3.169  1.00  0.00    -0.454 OA
ATOM     14  C   UNL     1       9.309  -3.644  -2.357  1.00  0.00     0.468 C 
ENDBRANCH   5   6
ENDBRANCH   1   5
TORSDOF 3
ENDMDL
MODEL 5
REMARK VINA RESULT:      -6.8      1.183      5.171
REMARK SMILES CC(=O)CCc1ccc2c(c1)OCO2
REMARK SMILES IDX 4 1 2 2 1 3 3 4 5 5 6 6 7 7 11 8 8 9 10 10 9 11 12 12 14 13
REMARK SMILES IDX 13 14
REMARK H PARENT
REMARK Flexibility Score: inf
ROOT
ATOM      1  C   UNL     1       8.322   0.179  -2.679  1.00  0.00     0.080 C 
ENDROOT
BRANCH   1   2
ATOM      2  C   UNL     1       8.064  -1.286  -2.770  1.00  0.00     0.130 C 
ATOM      3  C   UNL     1       9.160  -2.257  -3.031  1.00  0.00     0.087 C 
ATOM      4  O   UNL     1       6.937  -1.733  -2.633  1.00  0.00    -0.300 OA
ENDBRANCH   1   2
BRANCH   1   5
ATOM      5  C   UNL     1       8.853   0.560  -1.312  1.00  0.00     0.043 C 
BRANCH   5   6
ATOM      6  C   UNL     1       7.824   0.417  -0.266  1.00  0.00    -0.044 A 
ATOM      7  C   UNL     1       7.936  -0.542   0.746  1.00  0.00     0.008 A 
ATOM      8  C   UNL     1       6.723   1.243  -0.275  1.00  0.00     0.054 A 
ATOM      9  C   UNL     1       6.939  -0.630   1.701  1.00  0.00     0.051 A 
ATOM     10  C   UNL     1       5.719   1.151   0.693  1.00  0.00     0.166 A 
ATOM     11  C   UNL     1       5.827   0.207   1.689  1.00  0.00     0.165 A 
ATOM     12  O   UNL     1       4.545   1.845   0.897  1.00  0.00    -0.454 OA
ATOM     13  O   UNL     1       4.707   0.342   2.494  1.00  0.00    -0.454 OA
ATOM     14  C   UNL     1       3.913   1.429   2.081  1.00  0.00     0.468 C 
ENDBRANCH   5   6
ENDBRANCH   1   5
TORSDOF 3
ENDMDL
