@<TRIPOS>MOLECULE
/home/cewinharhar/GITHUB/reincatalyze/data/processed/docking_pred/2023-May-23-1437_sub9_nm5_bs15_s42_ex16_mel10_mts10000_k50_ec02_g099_lra3e-4_lrc1e-3/d475abeaf77d1f7cad9c775310647ad941a1fd31_ligand_9.pdbqt
 14 15 0 0 0
SMALL
GASTEIGER

@<TRIPOS>ATOM
      1  C          5.4040   -0.0600    2.0350 C.3     1  UNL1        0.0800
      2  C          4.5530    1.1350    1.7740 C.2     1  UNL1        0.1300
      3  C          4.8970    2.1220    0.7160 C.3     1  UNL1        0.0870
      4  O          3.5430    1.3390    2.4270 O.2     1  UNL1       -0.3000
      5  C          6.8420    0.1890    1.6260 C.3     1  UNL1        0.0430
      6  C          7.2730   -0.7300    0.5570 C.2     1  UNL1       -0.0440
      7  C          7.1530   -0.3900   -0.7950 C.2     1  UNL1        0.0080
      8  C          7.8100   -1.9540    0.8850 C.2     1  UNL1        0.0540
      9  C          7.5750   -1.2920   -1.7550 C.2     1  UNL1        0.0510
     10  C          8.2360   -2.8630   -0.0880 C.2     1  UNL1        0.1660
     11  C          8.1170   -2.5290   -1.4190 C.2     1  UNL1        0.1650
     12  O          8.7930   -4.1220   -0.0190 O.2     1  UNL1       -0.4540
     13  O          8.6100   -3.6010   -2.1470 O.2     1  UNL1       -0.4540
     14  C          9.1320   -4.5950   -1.2970 C.3     1  UNL1        0.4680
@<TRIPOS>BOND
     1    13    11    1
     2    13    14    1
     3     9    11    2
     4     9     7    1
     5    11    10    1
     6    14    12    1
     7     7     6    2
     8    10    12    1
     9    10     8    2
    10     6     8    1
    11     6     5    1
    12     3     2    1
    13     5     1    1
    14     2     1    1
    15     2     4    2
