@<TRIPOS>MOLECULE
/home/cewinharhar/GITHUB/reincatalyze/data/processed/docking_pred/2023-May-23-1437_sub9_nm5_bs15_s42_ex16_mel10_mts10000_k50_ec02_g099_lra3e-4_lrc1e-3/d558da89fa5d1abbf5476966f73640f3ea5cb98d_ligand_9.pdbqt
 14 15 0 0 0
SMALL
GASTEIGER

@<TRIPOS>ATOM
      1  C          5.5750   -0.1710    1.9690 C.3     1  UNL1        0.0800
      2  C          5.3600    1.0270    1.1100 C.2     1  UNL1        0.1300
      3  C          6.0930    1.2130   -0.1700 C.3     1  UNL1        0.0870
      4  O          4.5690    1.8980    1.4360 O.2     1  UNL1       -0.3000
      5  C          6.5010   -1.1680    1.3000 C.3     1  UNL1        0.0430
      6  C          7.6270   -1.5390    2.1750 C.2     1  UNL1       -0.0440
      7  C          7.6530   -1.1840    3.5280 C.2     1  UNL1        0.0080
      8  C          8.6840   -2.2540    1.6590 C.2     1  UNL1        0.0540
      9  C          8.7360   -1.5610    4.3010 C.2     1  UNL1        0.0510
     10  C          9.7770   -2.6340    2.4450 C.2     1  UNL1        0.1660
     11  C          9.8030   -2.2830    3.7760 C.2     1  UNL1        0.1650
     12  O         10.9320   -3.3350    2.1710 O.2     1  UNL1       -0.4540
     13  O         10.9860   -2.7830    4.2990 O.2     1  UNL1       -0.4540
     14  C         11.6880   -3.5350    3.3380 C.3     1  UNL1        0.4680
@<TRIPOS>BOND
     1     3     2    1
     2     2     4    2
     3     2     1    1
     4     5     1    1
     5     5     6    1
     6     8     6    2
     7     8    10    1
     8    12    10    1
     9    12    14    1
    10     6     7    1
    11    10    11    2
    12    14    13    1
    13     7     9    2
    14    11    13    1
    15    11     9    1
