MODEL 1
REMARK VINA RESULT:      -7.5      0.000      0.000
REMARK SMILES CC(=O)CCc1ccc2c(c1)OCO2
REMARK SMILES IDX 4 1 2 2 1 3 3 4 5 5 6 6 7 7 11 8 8 9 10 10 9 11 12 12 14 13
REMARK SMILES IDX 13 14
REMARK H PARENT
REMARK Flexibility Score: inf
ROOT
ATOM      1  C   UNL     1       5.575  -0.171   1.969  1.00  0.00     0.080 C 
ENDROOT
BRANCH   1   2
ATOM      2  C   UNL     1       5.360   1.027   1.110  1.00  0.00     0.130 C 
ATOM      3  C   UNL     1       6.093   1.213  -0.170  1.00  0.00     0.087 C 
ATOM      4  O   UNL     1       4.569   1.898   1.436  1.00  0.00    -0.300 OA
ENDBRANCH   1   2
BRANCH   1   5
ATOM      5  C   UNL     1       6.501  -1.168   1.300  1.00  0.00     0.043 C 
BRANCH   5   6
ATOM      6  C   UNL     1       7.627  -1.539   2.175  1.00  0.00    -0.044 A 
ATOM      7  C   UNL     1       7.653  -1.184   3.528  1.00  0.00     0.008 A 
ATOM      8  C   UNL     1       8.684  -2.254   1.659  1.00  0.00     0.054 A 
ATOM      9  C   UNL     1       8.736  -1.561   4.301  1.00  0.00     0.051 A 
ATOM     10  C   UNL     1       9.777  -2.634   2.445  1.00  0.00     0.166 A 
ATOM     11  C   UNL     1       9.803  -2.283   3.776  1.00  0.00     0.165 A 
ATOM     12  O   UNL     1      10.932  -3.335   2.171  1.00  0.00    -0.454 OA
ATOM     13  O   UNL     1      10.986  -2.783   4.299  1.00  0.00    -0.454 OA
ATOM     14  C   UNL     1      11.688  -3.535   3.338  1.00  0.00     0.468 C 
ENDBRANCH   5   6
ENDBRANCH   1   5
TORSDOF 3
ENDMDL
MODEL 2
REMARK VINA RESULT:      -7.3      3.882      4.897
REMARK SMILES CC(=O)CCc1ccc2c(c1)OCO2
REMARK SMILES IDX 4 1 2 2 1 3 3 4 5 5 6 6 7 7 11 8 8 9 10 10 9 11 12 12 14 13
REMARK SMILES IDX 13 14
REMARK H PARENT
REMARK Flexibility Score: inf
ROOT
ATOM      1  C   UNL     1       5.532   1.891   1.291  1.00  0.00     0.080 C 
ENDROOT
BRANCH   1   2
ATOM      2  C   UNL     1       5.002   0.688   1.992  1.00  0.00     0.130 C 
ATOM      3  C   UNL     1       5.780  -0.578   2.066  1.00  0.00     0.087 C 
ATOM      4  O   UNL     1       3.906   0.707   2.528  1.00  0.00    -0.300 OA
ENDBRANCH   1   2
BRANCH   1   5
ATOM      5  C   UNL     1       5.416   1.748  -0.213  1.00  0.00     0.043 C 
BRANCH   5   6
ATOM      6  C   UNL     1       6.576   1.043  -0.786  1.00  0.00    -0.044 A 
ATOM      7  C   UNL     1       7.887   1.473  -0.549  1.00  0.00     0.008 A 
ATOM      8  C   UNL     1       6.378  -0.070  -1.572  1.00  0.00     0.054 A 
ATOM      9  C   UNL     1       8.936   0.771  -1.113  1.00  0.00     0.051 A 
ATOM     10  C   UNL     1       7.443  -0.777  -2.139  1.00  0.00     0.166 A 
ATOM     11  C   UNL     1       8.732  -0.353  -1.908  1.00  0.00     0.165 A 
ATOM     12  O   UNL     1       7.506  -1.894  -2.945  1.00  0.00    -0.454 OA
ATOM     13  O   UNL     1       9.569  -1.228  -2.582  1.00  0.00    -0.454 OA
ATOM     14  C   UNL     1       8.838  -2.273  -3.178  1.00  0.00     0.468 C 
ENDBRANCH   5   6
ENDBRANCH   1   5
TORSDOF 3
ENDMDL
MODEL 3
REMARK VINA RESULT:      -7.1      1.039      1.093
REMARK SMILES CC(=O)CCc1ccc2c(c1)OCO2
REMARK SMILES IDX 4 1 2 2 1 3 3 4 5 5 6 6 7 7 11 8 8 9 10 10 9 11 12 12 14 13
REMARK SMILES IDX 13 14
REMARK H PARENT
REMARK Flexibility Score: inf
ROOT
ATOM      1  C   UNL     1       6.384   0.402   1.314  1.00  0.00     0.080 C 
ENDROOT
BRANCH   1   2
ATOM      2  C   UNL     1       5.999   0.901  -0.036  1.00  0.00     0.130 C 
ATOM      3  C   UNL     1       5.190   2.136  -0.210  1.00  0.00     0.087 C 
ATOM      4  O   UNL     1       6.339   0.305  -1.045  1.00  0.00    -0.300 OA
ENDBRANCH   1   2
BRANCH   1   5
ATOM      5  C   UNL     1       6.557  -1.104   1.315  1.00  0.00     0.043 C 
BRANCH   5   6
ATOM      6  C   UNL     1       7.680  -1.524   2.173  1.00  0.00    -0.044 A 
ATOM      7  C   UNL     1       7.707  -1.230   3.541  1.00  0.00     0.008 A 
ATOM      8  C   UNL     1       8.731  -2.225   1.627  1.00  0.00     0.054 A 
ATOM      9  C   UNL     1       8.786  -1.651   4.297  1.00  0.00     0.051 A 
ATOM     10  C   UNL     1       9.819  -2.649   2.395  1.00  0.00     0.166 A 
ATOM     11  C   UNL     1       9.847  -2.359   3.741  1.00  0.00     0.165 A 
ATOM     12  O   UNL     1      10.968  -3.348   2.091  1.00  0.00    -0.454 OA
ATOM     13  O   UNL     1      11.025  -2.893   4.241  1.00  0.00    -0.454 OA
ATOM     14  C   UNL     1      11.722  -3.607   3.248  1.00  0.00     0.468 C 
ENDBRANCH   5   6
ENDBRANCH   1   5
TORSDOF 3
ENDMDL
MODEL 4
REMARK VINA RESULT:      -7.1      0.949      1.888
REMARK SMILES CC(=O)CCc1ccc2c(c1)OCO2
REMARK SMILES IDX 4 1 2 2 1 3 3 4 5 5 6 6 7 7 11 8 8 9 10 10 9 11 12 12 14 13
REMARK SMILES IDX 13 14
REMARK H PARENT
REMARK Flexibility Score: inf
ROOT
ATOM      1  C   UNL     1       5.446   0.158   2.046  1.00  0.00     0.080 C 
ENDROOT
BRANCH   1   2
ATOM      2  C   UNL     1       5.223   1.209   1.014  1.00  0.00     0.130 C 
ATOM      3  C   UNL     1       5.897   1.157  -0.311  1.00  0.00     0.087 C 
ATOM      4  O   UNL     1       4.476   2.149   1.228  1.00  0.00    -0.300 OA
ENDBRANCH   1   2
BRANCH   1   5
ATOM      5  C   UNL     1       6.007  -1.108   1.430  1.00  0.00     0.043 C 
BRANCH   5   6
ATOM      6  C   UNL     1       7.288  -1.495   2.047  1.00  0.00    -0.044 A 
ATOM      7  C   UNL     1       8.261  -2.204   1.334  1.00  0.00     0.008 A 
ATOM      8  C   UNL     1       7.546  -1.154   3.356  1.00  0.00     0.054 A 
ATOM      9  C   UNL     1       9.445  -2.539   1.965  1.00  0.00     0.051 A 
ATOM     10  C   UNL     1       8.745  -1.494   3.989  1.00  0.00     0.166 A 
ATOM     11  C   UNL     1       9.702  -2.193   3.288  1.00  0.00     0.165 A 
ATOM     12  O   UNL     1       9.231  -1.274   5.260  1.00  0.00    -0.454 OA
ATOM     13  O   UNL     1      10.768  -2.389   4.152  1.00  0.00    -0.454 OA
ATOM     14  C   UNL     1      10.549  -1.744   5.384  1.00  0.00     0.468 C 
ENDBRANCH   5   6
ENDBRANCH   1   5
TORSDOF 3
ENDMDL
MODEL 5
REMARK VINA RESULT:      -7.1      3.106      4.258
REMARK SMILES CC(=O)CCc1ccc2c(c1)OCO2
REMARK SMILES IDX 4 1 2 2 1 3 3 4 5 5 6 6 7 7 11 8 8 9 10 10 9 11 12 12 14 13
REMARK SMILES IDX 13 14
REMARK H PARENT
REMARK Flexibility Score: inf
ROOT
ATOM      1  C   UNL     1       5.780   1.451  -0.329  1.00  0.00     0.080 C 
ENDROOT
BRANCH   1   2
ATOM      2  C   UNL     1       5.128   1.345   1.006  1.00  0.00     0.130 C 
ATOM      3  C   UNL     1       5.481   0.264   1.964  1.00  0.00     0.087 C 
ATOM      4  O   UNL     1       4.279   2.150   1.354  1.00  0.00    -0.300 OA
ENDBRANCH   1   2
BRANCH   1   5
ATOM      5  C   UNL     1       7.268   1.174  -0.239  1.00  0.00     0.043 C 
BRANCH   5   6
ATOM      6  C   UNL     1       7.620  -0.124  -0.842  1.00  0.00    -0.044 A 
ATOM      7  C   UNL     1       7.673  -0.297  -2.230  1.00  0.00     0.008 A 
ATOM      8  C   UNL     1       7.907  -1.198  -0.031  1.00  0.00     0.054 A 
ATOM      9  C   UNL     1       8.010  -1.537  -2.739  1.00  0.00     0.051 A 
ATOM     10  C   UNL     1       8.248  -2.450  -0.551  1.00  0.00     0.166 A 
ATOM     11  C   UNL     1       8.300  -2.621  -1.916  1.00  0.00     0.165 A 
ATOM     12  O   UNL     1       8.572  -3.655   0.036  1.00  0.00    -0.454 OA
ATOM     13  O   UNL     1       8.658  -3.941  -2.141  1.00  0.00    -0.454 OA
ATOM     14  C   UNL     1       8.929  -4.608  -0.932  1.00  0.00     0.468 C 
ENDBRANCH   5   6
ENDBRANCH   1   5
TORSDOF 3
ENDMDL
