@<TRIPOS>MOLECULE
/home/cewinharhar/GITHUB/reincatalyze/data/processed/docking_pred/2023-May-23-1437_sub9_nm5_bs15_s42_ex16_mel10_mts10000_k50_ec02_g099_lra3e-4_lrc1e-3/d6fa7c89c21ca11aa73af88b15ecc664e93337c3_ligand_9.pdbqt
 14 15 0 0 0
SMALL
GASTEIGER

@<TRIPOS>ATOM
      1  C          5.7680    0.2750    1.3900 C.3     1  UNL1        0.0800
      2  C          5.0290    1.4740    0.9040 C.2     1  UNL1        0.1300
      3  C          5.3210    2.0890   -0.4180 C.3     1  UNL1        0.0870
      4  O          4.1550    1.9890    1.5830 O.2     1  UNL1       -0.3000
      5  C          7.0340    0.0480    0.5880 C.3     1  UNL1        0.0430
      6  C          8.2340    0.4840    1.3250 C.2     1  UNL1       -0.0440
      7  C          8.1790    1.5160    2.2690 C.2     1  UNL1        0.0080
      8  C          9.4410   -0.1330    1.0900 C.2     1  UNL1        0.0540
      9  C          9.3360    1.8820    2.9310 C.2     1  UNL1        0.0510
     10  C         10.6090    0.2410    1.7620 C.2     1  UNL1        0.1660
     11  C         10.5560    1.2570    2.6900 C.2     1  UNL1        0.1650
     12  O         11.9110   -0.2090    1.7060 O.2     1  UNL1       -0.4540
     13  O         11.8390    1.4100    3.1900 O.2     1  UNL1       -0.4540
     14  C         12.7110    0.4400    2.6600 C.3     1  UNL1        0.4680
@<TRIPOS>BOND
     1     3     2    1
     2     5     6    1
     3     5     1    1
     4     2     1    1
     5     2     4    2
     6     8     6    2
     7     8    10    1
     8     6     7    1
     9    12    10    1
    10    12    14    1
    11    10    11    2
    12     7     9    2
    13    14    13    1
    14    11     9    1
    15    11    13    1
