MODEL 1
REMARK VINA RESULT:      -7.5      0.000      0.000
REMARK SMILES CC(=O)CCc1ccc2c(c1)OCO2
REMARK SMILES IDX 4 1 2 2 1 3 3 4 5 5 6 6 7 7 11 8 8 9 10 10 9 11 12 12 14 13
REMARK SMILES IDX 13 14
REMARK H PARENT
REMARK Flexibility Score: inf
ROOT
ATOM      1  C   UNL     1       6.001   1.604   1.143  1.00  0.00     0.080 C 
ENDROOT
BRANCH   1   2
ATOM      2  C   UNL     1       5.463   0.492   1.975  1.00  0.00     0.130 C 
ATOM      3  C   UNL     1       6.268  -0.724   2.268  1.00  0.00     0.087 C 
ATOM      4  O   UNL     1       4.338   0.548   2.444  1.00  0.00    -0.300 OA
ENDBRANCH   1   2
BRANCH   1   5
ATOM      5  C   UNL     1       5.721   1.374  -0.329  1.00  0.00     0.043 C 
BRANCH   5   6
ATOM      6  C   UNL     1       6.798   0.603  -0.976  1.00  0.00    -0.044 A 
ATOM      7  C   UNL     1       8.139   0.990  -0.874  1.00  0.00     0.008 A 
ATOM      8  C   UNL     1       6.488  -0.527  -1.698  1.00  0.00     0.054 A 
ATOM      9  C   UNL     1       9.107   0.226  -1.502  1.00  0.00     0.051 A 
ATOM     10  C   UNL     1       7.470  -1.296  -2.330  1.00  0.00     0.166 A 
ATOM     11  C   UNL     1       8.790  -0.915  -2.231  1.00  0.00     0.165 A 
ATOM     12  O   UNL     1       7.419  -2.442  -3.094  1.00  0.00    -0.454 OA
ATOM     13  O   UNL     1       9.530  -1.847  -2.944  1.00  0.00    -0.454 OA
ATOM     14  C   UNL     1       8.710  -2.882  -3.431  1.00  0.00     0.468 C 
ENDBRANCH   5   6
ENDBRANCH   1   5
TORSDOF 3
ENDMDL
MODEL 2
REMARK VINA RESULT:      -7.0      2.765      3.732
REMARK SMILES CC(=O)CCc1ccc2c(c1)OCO2
REMARK SMILES IDX 4 1 2 2 1 3 3 4 5 5 6 6 7 7 11 8 8 9 10 10 9 11 12 12 14 13
REMARK SMILES IDX 13 14
REMARK H PARENT
REMARK Flexibility Score: inf
ROOT
ATOM      1  C   UNL     1       9.658   1.113   2.361  1.00  0.00     0.080 C 
ENDROOT
BRANCH   1   2
ATOM      2  C   UNL     1      11.104   0.753   2.390  1.00  0.00     0.130 C 
ATOM      3  C   UNL     1      12.076   1.497   3.235  1.00  0.00     0.087 C 
ATOM      4  O   UNL     1      11.534  -0.168   1.716  1.00  0.00    -0.300 OA
ENDBRANCH   1   2
BRANCH   1   5
ATOM      5  C   UNL     1       9.297   1.838   1.080  1.00  0.00     0.043 C 
BRANCH   5   6
ATOM      6  C   UNL     1       8.556   0.968   0.150  1.00  0.00    -0.044 A 
ATOM      7  C   UNL     1       7.160   0.873   0.190  1.00  0.00     0.008 A 
ATOM      8  C   UNL     1       9.242   0.228  -0.786  1.00  0.00     0.054 A 
ATOM      9  C   UNL     1       6.518   0.040  -0.709  1.00  0.00     0.051 A 
ATOM     10  C   UNL     1       8.588  -0.612  -1.692  1.00  0.00     0.166 A 
ATOM     11  C   UNL     1       7.215  -0.707  -1.653  1.00  0.00     0.165 A 
ATOM     12  O   UNL     1       9.038  -1.438  -2.701  1.00  0.00    -0.454 OA
ATOM     13  O   UNL     1       6.846  -1.597  -2.649  1.00  0.00    -0.454 OA
ATOM     14  C   UNL     1       7.963  -2.015  -3.397  1.00  0.00     0.468 C 
ENDBRANCH   5   6
ENDBRANCH   1   5
TORSDOF 3
ENDMDL
MODEL 3
REMARK VINA RESULT:      -7.0      1.575      5.556
REMARK SMILES CC(=O)CCc1ccc2c(c1)OCO2
REMARK SMILES IDX 4 1 2 2 1 3 3 4 5 5 6 6 7 7 11 8 8 9 10 10 9 11 12 12 14 13
REMARK SMILES IDX 13 14
REMARK H PARENT
REMARK Flexibility Score: inf
ROOT
ATOM      1  C   UNL     1       8.073  -2.548  -3.568  1.00  0.00     0.080 C 
ENDROOT
BRANCH   1   2
ATOM      2  C   UNL     1       9.216  -3.488  -3.395  1.00  0.00     0.130 C 
ATOM      3  C   UNL     1       9.011  -4.958  -3.300  1.00  0.00     0.087 C 
ATOM      4  O   UNL     1      10.362  -3.074  -3.324  1.00  0.00    -0.300 OA
ENDBRANCH   1   2
BRANCH   1   5
ATOM      5  C   UNL     1       8.423  -1.159  -3.072  1.00  0.00     0.043 C 
BRANCH   5   6
ATOM      6  C   UNL     1       7.675  -0.812  -1.850  1.00  0.00    -0.044 A 
ATOM      7  C   UNL     1       7.741  -1.607  -0.699  1.00  0.00     0.008 A 
ATOM      8  C   UNL     1       6.893   0.320  -1.827  1.00  0.00     0.054 A 
ATOM      9  C   UNL     1       7.019  -1.230   0.418  1.00  0.00     0.051 A 
ATOM     10  C   UNL     1       6.165   0.696  -0.694  1.00  0.00     0.166 A 
ATOM     11  C   UNL     1       6.228  -0.085   0.438  1.00  0.00     0.165 A 
ATOM     12  O   UNL     1       5.327   1.758  -0.426  1.00  0.00    -0.454 OA
ATOM     13  O   UNL     1       5.421   0.519   1.388  1.00  0.00    -0.454 OA
ATOM     14  C   UNL     1       4.902   1.739   0.913  1.00  0.00     0.468 C 
ENDBRANCH   5   6
ENDBRANCH   1   5
TORSDOF 3
ENDMDL
MODEL 4
REMARK VINA RESULT:      -7.0      3.641      4.713
REMARK SMILES CC(=O)CCc1ccc2c(c1)OCO2
REMARK SMILES IDX 4 1 2 2 1 3 3 4 5 5 6 6 7 7 11 8 8 9 10 10 9 11 12 12 14 13
REMARK SMILES IDX 13 14
REMARK H PARENT
REMARK Flexibility Score: inf
ROOT
ATOM      1  C   UNL     1       5.768   0.275   1.390  1.00  0.00     0.080 C 
ENDROOT
BRANCH   1   2
ATOM      2  C   UNL     1       5.029   1.474   0.904  1.00  0.00     0.130 C 
ATOM      3  C   UNL     1       5.321   2.089  -0.418  1.00  0.00     0.087 C 
ATOM      4  O   UNL     1       4.155   1.989   1.583  1.00  0.00    -0.300 OA
ENDBRANCH   1   2
BRANCH   1   5
ATOM      5  C   UNL     1       7.034   0.048   0.588  1.00  0.00     0.043 C 
BRANCH   5   6
ATOM      6  C   UNL     1       8.234   0.484   1.325  1.00  0.00    -0.044 A 
ATOM      7  C   UNL     1       8.179   1.516   2.269  1.00  0.00     0.008 A 
ATOM      8  C   UNL     1       9.441  -0.133   1.090  1.00  0.00     0.054 A 
ATOM      9  C   UNL     1       9.336   1.882   2.931  1.00  0.00     0.051 A 
ATOM     10  C   UNL     1      10.609   0.241   1.762  1.00  0.00     0.166 A 
ATOM     11  C   UNL     1      10.556   1.257   2.690  1.00  0.00     0.165 A 
ATOM     12  O   UNL     1      11.911  -0.209   1.706  1.00  0.00    -0.454 OA
ATOM     13  O   UNL     1      11.839   1.410   3.190  1.00  0.00    -0.454 OA
ATOM     14  C   UNL     1      12.711   0.440   2.660  1.00  0.00     0.468 C 
ENDBRANCH   5   6
ENDBRANCH   1   5
TORSDOF 3
ENDMDL
MODEL 5
REMARK VINA RESULT:      -7.0      1.242      1.667
REMARK SMILES CC(=O)CCc1ccc2c(c1)OCO2
REMARK SMILES IDX 4 1 2 2 1 3 3 4 5 5 6 6 7 7 11 8 8 9 10 10 9 11 12 12 14 13
REMARK SMILES IDX 13 14
REMARK H PARENT
REMARK Flexibility Score: inf
ROOT
ATOM      1  C   UNL     1       6.046  -0.296   1.552  1.00  0.00     0.080 C 
ENDROOT
BRANCH   1   2
ATOM      2  C   UNL     1       5.055   0.813   1.629  1.00  0.00     0.130 C 
ATOM      3  C   UNL     1       5.071   1.944   0.663  1.00  0.00     0.087 C 
ATOM      4  O   UNL     1       4.195   0.826   2.495  1.00  0.00    -0.300 OA
ENDBRANCH   1   2
BRANCH   1   5
ATOM      5  C   UNL     1       7.394   0.204   1.072  1.00  0.00     0.043 C 
BRANCH   5   6
ATOM      6  C   UNL     1       7.721  -0.311  -0.270  1.00  0.00    -0.044 A 
ATOM      7  C   UNL     1       7.855   0.544  -1.370  1.00  0.00     0.008 A 
ATOM      8  C   UNL     1       7.904  -1.662  -0.457  1.00  0.00     0.054 A 
ATOM      9  C   UNL     1       8.164   0.004  -2.605  1.00  0.00     0.051 A 
ATOM     10  C   UNL     1       8.216  -2.203  -1.708  1.00  0.00     0.166 A 
ATOM     11  C   UNL     1       8.347  -1.362  -2.791  1.00  0.00     0.165 A 
ATOM     12  O   UNL     1       8.442  -3.491  -2.145  1.00  0.00    -0.454 OA
ATOM     13  O   UNL     1       8.655  -2.160  -3.882  1.00  0.00    -0.454 OA
ATOM     14  C   UNL     1       8.814  -3.505  -3.499  1.00  0.00     0.468 C 
ENDBRANCH   5   6
ENDBRANCH   1   5
TORSDOF 3
ENDMDL
