@<TRIPOS>MOLECULE
/home/cewinharhar/GITHUB/reincatalyze/data/processed/docking_pred/2023-May-23-1437_sub9_nm5_bs15_s42_ex16_mel10_mts10000_k50_ec02_g099_lra3e-4_lrc1e-3/d6fa7c89c21ca11aa73af88b15ecc664e93337c3_ligand_9.pdbqt
 14 15 0 0 0
SMALL
GASTEIGER

@<TRIPOS>ATOM
      1  C          6.0010    1.6040    1.1430 C.3     1  UNL1        0.0800
      2  C          5.4630    0.4920    1.9750 C.2     1  UNL1        0.1300
      3  C          6.2680   -0.7240    2.2680 C.3     1  UNL1        0.0870
      4  O          4.3380    0.5480    2.4440 O.2     1  UNL1       -0.3000
      5  C          5.7210    1.3740   -0.3290 C.3     1  UNL1        0.0430
      6  C          6.7980    0.6030   -0.9760 C.2     1  UNL1       -0.0440
      7  C          8.1390    0.9900   -0.8740 C.2     1  UNL1        0.0080
      8  C          6.4880   -0.5270   -1.6980 C.2     1  UNL1        0.0540
      9  C          9.1070    0.2260   -1.5020 C.2     1  UNL1        0.0510
     10  C          7.4700   -1.2960   -2.3300 C.2     1  UNL1        0.1660
     11  C          8.7900   -0.9150   -2.2310 C.2     1  UNL1        0.1650
     12  O          7.4190   -2.4420   -3.0940 O.2     1  UNL1       -0.4540
     13  O          9.5300   -1.8470   -2.9440 O.2     1  UNL1       -0.4540
     14  C          8.7100   -2.8820   -3.4310 C.3     1  UNL1        0.4680
@<TRIPOS>BOND
     1    14    12    1
     2    14    13    1
     3    12    10    1
     4    13    11    1
     5    10    11    2
     6    10     8    1
     7    11     9    1
     8     8     6    2
     9     9     7    2
    10     6     7    1
    11     6     5    1
    12     5     1    1
    13     1     2    1
    14     2     3    1
    15     2     4    2
