@<TRIPOS>MOLECULE
/home/cewinharhar/GITHUB/reincatalyze/data/processed/docking_pred/2023-May-23-1437_sub9_nm5_bs15_s42_ex16_mel10_mts10000_k50_ec02_g099_lra3e-4_lrc1e-3/d6fa7c89c21ca11aa73af88b15ecc664e93337c3_ligand_9.pdbqt
 14 15 0 0 0
SMALL
GASTEIGER

@<TRIPOS>ATOM
      1  C          9.6580    1.1130    2.3610 C.3     1  UNL1        0.0800
      2  C         11.1040    0.7530    2.3900 C.2     1  UNL1        0.1300
      3  C         12.0760    1.4970    3.2350 C.3     1  UNL1        0.0870
      4  O         11.5340   -0.1680    1.7160 O.2     1  UNL1       -0.3000
      5  C          9.2970    1.8380    1.0800 C.3     1  UNL1        0.0430
      6  C          8.5560    0.9680    0.1500 C.2     1  UNL1       -0.0440
      7  C          7.1600    0.8730    0.1900 C.2     1  UNL1        0.0080
      8  C          9.2420    0.2280   -0.7860 C.2     1  UNL1        0.0540
      9  C          6.5180    0.0400   -0.7090 C.2     1  UNL1        0.0510
     10  C          8.5880   -0.6120   -1.6920 C.2     1  UNL1        0.1660
     11  C          7.2150   -0.7070   -1.6530 C.2     1  UNL1        0.1650
     12  O          9.0380   -1.4380   -2.7010 O.2     1  UNL1       -0.4540
     13  O          6.8460   -1.5970   -2.6490 O.2     1  UNL1       -0.4540
     14  C          7.9630   -2.0150   -3.3970 C.3     1  UNL1        0.4680
@<TRIPOS>BOND
     1    14    12    1
     2    14    13    1
     3    12    10    1
     4    13    11    1
     5    10    11    2
     6    10     8    1
     7    11     9    1
     8     8     6    2
     9     9     7    2
    10     6     7    1
    11     6     5    1
    12     5     1    1
    13     4     2    2
    14     1     2    1
    15     2     3    1
