@<TRIPOS>MOLECULE
/home/cewinharhar/GITHUB/reincatalyze/data/processed/docking_pred/2023-May-23-1437_sub9_nm5_bs15_s42_ex16_mel10_mts10000_k50_ec02_g099_lra3e-4_lrc1e-3/d7d9c72b52c2e0a01b4806f6bcc2a503b8c9528b_ligand_9.pdbqt
 14 15 0 0 0
SMALL
GASTEIGER

@<TRIPOS>ATOM
      1  C          5.6740    0.2570    2.5210 C.3     1  UNL1        0.0800
      2  C          4.5360    1.0660    2.0030 C.2     1  UNL1        0.1300
      3  C          4.6460    1.8530    0.7460 C.3     1  UNL1        0.0870
      4  O          3.4720    1.1070    2.6010 O.2     1  UNL1       -0.3000
      5  C          5.8050   -1.0530    1.7690 C.3     1  UNL1        0.0430
      6  C          6.8100   -0.9680    0.6950 C.2     1  UNL1       -0.0440
      7  C          8.0630   -0.3810    0.9080 C.2     1  UNL1        0.0080
      8  C          6.5220   -1.4760   -0.5510 C.2     1  UNL1        0.0540
      9  C          8.9670   -0.3300   -0.1370 C.2     1  UNL1        0.0510
     10  C          7.4400   -1.4230   -1.6040 C.2     1  UNL1        0.1660
     11  C          8.6720   -0.8450   -1.3960 C.2     1  UNL1        0.1650
     12  O          7.3920   -1.8510   -2.9140 O.2     1  UNL1       -0.4540
     13  O          9.3630   -0.9320   -2.5940 O.2     1  UNL1       -0.4540
     14  C          8.6230   -1.6430   -3.5580 C.3     1  UNL1        0.4680
@<TRIPOS>BOND
     1    14    12    1
     2    14    13    1
     3    12    10    1
     4    13    11    1
     5    10    11    2
     6    10     8    1
     7    11     9    1
     8     8     6    2
     9     9     7    2
    10     6     7    1
    11     6     5    1
    12     3     2    1
    13     5     1    1
    14     2     1    1
    15     2     4    2
