MODEL 1
REMARK VINA RESULT:      -6.6      0.000      0.000
REMARK SMILES CC(=O)CCc1ccc2c(c1)OCO2
REMARK SMILES IDX 4 1 2 2 1 3 3 4 5 5 6 6 7 7 11 8 8 9 10 10 9 11 12 12 14 13
REMARK SMILES IDX 13 14
REMARK H PARENT
REMARK Flexibility Score: inf
ROOT
ATOM      1  C   UNL     1       5.424  -0.296   2.126  1.00  0.00     0.080 C 
ENDROOT
BRANCH   1   2
ATOM      2  C   UNL     1       4.499   0.854   1.924  1.00  0.00     0.130 C 
ATOM      3  C   UNL     1       4.707   1.840   0.830  1.00  0.00     0.087 C 
ATOM      4  O   UNL     1       3.537   1.021   2.656  1.00  0.00    -0.300 OA
ENDBRANCH   1   2
BRANCH   1   5
ATOM      5  C   UNL     1       6.825   0.034   1.650  1.00  0.00     0.043 C 
BRANCH   5   6
ATOM      6  C   UNL     1       7.263  -0.871   0.573  1.00  0.00    -0.044 A 
ATOM      7  C   UNL     1       7.106  -0.534  -0.776  1.00  0.00     0.008 A 
ATOM      8  C   UNL     1       7.846  -2.077   0.890  1.00  0.00     0.054 A 
ATOM      9  C   UNL     1       7.537  -1.422  -1.745  1.00  0.00     0.051 A 
ATOM     10  C   UNL     1       8.281  -2.971  -0.093  1.00  0.00     0.166 A 
ATOM     11  C   UNL     1       8.125  -2.641  -1.421  1.00  0.00     0.165 A 
ATOM     12  O   UNL     1       8.880  -4.212  -0.035  1.00  0.00    -0.454 OA
ATOM     13  O   UNL     1       8.638  -3.697  -2.159  1.00  0.00    -0.454 OA
ATOM     14  C   UNL     1       9.209  -4.673  -1.321  1.00  0.00     0.468 C 
ENDBRANCH   5   6
ENDBRANCH   1   5
TORSDOF 3
ENDMDL
MODEL 2
REMARK VINA RESULT:      -5.9      1.047      1.978
REMARK SMILES CC(=O)CCc1ccc2c(c1)OCO2
REMARK SMILES IDX 4 1 2 2 1 3 3 4 5 5 6 6 7 7 11 8 8 9 10 10 9 11 12 12 14 13
REMARK SMILES IDX 13 14
REMARK H PARENT
REMARK Flexibility Score: inf
ROOT
ATOM      1  C   UNL     1       5.319  -0.209   2.313  1.00  0.00     0.080 C 
ENDROOT
BRANCH   1   2
ATOM      2  C   UNL     1       4.403   0.918   1.983  1.00  0.00     0.130 C 
ATOM      3  C   UNL     1       4.673   1.836   0.845  1.00  0.00     0.087 C 
ATOM      4  O   UNL     1       3.396   1.122   2.643  1.00  0.00    -0.300 OA
ENDBRANCH   1   2
BRANCH   1   5
ATOM      5  C   UNL     1       6.755   0.130   1.970  1.00  0.00     0.043 C 
BRANCH   5   6
ATOM      6  C   UNL     1       7.290  -0.756   0.920  1.00  0.00    -0.044 A 
ATOM      7  C   UNL     1       7.596  -2.097   1.179  1.00  0.00     0.008 A 
ATOM      8  C   UNL     1       7.494  -0.264  -0.349  1.00  0.00     0.054 A 
ATOM      9  C   UNL     1       8.095  -2.881   0.154  1.00  0.00     0.051 A 
ATOM     10  C   UNL     1       7.998  -1.061  -1.382  1.00  0.00     0.166 A 
ATOM     11  C   UNL     1       8.301  -2.380  -1.128  1.00  0.00     0.165 A 
ATOM     12  O   UNL     1       8.286  -0.811  -2.706  1.00  0.00    -0.454 OA
ATOM     13  O   UNL     1       8.773  -2.919  -2.315  1.00  0.00    -0.454 OA
ATOM     14  C   UNL     1       8.695  -1.983  -3.363  1.00  0.00     0.468 C 
ENDBRANCH   5   6
ENDBRANCH   1   5
TORSDOF 3
ENDMDL
MODEL 3
REMARK VINA RESULT:      -5.8      1.342      6.121
REMARK SMILES CC(=O)CCc1ccc2c(c1)OCO2
REMARK SMILES IDX 4 1 2 2 1 3 3 4 5 5 6 6 7 7 11 8 8 9 10 10 9 11 12 12 14 13
REMARK SMILES IDX 13 14
REMARK H PARENT
REMARK Flexibility Score: inf
ROOT
ATOM      1  C   UNL     1       8.784  -3.943  -0.375  1.00  0.00     0.080 C 
ENDROOT
BRANCH   1   2
ATOM      2  C   UNL     1       9.310  -4.832  -1.447  1.00  0.00     0.130 C 
ATOM      3  C   UNL     1       8.912  -6.262  -1.541  1.00  0.00     0.087 C 
ATOM      4  O   UNL     1      10.090  -4.410  -2.286  1.00  0.00    -0.300 OA
ENDBRANCH   1   2
BRANCH   1   5
ATOM      5  C   UNL     1       8.327  -2.612  -0.939  1.00  0.00     0.043 C 
BRANCH   5   6
ATOM      6  C   UNL     1       7.489  -1.871   0.020  1.00  0.00    -0.044 A 
ATOM      7  C   UNL     1       7.406  -2.247   1.365  1.00  0.00     0.008 A 
ATOM      8  C   UNL     1       6.767  -0.779  -0.406  1.00  0.00     0.054 A 
ATOM      9  C   UNL     1       6.603  -1.513   2.219  1.00  0.00     0.051 A 
ATOM     10  C   UNL     1       5.957  -0.040   0.461  1.00  0.00     0.166 A 
ATOM     11  C   UNL     1       5.874  -0.411   1.785  1.00  0.00     0.165 A 
ATOM     12  O   UNL     1       5.154   1.067   0.283  1.00  0.00    -0.454 OA
ATOM     13  O   UNL     1       5.014   0.486   2.399  1.00  0.00    -0.454 OA
ATOM     14  C   UNL     1       4.606   1.493   1.504  1.00  0.00     0.468 C 
ENDBRANCH   5   6
ENDBRANCH   1   5
TORSDOF 3
ENDMDL
MODEL 4
REMARK VINA RESULT:      -5.8      1.869      5.433
REMARK SMILES CC(=O)CCc1ccc2c(c1)OCO2
REMARK SMILES IDX 4 1 2 2 1 3 3 4 5 5 6 6 7 7 11 8 8 9 10 10 9 11 12 12 14 13
REMARK SMILES IDX 13 14
REMARK H PARENT
REMARK Flexibility Score: inf
ROOT
ATOM      1  C   UNL     1       8.056  -1.781  -2.273  1.00  0.00     0.080 C 
ENDROOT
BRANCH   1   2
ATOM      2  C   UNL     1       8.734  -0.462  -2.416  1.00  0.00     0.130 C 
ATOM      3  C   UNL     1       8.190   0.604  -3.300  1.00  0.00     0.087 C 
ATOM      4  O   UNL     1       9.763  -0.217  -1.808  1.00  0.00    -0.300 OA
ENDBRANCH   1   2
BRANCH   1   5
ATOM      5  C   UNL     1       8.224  -2.337  -0.874  1.00  0.00     0.043 C 
BRANCH   5   6
ATOM      6  C   UNL     1       7.358  -1.644   0.097  1.00  0.00    -0.044 A 
ATOM      7  C   UNL     1       7.255  -2.075   1.425  1.00  0.00     0.008 A 
ATOM      8  C   UNL     1       6.632  -0.545  -0.299  1.00  0.00     0.054 A 
ATOM      9  C   UNL     1       6.427  -1.385   2.292  1.00  0.00     0.051 A 
ATOM     10  C   UNL     1       5.797   0.150   0.581  1.00  0.00     0.166 A 
ATOM     11  C   UNL     1       5.694  -0.274   1.887  1.00  0.00     0.165 A 
ATOM     12  O   UNL     1       4.984   1.253   0.431  1.00  0.00    -0.454 OA
ATOM     13  O   UNL     1       4.811   0.588   2.519  1.00  0.00    -0.454 OA
ATOM     14  C   UNL     1       4.407   1.625   1.657  1.00  0.00     0.468 C 
ENDBRANCH   5   6
ENDBRANCH   1   5
TORSDOF 3
ENDMDL
MODEL 5
REMARK VINA RESULT:      -5.7      1.874      2.150
REMARK SMILES CC(=O)CCc1ccc2c(c1)OCO2
REMARK SMILES IDX 4 1 2 2 1 3 3 4 5 5 6 6 7 7 11 8 8 9 10 10 9 11 12 12 14 13
REMARK SMILES IDX 13 14
REMARK H PARENT
REMARK Flexibility Score: inf
ROOT
ATOM      1  C   UNL     1       5.674   0.257   2.521  1.00  0.00     0.080 C 
ENDROOT
BRANCH   1   2
ATOM      2  C   UNL     1       4.536   1.066   2.003  1.00  0.00     0.130 C 
ATOM      3  C   UNL     1       4.646   1.853   0.746  1.00  0.00     0.087 C 
ATOM      4  O   UNL     1       3.472   1.107   2.601  1.00  0.00    -0.300 OA
ENDBRANCH   1   2
BRANCH   1   5
ATOM      5  C   UNL     1       5.805  -1.053   1.769  1.00  0.00     0.043 C 
BRANCH   5   6
ATOM      6  C   UNL     1       6.810  -0.968   0.695  1.00  0.00    -0.044 A 
ATOM      7  C   UNL     1       8.063  -0.381   0.908  1.00  0.00     0.008 A 
ATOM      8  C   UNL     1       6.522  -1.476  -0.551  1.00  0.00     0.054 A 
ATOM      9  C   UNL     1       8.967  -0.330  -0.137  1.00  0.00     0.051 A 
ATOM     10  C   UNL     1       7.440  -1.423  -1.604  1.00  0.00     0.166 A 
ATOM     11  C   UNL     1       8.672  -0.845  -1.396  1.00  0.00     0.165 A 
ATOM     12  O   UNL     1       7.392  -1.851  -2.914  1.00  0.00    -0.454 OA
ATOM     13  O   UNL     1       9.363  -0.932  -2.594  1.00  0.00    -0.454 OA
ATOM     14  C   UNL     1       8.623  -1.643  -3.558  1.00  0.00     0.468 C 
ENDBRANCH   5   6
ENDBRANCH   1   5
TORSDOF 3
ENDMDL
