@<TRIPOS>MOLECULE
/home/cewinharhar/GITHUB/reincatalyze/data/processed/docking_pred/2023-May-23-1437_sub9_nm5_bs15_s42_ex16_mel10_mts10000_k50_ec02_g099_lra3e-4_lrc1e-3/d7d9c72b52c2e0a01b4806f6bcc2a503b8c9528b_ligand_9.pdbqt
 14 15 0 0 0
SMALL
GASTEIGER

@<TRIPOS>ATOM
      1  C          5.4240   -0.2960    2.1260 C.3     1  UNL1        0.0800
      2  C          4.4990    0.8540    1.9240 C.2     1  UNL1        0.1300
      3  C          4.7070    1.8400    0.8300 C.3     1  UNL1        0.0870
      4  O          3.5370    1.0210    2.6560 O.2     1  UNL1       -0.3000
      5  C          6.8250    0.0340    1.6500 C.3     1  UNL1        0.0430
      6  C          7.2630   -0.8710    0.5730 C.2     1  UNL1       -0.0440
      7  C          7.1060   -0.5340   -0.7760 C.2     1  UNL1        0.0080
      8  C          7.8460   -2.0770    0.8900 C.2     1  UNL1        0.0540
      9  C          7.5370   -1.4220   -1.7450 C.2     1  UNL1        0.0510
     10  C          8.2810   -2.9710   -0.0930 C.2     1  UNL1        0.1660
     11  C          8.1250   -2.6410   -1.4210 C.2     1  UNL1        0.1650
     12  O          8.8800   -4.2120   -0.0350 O.2     1  UNL1       -0.4540
     13  O          8.6380   -3.6970   -2.1590 O.2     1  UNL1       -0.4540
     14  C          9.2090   -4.6730   -1.3210 C.3     1  UNL1        0.4680
@<TRIPOS>BOND
     1    13    11    1
     2    13    14    1
     3     9    11    2
     4     9     7    1
     5    11    10    1
     6    14    12    1
     7     7     6    2
     8    10    12    1
     9    10     8    2
    10     6     8    1
    11     6     5    1
    12     3     2    1
    13     5     1    1
    14     2     1    1
    15     2     4    2
