@<TRIPOS>MOLECULE
/home/cewinharhar/GITHUB/reincatalyze/data/processed/docking_pred/2023-May-23-1437_sub9_nm5_bs15_s42_ex16_mel10_mts10000_k50_ec02_g099_lra3e-4_lrc1e-3/d7d9c72b52c2e0a01b4806f6bcc2a503b8c9528b_ligand_9.pdbqt
 14 15 0 0 0
SMALL
GASTEIGER

@<TRIPOS>ATOM
      1  C          5.3190   -0.2090    2.3130 C.3     1  UNL1        0.0800
      2  C          4.4030    0.9180    1.9830 C.2     1  UNL1        0.1300
      3  C          4.6730    1.8360    0.8450 C.3     1  UNL1        0.0870
      4  O          3.3960    1.1220    2.6430 O.2     1  UNL1       -0.3000
      5  C          6.7550    0.1300    1.9700 C.3     1  UNL1        0.0430
      6  C          7.2900   -0.7560    0.9200 C.2     1  UNL1       -0.0440
      7  C          7.5960   -2.0970    1.1790 C.2     1  UNL1        0.0080
      8  C          7.4940   -0.2640   -0.3490 C.2     1  UNL1        0.0540
      9  C          8.0950   -2.8810    0.1540 C.2     1  UNL1        0.0510
     10  C          7.9980   -1.0610   -1.3820 C.2     1  UNL1        0.1660
     11  C          8.3010   -2.3800   -1.1280 C.2     1  UNL1        0.1650
     12  O          8.2860   -0.8110   -2.7060 O.2     1  UNL1       -0.4540
     13  O          8.7730   -2.9190   -2.3150 O.2     1  UNL1       -0.4540
     14  C          8.6950   -1.9830   -3.3630 C.3     1  UNL1        0.4680
@<TRIPOS>BOND
     1    14    12    1
     2    14    13    1
     3    12    10    1
     4    13    11    1
     5    10    11    2
     6    10     8    1
     7    11     9    1
     8     8     6    2
     9     9     7    2
    10     3     2    1
    11     6     7    1
    12     6     5    1
    13     5     1    1
    14     2     1    1
    15     2     4    2
