MODEL 1
REMARK VINA RESULT:      -7.7      0.000      0.000
REMARK SMILES CC(=O)CCc1ccc2c(c1)OCO2
REMARK SMILES IDX 4 1 2 2 1 3 3 4 5 5 6 6 7 7 11 8 8 9 10 10 9 11 12 12 14 13
REMARK SMILES IDX 13 14
REMARK H PARENT
REMARK Flexibility Score: inf
ROOT
ATOM      1  C   UNL     1       5.535   1.892   1.290  1.00  0.00     0.080 C 
ENDROOT
BRANCH   1   2
ATOM      2  C   UNL     1       5.093   0.668   2.016  1.00  0.00     0.130 C 
ATOM      3  C   UNL     1       5.985  -0.512   2.172  1.00  0.00     0.087 C 
ATOM      4  O   UNL     1       3.978   0.599   2.507  1.00  0.00    -0.300 OA
ENDBRANCH   1   2
BRANCH   1   5
ATOM      5  C   UNL     1       5.405   1.718  -0.210  1.00  0.00     0.043 C 
BRANCH   5   6
ATOM      6  C   UNL     1       6.569   1.018  -0.782  1.00  0.00    -0.044 A 
ATOM      7  C   UNL     1       7.877   1.454  -0.542  1.00  0.00     0.008 A 
ATOM      8  C   UNL     1       6.377  -0.094  -1.571  1.00  0.00     0.054 A 
ATOM      9  C   UNL     1       8.931   0.757  -1.105  1.00  0.00     0.051 A 
ATOM     10  C   UNL     1       7.446  -0.795  -2.136  1.00  0.00     0.166 A 
ATOM     11  C   UNL     1       8.733  -0.366  -1.902  1.00  0.00     0.165 A 
ATOM     12  O   UNL     1       7.515  -1.911  -2.944  1.00  0.00    -0.454 OA
ATOM     13  O   UNL     1       9.575  -1.237  -2.576  1.00  0.00    -0.454 OA
ATOM     14  C   UNL     1       8.849  -2.284  -3.175  1.00  0.00     0.468 C 
ENDBRANCH   5   6
ENDBRANCH   1   5
TORSDOF 3
ENDMDL
MODEL 2
REMARK VINA RESULT:      -7.5      1.946      2.399
REMARK SMILES CC(=O)CCc1ccc2c(c1)OCO2
REMARK SMILES IDX 4 1 2 2 1 3 3 4 5 5 6 6 7 7 11 8 8 9 10 10 9 11 12 12 14 13
REMARK SMILES IDX 13 14
REMARK H PARENT
REMARK Flexibility Score: inf
ROOT
ATOM      1  C   UNL     1       5.703   1.216  -0.313  1.00  0.00     0.080 C 
ENDROOT
BRANCH   1   2
ATOM      2  C   UNL     1       5.142   1.226   1.067  1.00  0.00     0.130 C 
ATOM      3  C   UNL     1       5.411   0.123   2.027  1.00  0.00     0.087 C 
ATOM      4  O   UNL     1       4.441   2.148   1.451  1.00  0.00    -0.300 OA
ENDBRANCH   1   2
BRANCH   1   5
ATOM      5  C   UNL     1       7.211   1.061  -0.294  1.00  0.00     0.043 C 
BRANCH   5   6
ATOM      6  C   UNL     1       7.636  -0.222  -0.880  1.00  0.00    -0.044 A 
ATOM      7  C   UNL     1       7.815  -0.374  -2.260  1.00  0.00     0.008 A 
ATOM      8  C   UNL     1       7.868  -1.303  -0.061  1.00  0.00     0.054 A 
ATOM      9  C   UNL     1       8.216  -1.602  -2.753  1.00  0.00     0.051 A 
ATOM     10  C   UNL     1       8.274  -2.543  -0.564  1.00  0.00     0.166 A 
ATOM     11  C   UNL     1       8.449  -2.693  -1.922  1.00  0.00     0.165 A 
ATOM     12  O   UNL     1       8.563  -3.751   0.033  1.00  0.00    -0.454 OA
ATOM     13  O   UNL     1       8.847  -4.004  -2.132  1.00  0.00    -0.454 OA
ATOM     14  C   UNL     1       9.020  -4.684  -0.911  1.00  0.00     0.468 C 
ENDBRANCH   5   6
ENDBRANCH   1   5
TORSDOF 3
ENDMDL
MODEL 3
REMARK VINA RESULT:      -7.2      2.059      2.631
REMARK SMILES CC(=O)CCc1ccc2c(c1)OCO2
REMARK SMILES IDX 4 1 2 2 1 3 3 4 5 5 6 6 7 7 11 8 8 9 10 10 9 11 12 12 14 13
REMARK SMILES IDX 13 14
REMARK H PARENT
REMARK Flexibility Score: inf
ROOT
ATOM      1  C   UNL     1       5.423  -0.064   2.013  1.00  0.00     0.080 C 
ENDROOT
BRANCH   1   2
ATOM      2  C   UNL     1       4.581   1.141   1.771  1.00  0.00     0.130 C 
ATOM      3  C   UNL     1       4.916   2.128   0.710  1.00  0.00     0.087 C 
ATOM      4  O   UNL     1       3.584   1.354   2.443  1.00  0.00    -0.300 OA
ENDBRANCH   1   2
BRANCH   1   5
ATOM      5  C   UNL     1       6.862   0.179   1.601  1.00  0.00     0.043 C 
BRANCH   5   6
ATOM      6  C   UNL     1       7.289  -0.746   0.537  1.00  0.00    -0.044 A 
ATOM      7  C   UNL     1       7.166  -0.414  -0.817  1.00  0.00     0.008 A 
ATOM      8  C   UNL     1       7.826  -1.969   0.871  1.00  0.00     0.054 A 
ATOM      9  C   UNL     1       7.585  -1.322  -1.772  1.00  0.00     0.051 A 
ATOM     10  C   UNL     1       8.248  -2.884  -0.098  1.00  0.00     0.166 A 
ATOM     11  C   UNL     1       8.126  -2.558  -1.430  1.00  0.00     0.165 A 
ATOM     12  O   UNL     1       8.805  -4.143  -0.022  1.00  0.00    -0.454 OA
ATOM     13  O   UNL     1       8.617  -3.634  -2.153  1.00  0.00    -0.454 OA
ATOM     14  C   UNL     1       9.141  -4.623  -1.299  1.00  0.00     0.468 C 
ENDBRANCH   5   6
ENDBRANCH   1   5
TORSDOF 3
ENDMDL
MODEL 4
REMARK VINA RESULT:      -7.1      1.243      1.442
REMARK SMILES CC(=O)CCc1ccc2c(c1)OCO2
REMARK SMILES IDX 4 1 2 2 1 3 3 4 5 5 6 6 7 7 11 8 8 9 10 10 9 11 12 12 14 13
REMARK SMILES IDX 13 14
REMARK H PARENT
REMARK Flexibility Score: inf
ROOT
ATOM      1  C   UNL     1       6.359   1.240   0.926  1.00  0.00     0.080 C 
ENDROOT
BRANCH   1   2
ATOM      2  C   UNL     1       5.653   0.401   1.935  1.00  0.00     0.130 C 
ATOM      3  C   UNL     1       6.286  -0.810   2.523  1.00  0.00     0.087 C 
ATOM      4  O   UNL     1       4.528   0.687   2.310  1.00  0.00    -0.300 OA
ENDBRANCH   1   2
BRANCH   1   5
ATOM      5  C   UNL     1       5.856   0.954  -0.475  1.00  0.00     0.043 C 
BRANCH   5   6
ATOM      6  C   UNL     1       6.806   0.127  -1.239  1.00  0.00    -0.044 A 
ATOM      7  C   UNL     1       7.499   0.636  -2.344  1.00  0.00     0.008 A 
ATOM      8  C   UNL     1       7.028  -1.179  -0.865  1.00  0.00     0.054 A 
ATOM      9  C   UNL     1       8.379  -0.187  -3.022  1.00  0.00     0.051 A 
ATOM     10  C   UNL     1       7.920  -2.007  -1.553  1.00  0.00     0.166 A 
ATOM     11  C   UNL     1       8.600  -1.507  -2.641  1.00  0.00     0.165 A 
ATOM     12  O   UNL     1       8.307  -3.319  -1.381  1.00  0.00    -0.454 OA
ATOM     13  O   UNL     1       9.401  -2.533  -3.119  1.00  0.00    -0.454 OA
ATOM     14  C   UNL     1       9.314  -3.671  -2.295  1.00  0.00     0.468 C 
ENDBRANCH   5   6
ENDBRANCH   1   5
TORSDOF 3
ENDMDL
MODEL 5
REMARK VINA RESULT:      -6.8      1.916      2.541
REMARK SMILES CC(=O)CCc1ccc2c(c1)OCO2
REMARK SMILES IDX 4 1 2 2 1 3 3 4 5 5 6 6 7 7 11 8 8 9 10 10 9 11 12 12 14 13
REMARK SMILES IDX 13 14
REMARK H PARENT
REMARK Flexibility Score: inf
ROOT
ATOM      1  C   UNL     1       6.982   1.022   0.828  1.00  0.00     0.080 C 
ENDROOT
BRANCH   1   2
ATOM      2  C   UNL     1       5.589   1.166   1.334  1.00  0.00     0.130 C 
ATOM      3  C   UNL     1       4.641   2.150   0.745  1.00  0.00     0.087 C 
ATOM      4  O   UNL     1       5.182   0.476   2.255  1.00  0.00    -0.300 OA
ENDBRANCH   1   2
BRANCH   1   5
ATOM      5  C   UNL     1       7.015   0.969  -0.687  1.00  0.00     0.043 C 
BRANCH   5   6
ATOM      6  C   UNL     1       7.534  -0.320  -1.177  1.00  0.00    -0.044 A 
ATOM      7  C   UNL     1       7.837  -0.522  -2.528  1.00  0.00     0.008 A 
ATOM      8  C   UNL     1       7.731  -1.357  -0.293  1.00  0.00     0.054 A 
ATOM      9  C   UNL     1       8.323  -1.753  -2.930  1.00  0.00     0.051 A 
ATOM     10  C   UNL     1       8.223  -2.599  -0.705  1.00  0.00     0.166 A 
ATOM     11  C   UNL     1       8.520  -2.799  -2.034  1.00  0.00     0.165 A 
ATOM     12  O   UNL     1       8.501  -3.769  -0.031  1.00  0.00    -0.454 OA
ATOM     13  O   UNL     1       8.981  -4.101  -2.151  1.00  0.00    -0.454 OA
ATOM     14  C   UNL     1       9.071  -4.723  -0.891  1.00  0.00     0.468 C 
ENDBRANCH   5   6
ENDBRANCH   1   5
TORSDOF 3
ENDMDL
