@<TRIPOS>MOLECULE
/home/cewinharhar/GITHUB/reincatalyze/data/processed/docking_pred/2023-May-23-1437_sub9_nm5_bs15_s42_ex16_mel10_mts10000_k50_ec02_g099_lra3e-4_lrc1e-3/d98db6e7330c4682e6208573911aa9edae27e8f4_ligand_9.pdbqt
 14 15 0 0 0
SMALL
GASTEIGER

@<TRIPOS>ATOM
      1  C          6.9820    1.0220    0.8280 C.3     1  UNL1        0.0800
      2  C          5.5890    1.1660    1.3340 C.2     1  UNL1        0.1300
      3  C          4.6410    2.1500    0.7450 C.3     1  UNL1        0.0870
      4  O          5.1820    0.4760    2.2550 O.2     1  UNL1       -0.3000
      5  C          7.0150    0.9690   -0.6870 C.3     1  UNL1        0.0430
      6  C          7.5340   -0.3200   -1.1770 C.2     1  UNL1       -0.0440
      7  C          7.8370   -0.5220   -2.5280 C.2     1  UNL1        0.0080
      8  C          7.7310   -1.3570   -0.2930 C.2     1  UNL1        0.0540
      9  C          8.3230   -1.7530   -2.9300 C.2     1  UNL1        0.0510
     10  C          8.2230   -2.5990   -0.7050 C.2     1  UNL1        0.1660
     11  C          8.5200   -2.7990   -2.0340 C.2     1  UNL1        0.1650
     12  O          8.5010   -3.7690   -0.0310 O.2     1  UNL1       -0.4540
     13  O          8.9810   -4.1010   -2.1510 O.2     1  UNL1       -0.4540
     14  C          9.0710   -4.7230   -0.8910 C.3     1  UNL1        0.4680
@<TRIPOS>BOND
     1     9     7    1
     2     9    11    2
     3     7     6    2
     4    13    11    1
     5    13    14    1
     6    11    10    1
     7     6     5    1
     8     6     8    1
     9    14    12    1
    10    10     8    2
    11    10    12    1
    12     5     1    1
    13     3     2    1
    14     1     2    1
    15     2     4    2
