@<TRIPOS>MOLECULE
/home/cewinharhar/GITHUB/reincatalyze/data/processed/docking_pred/2023-May-23-1437_sub9_nm5_bs15_s42_ex16_mel10_mts10000_k50_ec02_g099_lra3e-4_lrc1e-3/da55d276f49f8aea3f2b333b6115ea57fe53d1b0_ligand_9.pdbqt
 14 15 0 0 0
SMALL
GASTEIGER

@<TRIPOS>ATOM
      1  C          6.3690    1.1860    0.9660 C.3     1  UNL1        0.0800
      2  C          5.6320    0.3590    1.9620 C.2     1  UNL1        0.1300
      3  C          6.2270   -0.8720    2.5480 C.3     1  UNL1        0.0870
      4  O          4.5100    0.6700    2.3270 O.2     1  UNL1       -0.3000
      5  C          5.8650    0.9310   -0.4410 C.3     1  UNL1        0.0430
      6  C          6.8110    0.1110   -1.2200 C.2     1  UNL1       -0.0440
      7  C          7.4860    0.6270   -2.3320 C.2     1  UNL1        0.0080
      8  C          7.0450   -1.1950   -0.8520 C.2     1  UNL1        0.0540
      9  C          8.3620   -0.1890   -3.0230 C.2     1  UNL1        0.0510
     10  C          7.9320   -2.0160   -1.5540 C.2     1  UNL1        0.1660
     11  C          8.5960   -1.5090   -2.6490 C.2     1  UNL1        0.1650
     12  O          8.3300   -3.3260   -1.3900 O.2     1  UNL1       -0.4540
     13  O          9.3960   -2.5290   -3.1400 O.2     1  UNL1       -0.4540
     14  C          9.3270   -3.6700   -2.3180 C.3     1  UNL1        0.4680
@<TRIPOS>BOND
     1    13    11    1
     2    13    14    1
     3     9    11    2
     4     9     7    1
     5    11    10    1
     6     7     6    2
     7    14    12    1
     8    10    12    1
     9    10     8    2
    10     6     8    1
    11     6     5    1
    12     5     1    1
    13     1     2    1
    14     2     4    2
    15     2     3    1
