@<TRIPOS>MOLECULE
/home/cewinharhar/GITHUB/reincatalyze/data/processed/docking_pred/2023-May-23-1437_sub9_nm5_bs15_s42_ex16_mel10_mts10000_k50_ec02_g099_lra3e-4_lrc1e-3/dae946a14533abf5a26c4c259dc9c56d74217bba_ligand_9.pdbqt
 14 15 0 0 0
SMALL
GASTEIGER

@<TRIPOS>ATOM
      1  C          8.3300    0.1480   -2.6700 C.3     1  UNL1        0.0800
      2  C          8.0840   -1.3150   -2.8020 C.2     1  UNL1        0.1300
      3  C          9.1970   -2.2780   -3.0170 C.3     1  UNL1        0.0870
      4  O          6.9530   -1.7690   -2.7370 O.2     1  UNL1       -0.3000
      5  C          8.8720    0.4930   -1.2970 C.3     1  UNL1        0.0430
      6  C          7.8380    0.3690   -0.2540 C.2     1  UNL1       -0.0440
      7  C          7.9390   -0.5810    0.7680 C.2     1  UNL1        0.0080
      8  C          6.7440    1.2050   -0.2760 C.2     1  UNL1        0.0540
      9  C          6.9380   -0.6500    1.7200 C.2     1  UNL1        0.0510
     10  C          5.7360    1.1310    0.6890 C.2     1  UNL1        0.1660
     11  C          5.8330    0.1960    1.6950 C.2     1  UNL1        0.1650
     12  O          4.5670    1.8360    0.8830 O.2     1  UNL1       -0.4540
     13  O          4.7110    0.3490    2.4950 O.2     1  UNL1       -0.4540
     14  C          3.9280    1.4380    2.0680 C.3     1  UNL1        0.4680
@<TRIPOS>BOND
     1     3     2    1
     2     2     4    2
     3     2     1    1
     4     1     5    1
     5     5     6    1
     6     8     6    2
     7     8    10    1
     8     6     7    1
     9    10    12    1
    10    10    11    2
    11     7     9    2
    12    12    14    1
    13    11     9    1
    14    11    13    1
    15    14    13    1
