@<TRIPOS>MOLECULE
/home/cewinharhar/GITHUB/reincatalyze/data/processed/docking_pred/2023-May-23-1437_sub9_nm5_bs15_s42_ex16_mel10_mts10000_k50_ec02_g099_lra3e-4_lrc1e-3/dae946a14533abf5a26c4c259dc9c56d74217bba_ligand_9.pdbqt
 14 15 0 0 0
SMALL
GASTEIGER

@<TRIPOS>ATOM
      1  C          5.3780   -0.0430    2.0230 C.3     1  UNL1        0.0800
      2  C          4.5610    1.1720    1.7490 C.2     1  UNL1        0.1300
      3  C          4.9440    2.1500    0.6960 C.3     1  UNL1        0.0870
      4  O          3.5460    1.4020    2.3870 O.2     1  UNL1       -0.3000
      5  C          6.8260    0.1670    1.6260 C.3     1  UNL1        0.0430
      6  C          7.1850   -0.6250    0.4350 C.2     1  UNL1       -0.0440
      7  C          6.9380   -0.1550   -0.8600 C.2     1  UNL1        0.0080
      8  C          7.7810   -1.8560    0.5890 C.2     1  UNL1        0.0540
      9  C          7.2980   -0.9410   -1.9390 C.2     1  UNL1        0.0510
     10  C          8.1440   -2.6460   -0.5050 C.2     1  UNL1        0.1660
     11  C          7.8990   -2.1850   -1.7800 C.2     1  UNL1        0.1650
     12  O          8.7380   -3.8860   -0.6140 O.2     1  UNL1       -0.4540
     13  O          8.3550   -3.1610   -2.6530 O.2     1  UNL1       -0.4540
     14  C          8.9760   -4.2150   -1.9580 C.3     1  UNL1        0.4680
@<TRIPOS>BOND
     1    13    14    1
     2    13    11    1
     3    14    12    1
     4     9    11    2
     5     9     7    1
     6    11    10    1
     7     7     6    2
     8    12    10    1
     9    10     8    2
    10     6     8    1
    11     6     5    1
    12     3     2    1
    13     5     1    1
    14     2     1    1
    15     2     4    2
