MODEL 1
REMARK VINA RESULT:      -7.6      0.000      0.000
REMARK SMILES CC(=O)CCc1ccc2c(c1)OCO2
REMARK SMILES IDX 4 1 2 2 1 3 3 4 5 5 6 6 7 7 11 8 8 9 10 10 9 11 12 12 14 13
REMARK SMILES IDX 13 14
REMARK H PARENT
REMARK Flexibility Score: inf
ROOT
ATOM      1  C   UNL     1       5.573   1.845   1.320  1.00  0.00     0.080 C 
ENDROOT
BRANCH   1   2
ATOM      2  C   UNL     1       5.113   0.626   2.042  1.00  0.00     0.130 C 
ATOM      3  C   UNL     1       5.989  -0.565   2.200  1.00  0.00     0.087 C 
ATOM      4  O   UNL     1       3.994   0.570   2.527  1.00  0.00    -0.300 OA
ENDBRANCH   1   2
BRANCH   1   5
ATOM      5  C   UNL     1       5.431   1.684  -0.180  1.00  0.00     0.043 C 
BRANCH   5   6
ATOM      6  C   UNL     1       6.590   0.990  -0.768  1.00  0.00    -0.044 A 
ATOM      7  C   UNL     1       7.899   1.438  -0.553  1.00  0.00     0.008 A 
ATOM      8  C   UNL     1       6.394  -0.129  -1.546  1.00  0.00     0.054 A 
ATOM      9  C   UNL     1       8.948   0.745  -1.130  1.00  0.00     0.051 A 
ATOM     10  C   UNL     1       7.458  -0.825  -2.126  1.00  0.00     0.166 A 
ATOM     11  C   UNL     1       8.746  -0.384  -1.916  1.00  0.00     0.165 A 
ATOM     12  O   UNL     1       7.522  -1.946  -2.927  1.00  0.00    -0.454 OA
ATOM     13  O   UNL     1       9.583  -1.253  -2.600  1.00  0.00    -0.454 OA
ATOM     14  C   UNL     1       8.855  -2.309  -3.179  1.00  0.00     0.468 C 
ENDBRANCH   5   6
ENDBRANCH   1   5
TORSDOF 3
ENDMDL
MODEL 2
REMARK VINA RESULT:      -7.4      1.871      2.318
REMARK SMILES CC(=O)CCc1ccc2c(c1)OCO2
REMARK SMILES IDX 4 1 2 2 1 3 3 4 5 5 6 6 7 7 11 8 8 9 10 10 9 11 12 12 14 13
REMARK SMILES IDX 13 14
REMARK H PARENT
REMARK Flexibility Score: inf
ROOT
ATOM      1  C   UNL     1       5.745   1.434  -0.297  1.00  0.00     0.080 C 
ENDROOT
BRANCH   1   2
ATOM      2  C   UNL     1       5.188   1.299   1.078  1.00  0.00     0.130 C 
ATOM      3  C   UNL     1       5.509   0.130   1.939  1.00  0.00     0.087 C 
ATOM      4  O   UNL     1       4.445   2.150   1.539  1.00  0.00    -0.300 OA
ENDBRANCH   1   2
BRANCH   1   5
ATOM      5  C   UNL     1       7.247   1.225  -0.305  1.00  0.00     0.043 C 
BRANCH   5   6
ATOM      6  C   UNL     1       7.614  -0.075  -0.895  1.00  0.00    -0.044 A 
ATOM      7  C   UNL     1       7.705  -0.251  -2.280  1.00  0.00     0.008 A 
ATOM      8  C   UNL     1       7.879  -1.147  -0.073  1.00  0.00     0.054 A 
ATOM      9  C   UNL     1       8.055  -1.494  -2.777  1.00  0.00     0.051 A 
ATOM     10  C   UNL     1       8.234  -2.400  -0.580  1.00  0.00     0.166 A 
ATOM     11  C   UNL     1       8.322  -2.575  -1.943  1.00  0.00     0.165 A 
ATOM     12  O   UNL     1       8.540  -3.604   0.019  1.00  0.00    -0.454 OA
ATOM     13  O   UNL     1       8.685  -3.896  -2.155  1.00  0.00    -0.454 OA
ATOM     14  C   UNL     1       8.923  -4.560  -0.936  1.00  0.00     0.468 C 
ENDBRANCH   5   6
ENDBRANCH   1   5
TORSDOF 3
ENDMDL
MODEL 3
REMARK VINA RESULT:      -7.2      2.061      2.591
REMARK SMILES CC(=O)CCc1ccc2c(c1)OCO2
REMARK SMILES IDX 4 1 2 2 1 3 3 4 5 5 6 6 7 7 11 8 8 9 10 10 9 11 12 12 14 13
REMARK SMILES IDX 13 14
REMARK H PARENT
REMARK Flexibility Score: inf
ROOT
ATOM      1  C   UNL     1       5.547   0.018   1.966  1.00  0.00     0.080 C 
ENDROOT
BRANCH   1   2
ATOM      2  C   UNL     1       4.652   1.165   1.649  1.00  0.00     0.130 C 
ATOM      3  C   UNL     1       4.948   2.101   0.532  1.00  0.00     0.087 C 
ATOM      4  O   UNL     1       3.642   1.371   2.303  1.00  0.00    -0.300 OA
ENDBRANCH   1   2
BRANCH   1   5
ATOM      5  C   UNL     1       6.962   0.275   1.485  1.00  0.00     0.043 C 
BRANCH   5   6
ATOM      6  C   UNL     1       7.367  -0.685   0.442  1.00  0.00    -0.044 A 
ATOM      7  C   UNL     1       7.258  -0.377  -0.919  1.00  0.00     0.008 A 
ATOM      8  C   UNL     1       7.868  -1.915   0.804  1.00  0.00     0.054 A 
ATOM      9  C   UNL     1       7.655  -1.317  -1.853  1.00  0.00     0.051 A 
ATOM     10  C   UNL     1       8.268  -2.861  -0.145  1.00  0.00     0.166 A 
ATOM     11  C   UNL     1       8.160  -2.559  -1.484  1.00  0.00     0.165 A 
ATOM     12  O   UNL     1       8.788  -4.133  -0.041  1.00  0.00    -0.454 OA
ATOM     13  O   UNL     1       8.623  -3.664  -2.182  1.00  0.00    -0.454 OA
ATOM     14  C   UNL     1       9.115  -4.649  -1.305  1.00  0.00     0.468 C 
ENDBRANCH   5   6
ENDBRANCH   1   5
TORSDOF 3
ENDMDL
MODEL 4
REMARK VINA RESULT:      -7.1      1.229      1.418
REMARK SMILES CC(=O)CCc1ccc2c(c1)OCO2
REMARK SMILES IDX 4 1 2 2 1 3 3 4 5 5 6 6 7 7 11 8 8 9 10 10 9 11 12 12 14 13
REMARK SMILES IDX 13 14
REMARK H PARENT
REMARK Flexibility Score: inf
ROOT
ATOM      1  C   UNL     1       6.349   1.246   0.867  1.00  0.00     0.080 C 
ENDROOT
BRANCH   1   2
ATOM      2  C   UNL     1       5.661   0.434   1.909  1.00  0.00     0.130 C 
ATOM      3  C   UNL     1       6.279  -0.794   2.476  1.00  0.00     0.087 C 
ATOM      4  O   UNL     1       4.562   0.757   2.330  1.00  0.00    -0.300 OA
ENDBRANCH   1   2
BRANCH   1   5
ATOM      5  C   UNL     1       5.836   0.911  -0.520  1.00  0.00     0.043 C 
BRANCH   5   6
ATOM      6  C   UNL     1       6.803   0.097  -1.278  1.00  0.00    -0.044 A 
ATOM      7  C   UNL     1       7.520   0.628  -2.357  1.00  0.00     0.008 A 
ATOM      8  C   UNL     1       7.016  -1.215  -0.924  1.00  0.00     0.054 A 
ATOM      9  C   UNL     1       8.415  -0.183  -3.031  1.00  0.00     0.051 A 
ATOM     10  C   UNL     1       7.923  -2.031  -1.608  1.00  0.00     0.166 A 
ATOM     11  C   UNL     1       8.627  -1.510  -2.671  1.00  0.00     0.165 A 
ATOM     12  O   UNL     1       8.306  -3.346  -1.453  1.00  0.00    -0.454 OA
ATOM     13  O   UNL     1       9.438  -2.527  -3.151  1.00  0.00    -0.454 OA
ATOM     14  C   UNL     1       9.333  -3.681  -2.351  1.00  0.00     0.468 C 
ENDBRANCH   5   6
ENDBRANCH   1   5
TORSDOF 3
ENDMDL
MODEL 5
REMARK VINA RESULT:      -6.9      1.924      2.548
REMARK SMILES CC(=O)CCc1ccc2c(c1)OCO2
REMARK SMILES IDX 4 1 2 2 1 3 3 4 5 5 6 6 7 7 11 8 8 9 10 10 9 11 12 12 14 13
REMARK SMILES IDX 13 14
REMARK H PARENT
REMARK Flexibility Score: inf
ROOT
ATOM      1  C   UNL     1       6.875   0.764   0.956  1.00  0.00     0.080 C 
ENDROOT
BRANCH   1   2
ATOM      2  C   UNL     1       5.488   1.138   1.350  1.00  0.00     0.130 C 
ATOM      3  C   UNL     1       4.707   2.150   0.590  1.00  0.00     0.087 C 
ATOM      4  O   UNL     1       4.950   0.620   2.315  1.00  0.00    -0.300 OA
ENDBRANCH   1   2
BRANCH   1   5
ATOM      5  C   UNL     1       7.060   0.838  -0.547  1.00  0.00     0.043 C 
BRANCH   5   6
ATOM      6  C   UNL     1       7.590  -0.423  -1.095  1.00  0.00    -0.044 A 
ATOM      7  C   UNL     1       7.921  -0.552  -2.449  1.00  0.00     0.008 A 
ATOM      8  C   UNL     1       7.770  -1.506  -0.264  1.00  0.00     0.054 A 
ATOM      9  C   UNL     1       8.416  -1.760  -2.906  1.00  0.00     0.051 A 
ATOM     10  C   UNL     1       8.271  -2.725  -0.732  1.00  0.00     0.166 A 
ATOM     11  C   UNL     1       8.596  -2.853  -2.064  1.00  0.00     0.165 A 
ATOM     12  O   UNL     1       8.536  -3.930  -0.116  1.00  0.00    -0.454 OA
ATOM     13  O   UNL     1       9.060  -4.147  -2.240  1.00  0.00    -0.454 OA
ATOM     14  C   UNL     1       9.124  -4.836  -1.014  1.00  0.00     0.468 C 
ENDBRANCH   5   6
ENDBRANCH   1   5
TORSDOF 3
ENDMDL
