@<TRIPOS>MOLECULE
/home/cewinharhar/GITHUB/reincatalyze/data/processed/docking_pred/2023-May-23-1437_sub9_nm5_bs15_s42_ex16_mel10_mts10000_k50_ec02_g099_lra3e-4_lrc1e-3/db57195a81496af8cffcd6b4d9524a1fe0637e4f_ligand_9.pdbqt
 14 15 0 0 0
SMALL
GASTEIGER

@<TRIPOS>ATOM
      1  C          5.4900    1.9280    1.2580 C.3     1  UNL1        0.0800
      2  C          5.0270    0.7170    1.9920 C.2     1  UNL1        0.1300
      3  C          5.8790   -0.4970    2.1110 C.3     1  UNL1        0.0870
      4  O          3.9270    0.6860    2.5190 O.2     1  UNL1       -0.3000
      5  C          5.3750    1.7400   -0.2420 C.3     1  UNL1        0.0430
      6  C          6.5470    1.0390   -0.7970 C.2     1  UNL1       -0.0440
      7  C          7.8520    1.4700   -0.5320 C.2     1  UNL1        0.0080
      8  C          6.3650   -0.0690   -1.5930 C.2     1  UNL1        0.0540
      9  C          8.9130    0.7720   -1.0790 C.2     1  UNL1        0.0510
     10  C          7.4420   -0.7720   -2.1430 C.2     1  UNL1        0.1660
     11  C          8.7260   -0.3470   -1.8840 C.2     1  UNL1        0.1650
     12  O          7.5210   -1.8840   -2.9540 O.2     1  UNL1       -0.4540
     13  O          9.5770   -1.2180   -2.5470 O.2     1  UNL1       -0.4540
     14  C          8.8580   -2.2600   -3.1630 C.3     1  UNL1        0.4680
@<TRIPOS>BOND
     1    14    12    1
     2    14    13    1
     3    12    10    1
     4    13    11    1
     5    10    11    2
     6    10     8    1
     7    11     9    1
     8     8     6    2
     9     9     7    2
    10     6     7    1
    11     6     5    1
    12     5     1    1
    13     1     2    1
    14     2     3    1
    15     2     4    2
