@<TRIPOS>MOLECULE
/home/cewinharhar/GITHUB/reincatalyze/data/processed/docking_pred/2023-May-23-1437_sub9_nm5_bs15_s42_ex16_mel10_mts10000_k50_ec02_g099_lra3e-4_lrc1e-3/db57195a81496af8cffcd6b4d9524a1fe0637e4f_ligand_9.pdbqt
 14 15 0 0 0
SMALL
GASTEIGER

@<TRIPOS>ATOM
      1  C          5.3350   -0.0540    1.9790 C.3     1  UNL1        0.0800
      2  C          4.4480    1.1260    1.7840 C.2     1  UNL1        0.1300
      3  C          4.7290    2.1500    0.7410 C.3     1  UNL1        0.0870
      4  O          3.4580    1.2890    2.4790 O.2     1  UNL1       -0.3000
      5  C          6.7970    0.3380    1.9050 C.3     1  UNL1        0.0430
      6  C          7.3970   -0.0310    0.6110 C.2     1  UNL1       -0.0440
      7  C          7.8910    0.9380   -0.2710 C.2     1  UNL1        0.0080
      8  C          7.4810   -1.3560    0.2500 C.2     1  UNL1        0.0540
      9  C          8.4440    0.5330   -1.4720 C.2     1  UNL1        0.0510
     10  C          8.0410   -1.7610   -0.9650 C.2     1  UNL1        0.1660
     11  C          8.5260   -0.8080   -1.8330 C.2     1  UNL1        0.1650
     12  O          8.2360   -2.9960   -1.5450 O.2     1  UNL1       -0.4540
     13  O          9.0150   -1.4860   -2.9390 O.2     1  UNL1       -0.4540
     14  C          8.9330   -2.8800   -2.7590 C.3     1  UNL1        0.4680
@<TRIPOS>BOND
     1    13    14    1
     2    13    11    1
     3    14    12    1
     4    11     9    2
     5    11    10    1
     6    12    10    1
     7     9     7    1
     8    10     8    2
     9     7     6    2
    10     8     6    1
    11     6     5    1
    12     3     2    1
    13     2     1    1
    14     2     4    2
    15     5     1    1
