MODEL 1
REMARK VINA RESULT:      -7.7      0.000      0.000
REMARK SMILES CC(=O)CCc1ccc2c(c1)OCO2
REMARK SMILES IDX 4 1 2 2 1 3 3 4 5 5 6 6 7 7 11 8 8 9 10 10 9 11 12 12 14 13
REMARK SMILES IDX 13 14
REMARK H PARENT
REMARK Flexibility Score: inf
ROOT
ATOM      1  C   UNL     1       5.490   1.928   1.258  1.00  0.00     0.080 C 
ENDROOT
BRANCH   1   2
ATOM      2  C   UNL     1       5.027   0.717   1.992  1.00  0.00     0.130 C 
ATOM      3  C   UNL     1       5.879  -0.497   2.111  1.00  0.00     0.087 C 
ATOM      4  O   UNL     1       3.927   0.686   2.519  1.00  0.00    -0.300 OA
ENDBRANCH   1   2
BRANCH   1   5
ATOM      5  C   UNL     1       5.375   1.740  -0.242  1.00  0.00     0.043 C 
BRANCH   5   6
ATOM      6  C   UNL     1       6.547   1.039  -0.797  1.00  0.00    -0.044 A 
ATOM      7  C   UNL     1       7.852   1.470  -0.532  1.00  0.00     0.008 A 
ATOM      8  C   UNL     1       6.365  -0.069  -1.593  1.00  0.00     0.054 A 
ATOM      9  C   UNL     1       8.913   0.772  -1.079  1.00  0.00     0.051 A 
ATOM     10  C   UNL     1       7.442  -0.772  -2.143  1.00  0.00     0.166 A 
ATOM     11  C   UNL     1       8.726  -0.347  -1.884  1.00  0.00     0.165 A 
ATOM     12  O   UNL     1       7.521  -1.884  -2.954  1.00  0.00    -0.454 OA
ATOM     13  O   UNL     1       9.577  -1.218  -2.547  1.00  0.00    -0.454 OA
ATOM     14  C   UNL     1       8.858  -2.260  -3.163  1.00  0.00     0.468 C 
ENDBRANCH   5   6
ENDBRANCH   1   5
TORSDOF 3
ENDMDL
MODEL 2
REMARK VINA RESULT:      -7.5      1.931      2.387
REMARK SMILES CC(=O)CCc1ccc2c(c1)OCO2
REMARK SMILES IDX 4 1 2 2 1 3 3 4 5 5 6 6 7 7 11 8 8 9 10 10 9 11 12 12 14 13
REMARK SMILES IDX 13 14
REMARK H PARENT
REMARK Flexibility Score: inf
ROOT
ATOM      1  C   UNL     1       5.716   1.320  -0.277  1.00  0.00     0.080 C 
ENDROOT
BRANCH   1   2
ATOM      2  C   UNL     1       5.119   1.263   1.086  1.00  0.00     0.130 C 
ATOM      3  C   UNL     1       5.398   0.136   2.015  1.00  0.00     0.087 C 
ATOM      4  O   UNL     1       4.376   2.147   1.482  1.00  0.00    -0.300 OA
ENDBRANCH   1   2
BRANCH   1   5
ATOM      5  C   UNL     1       7.215   1.096  -0.231  1.00  0.00     0.043 C 
BRANCH   5   6
ATOM      6  C   UNL     1       7.595  -0.189  -0.844  1.00  0.00    -0.044 A 
ATOM      7  C   UNL     1       7.671  -0.344  -2.233  1.00  0.00     0.008 A 
ATOM      8  C   UNL     1       7.885  -1.268  -0.042  1.00  0.00     0.054 A 
ATOM      9  C   UNL     1       8.034  -1.574  -2.752  1.00  0.00     0.051 A 
ATOM     10  C   UNL     1       8.252  -2.509  -0.571  1.00  0.00     0.166 A 
ATOM     11  C   UNL     1       8.326  -2.663  -1.938  1.00  0.00     0.165 A 
ATOM     12  O   UNL     1       8.583  -3.717   0.007  1.00  0.00    -0.454 OA
ATOM     13  O   UNL     1       8.707  -3.975  -2.173  1.00  0.00    -0.454 OA
ATOM     14  C   UNL     1       8.968  -4.653  -0.967  1.00  0.00     0.468 C 
ENDBRANCH   5   6
ENDBRANCH   1   5
TORSDOF 3
ENDMDL
MODEL 3
REMARK VINA RESULT:      -7.2      2.061      2.631
REMARK SMILES CC(=O)CCc1ccc2c(c1)OCO2
REMARK SMILES IDX 4 1 2 2 1 3 3 4 5 5 6 6 7 7 11 8 8 9 10 10 9 11 12 12 14 13
REMARK SMILES IDX 13 14
REMARK H PARENT
REMARK Flexibility Score: inf
ROOT
ATOM      1  C   UNL     1       5.416  -0.057   2.002  1.00  0.00     0.080 C 
ENDROOT
BRANCH   1   2
ATOM      2  C   UNL     1       4.576   1.150   1.762  1.00  0.00     0.130 C 
ATOM      3  C   UNL     1       4.910   2.135   0.699  1.00  0.00     0.087 C 
ATOM      4  O   UNL     1       3.584   1.367   2.438  1.00  0.00    -0.300 OA
ENDBRANCH   1   2
BRANCH   1   5
ATOM      5  C   UNL     1       6.856   0.184   1.595  1.00  0.00     0.043 C 
BRANCH   5   6
ATOM      6  C   UNL     1       7.285  -0.739   0.529  1.00  0.00    -0.044 A 
ATOM      7  C   UNL     1       7.161  -0.404  -0.824  1.00  0.00     0.008 A 
ATOM      8  C   UNL     1       7.824  -1.961   0.861  1.00  0.00     0.054 A 
ATOM      9  C   UNL     1       7.582  -1.310  -1.781  1.00  0.00     0.051 A 
ATOM     10  C   UNL     1       8.248  -2.873  -0.110  1.00  0.00     0.166 A 
ATOM     11  C   UNL     1       8.126  -2.545  -1.442  1.00  0.00     0.165 A 
ATOM     12  O   UNL     1       8.807  -4.131  -0.037  1.00  0.00    -0.454 OA
ATOM     13  O   UNL     1       8.618  -3.619  -2.166  1.00  0.00    -0.454 OA
ATOM     14  C   UNL     1       9.144  -4.608  -1.314  1.00  0.00     0.468 C 
ENDBRANCH   5   6
ENDBRANCH   1   5
TORSDOF 3
ENDMDL
MODEL 4
REMARK VINA RESULT:      -7.1      1.242      1.432
REMARK SMILES CC(=O)CCc1ccc2c(c1)OCO2
REMARK SMILES IDX 4 1 2 2 1 3 3 4 5 5 6 6 7 7 11 8 8 9 10 10 9 11 12 12 14 13
REMARK SMILES IDX 13 14
REMARK H PARENT
REMARK Flexibility Score: inf
ROOT
ATOM      1  C   UNL     1       6.304   1.306   0.861  1.00  0.00     0.080 C 
ENDROOT
BRANCH   1   2
ATOM      2  C   UNL     1       5.668   0.448   1.898  1.00  0.00     0.130 C 
ATOM      3  C   UNL     1       6.381  -0.713   2.496  1.00  0.00     0.087 C 
ATOM      4  O   UNL     1       4.535   0.674   2.290  1.00  0.00    -0.300 OA
ENDBRANCH   1   2
BRANCH   1   5
ATOM      5  C   UNL     1       5.800   0.959  -0.526  1.00  0.00     0.043 C 
BRANCH   5   6
ATOM      6  C   UNL     1       6.774   0.145  -1.274  1.00  0.00    -0.044 A 
ATOM      7  C   UNL     1       7.512   0.677  -2.337  1.00  0.00     0.008 A 
ATOM      8  C   UNL     1       6.971  -1.172  -0.926  1.00  0.00     0.054 A 
ATOM      9  C   UNL     1       8.413  -0.135  -3.002  1.00  0.00     0.051 A 
ATOM     10  C   UNL     1       7.883  -1.989  -1.601  1.00  0.00     0.166 A 
ATOM     11  C   UNL     1       8.610  -1.466  -2.648  1.00  0.00     0.165 A 
ATOM     12  O   UNL     1       8.255  -3.308  -1.450  1.00  0.00    -0.454 OA
ATOM     13  O   UNL     1       9.421  -2.485  -3.121  1.00  0.00    -0.454 OA
ATOM     14  C   UNL     1       9.294  -3.644  -2.333  1.00  0.00     0.468 C 
ENDBRANCH   5   6
ENDBRANCH   1   5
TORSDOF 3
ENDMDL
MODEL 5
REMARK VINA RESULT:      -6.8      1.269      1.755
REMARK SMILES CC(=O)CCc1ccc2c(c1)OCO2
REMARK SMILES IDX 4 1 2 2 1 3 3 4 5 5 6 6 7 7 11 8 8 9 10 10 9 11 12 12 14 13
REMARK SMILES IDX 13 14
REMARK H PARENT
REMARK Flexibility Score: inf
ROOT
ATOM      1  C   UNL     1       5.335  -0.054   1.979  1.00  0.00     0.080 C 
ENDROOT
BRANCH   1   2
ATOM      2  C   UNL     1       4.448   1.126   1.784  1.00  0.00     0.130 C 
ATOM      3  C   UNL     1       4.729   2.150   0.741  1.00  0.00     0.087 C 
ATOM      4  O   UNL     1       3.458   1.289   2.479  1.00  0.00    -0.300 OA
ENDBRANCH   1   2
BRANCH   1   5
ATOM      5  C   UNL     1       6.797   0.338   1.905  1.00  0.00     0.043 C 
BRANCH   5   6
ATOM      6  C   UNL     1       7.397  -0.031   0.611  1.00  0.00    -0.044 A 
ATOM      7  C   UNL     1       7.891   0.938  -0.271  1.00  0.00     0.008 A 
ATOM      8  C   UNL     1       7.481  -1.356   0.250  1.00  0.00     0.054 A 
ATOM      9  C   UNL     1       8.444   0.533  -1.472  1.00  0.00     0.051 A 
ATOM     10  C   UNL     1       8.041  -1.761  -0.965  1.00  0.00     0.166 A 
ATOM     11  C   UNL     1       8.526  -0.808  -1.833  1.00  0.00     0.165 A 
ATOM     12  O   UNL     1       8.236  -2.996  -1.545  1.00  0.00    -0.454 OA
ATOM     13  O   UNL     1       9.015  -1.486  -2.939  1.00  0.00    -0.454 OA
ATOM     14  C   UNL     1       8.933  -2.880  -2.759  1.00  0.00     0.468 C 
ENDBRANCH   5   6
ENDBRANCH   1   5
TORSDOF 3
ENDMDL
