@<TRIPOS>MOLECULE
/home/cewinharhar/GITHUB/reincatalyze/data/processed/docking_pred/2023-May-23-1437_sub9_nm5_bs15_s42_ex16_mel10_mts10000_k50_ec02_g099_lra3e-4_lrc1e-3/dba3942d2f0306a5a819952336ad453bb769fd78_ligand_9.pdbqt
 14 15 0 0 0
SMALL
GASTEIGER

@<TRIPOS>ATOM
      1  C          5.5510    1.9080    1.2790 C.3     1  UNL1        0.0800
      2  C          5.1070    0.6930    2.0170 C.2     1  UNL1        0.1300
      3  C          6.0000   -0.4840    2.1920 C.3     1  UNL1        0.0870
      4  O          3.9890    0.6280    2.5020 O.2     1  UNL1       -0.3000
      5  C          5.4160    1.7220   -0.2200 C.3     1  UNL1        0.0430
      6  C          6.5810    1.0220   -0.7910 C.2     1  UNL1       -0.0440
      7  C          7.8890    1.4550   -0.5460 C.2     1  UNL1        0.0080
      8  C          6.3890   -0.0880   -1.5820 C.2     1  UNL1        0.0540
      9  C          8.9430    0.7570   -1.1080 C.2     1  UNL1        0.0510
     10  C          7.4580   -0.7900   -2.1470 C.2     1  UNL1        0.1660
     11  C          8.7450   -0.3640   -1.9080 C.2     1  UNL1        0.1650
     12  O          7.5270   -1.9040   -2.9570 O.2     1  UNL1       -0.4540
     13  O          9.5870   -1.2340   -2.5820 O.2     1  UNL1       -0.4540
     14  C          8.8610   -2.2790   -3.1860 C.3     1  UNL1        0.4680
@<TRIPOS>BOND
     1    14    12    1
     2    14    13    1
     3    12    10    1
     4    13    11    1
     5    10    11    2
     6    10     8    1
     7    11     9    1
     8     8     6    2
     9     9     7    2
    10     6     7    1
    11     6     5    1
    12     5     1    1
    13     1     2    1
    14     2     3    1
    15     2     4    2
