@<TRIPOS>MOLECULE
/home/cewinharhar/GITHUB/reincatalyze/data/processed/docking_pred/2023-May-23-1437_sub9_nm5_bs15_s42_ex16_mel10_mts10000_k50_ec02_g099_lra3e-4_lrc1e-3/dba3942d2f0306a5a819952336ad453bb769fd78_ligand_9.pdbqt
 14 15 0 0 0
SMALL
GASTEIGER

@<TRIPOS>ATOM
      1  C          6.3440    1.2260    0.9280 C.3     1  UNL1        0.0800
      2  C          5.6450    0.3890    1.9420 C.2     1  UNL1        0.1300
      3  C          6.2780   -0.8260    2.5220 C.3     1  UNL1        0.0870
      4  O          4.5240    0.6790    2.3290 O.2     1  UNL1       -0.3000
      5  C          5.8340    0.9370   -0.4700 C.3     1  UNL1        0.0430
      6  C          6.7880    0.1200   -1.2410 C.2     1  UNL1       -0.0440
      7  C          7.4750    0.6400   -2.3440 C.2     1  UNL1        0.0080
      8  C          7.0180   -1.1870   -0.8750 C.2     1  UNL1        0.0540
      9  C          8.3580   -0.1740   -3.0290 C.2     1  UNL1        0.0510
     10  C          7.9130   -2.0060   -1.5710 C.2     1  UNL1        0.1660
     11  C          8.5880   -1.4950   -2.6570 C.2     1  UNL1        0.1650
     12  O          8.3080   -3.3170   -1.4080 O.2     1  UNL1       -0.4540
     13  O          9.3940   -2.5130   -3.1430 O.2     1  UNL1       -0.4540
     14  C          9.3150   -3.6570   -2.3260 C.3     1  UNL1        0.4680
@<TRIPOS>BOND
     1    13    11    1
     2    13    14    1
     3     9    11    2
     4     9     7    1
     5    11    10    1
     6     7     6    2
     7    14    12    1
     8    10    12    1
     9    10     8    2
    10     6     8    1
    11     6     5    1
    12     5     1    1
    13     1     2    1
    14     2     4    2
    15     2     3    1
