@<TRIPOS>MOLECULE
/home/cewinharhar/GITHUB/reincatalyze/data/processed/docking_pred/2023-May-23-1437_sub9_nm5_bs15_s42_ex16_mel10_mts10000_k50_ec02_g099_lra3e-4_lrc1e-3/dba3942d2f0306a5a819952336ad453bb769fd78_ligand_9.pdbqt
 14 15 0 0 0
SMALL
GASTEIGER

@<TRIPOS>ATOM
      1  C          5.5820    0.0290    1.9560 C.3     1  UNL1        0.0800
      2  C          4.6730    1.1650    1.6360 C.2     1  UNL1        0.1300
      3  C          4.9480    2.0890    0.5040 C.3     1  UNL1        0.0870
      4  O          3.6700    1.3710    2.2990 O.2     1  UNL1       -0.3000
      5  C          6.9880    0.2900    1.4530 C.3     1  UNL1        0.0430
      6  C          7.3870   -0.6790    0.4180 C.2     1  UNL1       -0.0440
      7  C          7.2830   -0.3810   -0.9450 C.2     1  UNL1        0.0080
      8  C          7.8780   -1.9100    0.7890 C.2     1  UNL1        0.0540
      9  C          7.6740   -1.3300   -1.8720 C.2     1  UNL1        0.0510
     10  C          8.2720   -2.8660   -0.1520 C.2     1  UNL1        0.1660
     11  C          8.1690   -2.5740   -1.4930 C.2     1  UNL1        0.1650
     12  O          8.7830   -4.1420   -0.0380 O.2     1  UNL1       -0.4540
     13  O          8.6240   -3.6870   -2.1830 O.2     1  UNL1       -0.4540
     14  C          9.1080   -4.6700   -1.2980 C.3     1  UNL1        0.4680
@<TRIPOS>BOND
     1    13    11    1
     2    13    14    1
     3     9    11    2
     4     9     7    1
     5    11    10    1
     6    14    12    1
     7     7     6    2
     8    10    12    1
     9    10     8    2
    10     6     8    1
    11     6     5    1
    12     3     2    1
    13     5     1    1
    14     2     1    1
    15     2     4    2
