MODEL 1
REMARK VINA RESULT:      -7.6      0.000      0.000
REMARK SMILES CC(=O)CCc1ccc2c(c1)OCO2
REMARK SMILES IDX 4 1 2 2 1 3 3 4 5 5 6 6 7 7 11 8 8 9 10 10 9 11 12 12 14 13
REMARK SMILES IDX 13 14
REMARK H PARENT
REMARK Flexibility Score: inf
ROOT
ATOM      1  C   UNL     1       5.551   1.908   1.279  1.00  0.00     0.080 C 
ENDROOT
BRANCH   1   2
ATOM      2  C   UNL     1       5.107   0.693   2.017  1.00  0.00     0.130 C 
ATOM      3  C   UNL     1       6.000  -0.484   2.192  1.00  0.00     0.087 C 
ATOM      4  O   UNL     1       3.989   0.628   2.502  1.00  0.00    -0.300 OA
ENDBRANCH   1   2
BRANCH   1   5
ATOM      5  C   UNL     1       5.416   1.722  -0.220  1.00  0.00     0.043 C 
BRANCH   5   6
ATOM      6  C   UNL     1       6.581   1.022  -0.791  1.00  0.00    -0.044 A 
ATOM      7  C   UNL     1       7.889   1.455  -0.546  1.00  0.00     0.008 A 
ATOM      8  C   UNL     1       6.389  -0.088  -1.582  1.00  0.00     0.054 A 
ATOM      9  C   UNL     1       8.943   0.757  -1.108  1.00  0.00     0.051 A 
ATOM     10  C   UNL     1       7.458  -0.790  -2.147  1.00  0.00     0.166 A 
ATOM     11  C   UNL     1       8.745  -0.364  -1.908  1.00  0.00     0.165 A 
ATOM     12  O   UNL     1       7.527  -1.904  -2.957  1.00  0.00    -0.454 OA
ATOM     13  O   UNL     1       9.587  -1.234  -2.582  1.00  0.00    -0.454 OA
ATOM     14  C   UNL     1       8.861  -2.279  -3.186  1.00  0.00     0.468 C 
ENDBRANCH   5   6
ENDBRANCH   1   5
TORSDOF 3
ENDMDL
MODEL 2
REMARK VINA RESULT:      -7.4      1.963      2.408
REMARK SMILES CC(=O)CCc1ccc2c(c1)OCO2
REMARK SMILES IDX 4 1 2 2 1 3 3 4 5 5 6 6 7 7 11 8 8 9 10 10 9 11 12 12 14 13
REMARK SMILES IDX 13 14
REMARK H PARENT
REMARK Flexibility Score: inf
ROOT
ATOM      1  C   UNL     1       5.807   1.354  -0.199  1.00  0.00     0.080 C 
ENDROOT
BRANCH   1   2
ATOM      2  C   UNL     1       5.130   1.243   1.123  1.00  0.00     0.130 C 
ATOM      3  C   UNL     1       5.271   0.031   1.974  1.00  0.00     0.087 C 
ATOM      4  O   UNL     1       4.433   2.150   1.549  1.00  0.00    -0.300 OA
ENDBRANCH   1   2
BRANCH   1   5
ATOM      5  C   UNL     1       7.288   1.050  -0.086  1.00  0.00     0.043 C 
BRANCH   5   6
ATOM      6  C   UNL     1       7.633  -0.229  -0.732  1.00  0.00    -0.044 A 
ATOM      7  C   UNL     1       7.638  -0.369  -2.124  1.00  0.00     0.008 A 
ATOM      8  C   UNL     1       7.964  -1.318   0.043  1.00  0.00     0.054 A 
ATOM      9  C   UNL     1       7.971  -1.594  -2.674  1.00  0.00     0.051 A 
ATOM     10  C   UNL     1       8.301  -2.553  -0.518  1.00  0.00     0.166 A 
ATOM     11  C   UNL     1       8.304  -2.692  -1.888  1.00  0.00     0.165 A 
ATOM     12  O   UNL     1       8.660  -3.767   0.029  1.00  0.00    -0.454 OA
ATOM     13  O   UNL     1       8.670  -4.002  -2.157  1.00  0.00    -0.454 OA
ATOM     14  C   UNL     1       8.993  -4.692  -0.974  1.00  0.00     0.468 C 
ENDBRANCH   5   6
ENDBRANCH   1   5
TORSDOF 3
ENDMDL
MODEL 3
REMARK VINA RESULT:      -7.2      2.084      2.614
REMARK SMILES CC(=O)CCc1ccc2c(c1)OCO2
REMARK SMILES IDX 4 1 2 2 1 3 3 4 5 5 6 6 7 7 11 8 8 9 10 10 9 11 12 12 14 13
REMARK SMILES IDX 13 14
REMARK H PARENT
REMARK Flexibility Score: inf
ROOT
ATOM      1  C   UNL     1       5.582   0.029   1.956  1.00  0.00     0.080 C 
ENDROOT
BRANCH   1   2
ATOM      2  C   UNL     1       4.673   1.165   1.636  1.00  0.00     0.130 C 
ATOM      3  C   UNL     1       4.948   2.089   0.504  1.00  0.00     0.087 C 
ATOM      4  O   UNL     1       3.670   1.371   2.299  1.00  0.00    -0.300 OA
ENDBRANCH   1   2
BRANCH   1   5
ATOM      5  C   UNL     1       6.988   0.290   1.453  1.00  0.00     0.043 C 
BRANCH   5   6
ATOM      6  C   UNL     1       7.387  -0.679   0.418  1.00  0.00    -0.044 A 
ATOM      7  C   UNL     1       7.283  -0.381  -0.945  1.00  0.00     0.008 A 
ATOM      8  C   UNL     1       7.878  -1.910   0.789  1.00  0.00     0.054 A 
ATOM      9  C   UNL     1       7.674  -1.330  -1.872  1.00  0.00     0.051 A 
ATOM     10  C   UNL     1       8.272  -2.866  -0.152  1.00  0.00     0.166 A 
ATOM     11  C   UNL     1       8.169  -2.574  -1.493  1.00  0.00     0.165 A 
ATOM     12  O   UNL     1       8.783  -4.142  -0.038  1.00  0.00    -0.454 OA
ATOM     13  O   UNL     1       8.624  -3.687  -2.183  1.00  0.00    -0.454 OA
ATOM     14  C   UNL     1       9.108  -4.670  -1.298  1.00  0.00     0.468 C 
ENDBRANCH   5   6
ENDBRANCH   1   5
TORSDOF 3
ENDMDL
MODEL 4
REMARK VINA RESULT:      -7.1      1.240      1.438
REMARK SMILES CC(=O)CCc1ccc2c(c1)OCO2
REMARK SMILES IDX 4 1 2 2 1 3 3 4 5 5 6 6 7 7 11 8 8 9 10 10 9 11 12 12 14 13
REMARK SMILES IDX 13 14
REMARK H PARENT
REMARK Flexibility Score: inf
ROOT
ATOM      1  C   UNL     1       6.344   1.226   0.928  1.00  0.00     0.080 C 
ENDROOT
BRANCH   1   2
ATOM      2  C   UNL     1       5.645   0.389   1.942  1.00  0.00     0.130 C 
ATOM      3  C   UNL     1       6.278  -0.826   2.522  1.00  0.00     0.087 C 
ATOM      4  O   UNL     1       4.524   0.679   2.329  1.00  0.00    -0.300 OA
ENDBRANCH   1   2
BRANCH   1   5
ATOM      5  C   UNL     1       5.834   0.937  -0.470  1.00  0.00     0.043 C 
BRANCH   5   6
ATOM      6  C   UNL     1       6.788   0.120  -1.241  1.00  0.00    -0.044 A 
ATOM      7  C   UNL     1       7.475   0.640  -2.344  1.00  0.00     0.008 A 
ATOM      8  C   UNL     1       7.018  -1.187  -0.875  1.00  0.00     0.054 A 
ATOM      9  C   UNL     1       8.358  -0.174  -3.029  1.00  0.00     0.051 A 
ATOM     10  C   UNL     1       7.913  -2.006  -1.571  1.00  0.00     0.166 A 
ATOM     11  C   UNL     1       8.588  -1.495  -2.657  1.00  0.00     0.165 A 
ATOM     12  O   UNL     1       8.308  -3.317  -1.408  1.00  0.00    -0.454 OA
ATOM     13  O   UNL     1       9.394  -2.513  -3.143  1.00  0.00    -0.454 OA
ATOM     14  C   UNL     1       9.315  -3.657  -2.326  1.00  0.00     0.468 C 
ENDBRANCH   5   6
ENDBRANCH   1   5
TORSDOF 3
ENDMDL
MODEL 5
REMARK VINA RESULT:      -7.0      1.996      2.630
REMARK SMILES CC(=O)CCc1ccc2c(c1)OCO2
REMARK SMILES IDX 4 1 2 2 1 3 3 4 5 5 6 6 7 7 11 8 8 9 10 10 9 11 12 12 14 13
REMARK SMILES IDX 13 14
REMARK H PARENT
REMARK Flexibility Score: inf
ROOT
ATOM      1  C   UNL     1       6.757   0.584   1.086  1.00  0.00     0.080 C 
ENDROOT
BRANCH   1   2
ATOM      2  C   UNL     1       5.411   1.169   1.342  1.00  0.00     0.130 C 
ATOM      3  C   UNL     1       4.795   2.149   0.407  1.00  0.00     0.087 C 
ATOM      4  O   UNL     1       4.771   0.860   2.334  1.00  0.00    -0.300 OA
ENDBRANCH   1   2
BRANCH   1   5
ATOM      5  C   UNL     1       7.169   0.764  -0.361  1.00  0.00     0.043 C 
BRANCH   5   6
ATOM      6  C   UNL     1       7.648  -0.497  -0.954  1.00  0.00    -0.044 A 
ATOM      7  C   UNL     1       7.870  -0.623  -2.330  1.00  0.00     0.008 A 
ATOM      8  C   UNL     1       7.887  -1.584  -0.144  1.00  0.00     0.054 A 
ATOM      9  C   UNL     1       8.320  -1.831  -2.830  1.00  0.00     0.051 A 
ATOM     10  C   UNL     1       8.342  -2.804  -0.654  1.00  0.00     0.166 A 
ATOM     11  C   UNL     1       8.560  -2.928  -2.008  1.00  0.00     0.165 A 
ATOM     12  O   UNL     1       8.648  -4.013  -0.066  1.00  0.00    -0.454 OA
ATOM     13  O   UNL     1       9.002  -4.224  -2.225  1.00  0.00    -0.454 OA
ATOM     14  C   UNL     1       9.159  -4.918  -1.011  1.00  0.00     0.468 C 
ENDBRANCH   5   6
ENDBRANCH   1   5
TORSDOF 3
ENDMDL
