MODEL 1
REMARK VINA RESULT:      -7.4      0.000      0.000
REMARK SMILES CC(=O)CCc1ccc2c(c1)OCO2
REMARK SMILES IDX 4 1 2 2 1 3 3 4 5 5 6 6 7 7 11 8 8 9 10 10 9 11 12 12 14 13
REMARK SMILES IDX 13 14
REMARK H PARENT
REMARK Flexibility Score: inf
ROOT
ATOM      1  C   UNL     1       5.677  -0.034   2.029  1.00  0.00     0.080 C 
ENDROOT
BRANCH   1   2
ATOM      2  C   UNL     1       5.358   1.075   1.087  1.00  0.00     0.130 C 
ATOM      3  C   UNL     1       5.864   1.080  -0.312  1.00  0.00     0.087 C 
ATOM      4  O   UNL     1       4.668   2.018   1.439  1.00  0.00    -0.300 OA
ENDBRANCH   1   2
BRANCH   1   5
ATOM      5  C   UNL     1       6.522  -1.100   1.360  1.00  0.00     0.043 C 
BRANCH   5   6
ATOM      6  C   UNL     1       7.656  -1.510   2.208  1.00  0.00    -0.044 A 
ATOM      7  C   UNL     1       7.719  -1.168   3.563  1.00  0.00     0.008 A 
ATOM      8  C   UNL     1       8.681  -2.251   1.664  1.00  0.00     0.054 A 
ATOM      9  C   UNL     1       8.807  -1.582   4.310  1.00  0.00     0.051 A 
ATOM     10  C   UNL     1       9.779  -2.667   2.424  1.00  0.00     0.166 A 
ATOM     11  C   UNL     1       9.842  -2.330   3.757  1.00  0.00     0.165 A 
ATOM     12  O   UNL     1      10.907  -3.399   2.121  1.00  0.00    -0.454 OA
ATOM     13  O   UNL     1      11.021  -2.867   4.251  1.00  0.00    -0.454 OA
ATOM     14  C   UNL     1      11.682  -3.630   3.270  1.00  0.00     0.468 C 
ENDBRANCH   5   6
ENDBRANCH   1   5
TORSDOF 3
ENDMDL
MODEL 2
REMARK VINA RESULT:      -7.4      0.926      1.021
REMARK SMILES CC(=O)CCc1ccc2c(c1)OCO2
REMARK SMILES IDX 4 1 2 2 1 3 3 4 5 5 6 6 7 7 11 8 8 9 10 10 9 11 12 12 14 13
REMARK SMILES IDX 13 14
REMARK H PARENT
REMARK Flexibility Score: inf
ROOT
ATOM      1  C   UNL     1       6.120  -0.866   2.335  1.00  0.00     0.080 C 
ENDROOT
BRANCH   1   2
ATOM      2  C   UNL     1       5.363   0.302   1.803  1.00  0.00     0.130 C 
ATOM      3  C   UNL     1       5.745   0.965   0.528  1.00  0.00     0.087 C 
ATOM      4  O   UNL     1       4.400   0.751   2.404  1.00  0.00    -0.300 OA
ENDBRANCH   1   2
BRANCH   1   5
ATOM      5  C   UNL     1       7.489  -0.974   1.692  1.00  0.00     0.043 C 
BRANCH   5   6
ATOM      6  C   UNL     1       8.497  -1.488   2.635  1.00  0.00    -0.044 A 
ATOM      7  C   UNL     1       8.354  -1.332   4.019  1.00  0.00     0.008 A 
ATOM      8  C   UNL     1       9.609  -2.143   2.156  1.00  0.00     0.054 A 
ATOM      9  C   UNL     1       9.332  -1.837   4.856  1.00  0.00     0.051 A 
ATOM     10  C   UNL     1      10.594  -2.652   3.007  1.00  0.00     0.166 A 
ATOM     11  C   UNL     1      10.455  -2.497   4.368  1.00  0.00     0.165 A 
ATOM     12  O   UNL     1      11.773  -3.330   2.779  1.00  0.00    -0.454 OA
ATOM     13  O   UNL     1      11.562  -3.090   4.954  1.00  0.00    -0.454 OA
ATOM     14  C   UNL     1      12.378  -3.709   3.989  1.00  0.00     0.468 C 
ENDBRANCH   5   6
ENDBRANCH   1   5
TORSDOF 3
ENDMDL
MODEL 3
REMARK VINA RESULT:      -7.2      3.820      4.900
REMARK SMILES CC(=O)CCc1ccc2c(c1)OCO2
REMARK SMILES IDX 4 1 2 2 1 3 3 4 5 5 6 6 7 7 11 8 8 9 10 10 9 11 12 12 14 13
REMARK SMILES IDX 13 14
REMARK H PARENT
REMARK Flexibility Score: inf
ROOT
ATOM      1  C   UNL     1       5.614   1.877   1.348  1.00  0.00     0.080 C 
ENDROOT
BRANCH   1   2
ATOM      2  C   UNL     1       5.113   0.649   2.026  1.00  0.00     0.130 C 
ATOM      3  C   UNL     1       5.955  -0.569   2.159  1.00  0.00     0.087 C 
ATOM      4  O   UNL     1       3.987   0.609   2.496  1.00  0.00    -0.300 OA
ENDBRANCH   1   2
BRANCH   1   5
ATOM      5  C   UNL     1       5.482   1.766  -0.158  1.00  0.00     0.043 C 
BRANCH   5   6
ATOM      6  C   UNL     1       6.622   1.048  -0.756  1.00  0.00    -0.044 A 
ATOM      7  C   UNL     1       7.943   1.453  -0.530  1.00  0.00     0.008 A 
ATOM      8  C   UNL     1       6.394  -0.050  -1.554  1.00  0.00     0.054 A 
ATOM      9  C   UNL     1       8.973   0.740  -1.117  1.00  0.00     0.051 A 
ATOM     10  C   UNL     1       7.439  -0.768  -2.144  1.00  0.00     0.166 A 
ATOM     11  C   UNL     1       8.739  -0.369  -1.923  1.00  0.00     0.165 A 
ATOM     12  O   UNL     1       7.472  -1.875  -2.964  1.00  0.00    -0.454 OA
ATOM     13  O   UNL     1       9.551  -1.250  -2.620  1.00  0.00    -0.454 OA
ATOM     14  C   UNL     1       8.794  -2.274  -3.220  1.00  0.00     0.468 C 
ENDBRANCH   5   6
ENDBRANCH   1   5
TORSDOF 3
ENDMDL
MODEL 4
REMARK VINA RESULT:      -7.1      3.131      4.294
REMARK SMILES CC(=O)CCc1ccc2c(c1)OCO2
REMARK SMILES IDX 4 1 2 2 1 3 3 4 5 5 6 6 7 7 11 8 8 9 10 10 9 11 12 12 14 13
REMARK SMILES IDX 13 14
REMARK H PARENT
REMARK Flexibility Score: inf
ROOT
ATOM      1  C   UNL     1       5.687   1.300  -0.301  1.00  0.00     0.080 C 
ENDROOT
BRANCH   1   2
ATOM      2  C   UNL     1       5.128   1.270   1.079  1.00  0.00     0.130 C 
ATOM      3  C   UNL     1       5.456   0.175   2.031  1.00  0.00     0.087 C 
ATOM      4  O   UNL     1       4.379   2.150   1.471  1.00  0.00    -0.300 OA
ENDBRANCH   1   2
BRANCH   1   5
ATOM      5  C   UNL     1       7.191   1.107  -0.290  1.00  0.00     0.043 C 
BRANCH   5   6
ATOM      6  C   UNL     1       7.582  -0.173  -0.907  1.00  0.00    -0.044 A 
ATOM      7  C   UNL     1       7.685  -0.316  -2.295  1.00  0.00     0.008 A 
ATOM      8  C   UNL     1       7.858  -1.259  -0.108  1.00  0.00     0.054 A 
ATOM      9  C   UNL     1       8.058  -1.542  -2.817  1.00  0.00     0.051 A 
ATOM     10  C   UNL     1       8.235  -2.495  -0.640  1.00  0.00     0.166 A 
ATOM     11  C   UNL     1       8.335  -2.638  -2.006  1.00  0.00     0.165 A 
ATOM     12  O   UNL     1       8.556  -3.707  -0.066  1.00  0.00    -0.454 OA
ATOM     13  O   UNL     1       8.721  -3.948  -2.245  1.00  0.00    -0.454 OA
ATOM     14  C   UNL     1       8.959  -4.635  -1.040  1.00  0.00     0.468 C 
ENDBRANCH   5   6
ENDBRANCH   1   5
TORSDOF 3
ENDMDL
MODEL 5
REMARK VINA RESULT:      -7.0      1.005      1.038
REMARK SMILES CC(=O)CCc1ccc2c(c1)OCO2
REMARK SMILES IDX 4 1 2 2 1 3 3 4 5 5 6 6 7 7 11 8 8 9 10 10 9 11 12 12 14 13
REMARK SMILES IDX 13 14
REMARK H PARENT
REMARK Flexibility Score: inf
ROOT
ATOM      1  C   UNL     1       6.428   0.354   1.541  1.00  0.00     0.080 C 
ENDROOT
BRANCH   1   2
ATOM      2  C   UNL     1       6.012   0.837   0.194  1.00  0.00     0.130 C 
ATOM      3  C   UNL     1       5.221   2.085   0.022  1.00  0.00     0.087 C 
ATOM      4  O   UNL     1       6.311   0.217  -0.813  1.00  0.00    -0.300 OA
ENDBRANCH   1   2
BRANCH   1   5
ATOM      5  C   UNL     1       6.581  -1.154   1.562  1.00  0.00     0.043 C 
BRANCH   5   6
ATOM      6  C   UNL     1       7.746  -1.574   2.361  1.00  0.00    -0.044 A 
ATOM      7  C   UNL     1       7.857  -1.252   3.719  1.00  0.00     0.008 A 
ATOM      8  C   UNL     1       8.752  -2.303   1.770  1.00  0.00     0.054 A 
ATOM      9  C   UNL     1       8.973  -1.674   4.419  1.00  0.00     0.051 A 
ATOM     10  C   UNL     1       9.878  -2.728   2.482  1.00  0.00     0.166 A 
ATOM     11  C   UNL     1       9.989  -2.410   3.818  1.00  0.00     0.165 A 
ATOM     12  O   UNL     1      10.997  -3.451   2.128  1.00  0.00    -0.454 OA
ATOM     13  O   UNL     1      11.186  -2.951   4.260  1.00  0.00    -0.454 OA
ATOM     14  C   UNL     1      11.813  -3.697   3.244  1.00  0.00     0.468 C 
ENDBRANCH   5   6
ENDBRANCH   1   5
TORSDOF 3
ENDMDL
