@<TRIPOS>MOLECULE
/home/cewinharhar/GITHUB/reincatalyze/data/processed/docking_pred/2023-May-23-1437_sub9_nm5_bs15_s42_ex16_mel10_mts10000_k50_ec02_g099_lra3e-4_lrc1e-3/dcca543849eb83a4cf97fda16a0578d2b97a91da_ligand_9.pdbqt
 14 15 0 0 0
SMALL
GASTEIGER

@<TRIPOS>ATOM
      1  C          5.6140    1.8770    1.3480 C.3     1  UNL1        0.0800
      2  C          5.1130    0.6490    2.0260 C.2     1  UNL1        0.1300
      3  C          5.9550   -0.5690    2.1590 C.3     1  UNL1        0.0870
      4  O          3.9870    0.6090    2.4960 O.2     1  UNL1       -0.3000
      5  C          5.4820    1.7660   -0.1580 C.3     1  UNL1        0.0430
      6  C          6.6220    1.0480   -0.7560 C.2     1  UNL1       -0.0440
      7  C          7.9430    1.4530   -0.5300 C.2     1  UNL1        0.0080
      8  C          6.3940   -0.0500   -1.5540 C.2     1  UNL1        0.0540
      9  C          8.9730    0.7400   -1.1170 C.2     1  UNL1        0.0510
     10  C          7.4390   -0.7680   -2.1440 C.2     1  UNL1        0.1660
     11  C          8.7390   -0.3690   -1.9230 C.2     1  UNL1        0.1650
     12  O          7.4720   -1.8750   -2.9640 O.2     1  UNL1       -0.4540
     13  O          9.5510   -1.2500   -2.6200 O.2     1  UNL1       -0.4540
     14  C          8.7940   -2.2740   -3.2200 C.3     1  UNL1        0.4680
@<TRIPOS>BOND
     1    14    12    1
     2    14    13    1
     3    12    10    1
     4    13    11    1
     5    10    11    2
     6    10     8    1
     7    11     9    1
     8     8     6    2
     9     9     7    2
    10     6     7    1
    11     6     5    1
    12     5     1    1
    13     1     2    1
    14     2     3    1
    15     2     4    2
