@<TRIPOS>MOLECULE
/home/cewinharhar/GITHUB/reincatalyze/data/processed/docking_pred/2023-May-23-1437_sub9_nm5_bs15_s42_ex16_mel10_mts10000_k50_ec02_g099_lra3e-4_lrc1e-3/dcca543849eb83a4cf97fda16a0578d2b97a91da_ligand_9.pdbqt
 14 15 0 0 0
SMALL
GASTEIGER

@<TRIPOS>ATOM
      1  C          5.6770   -0.0340    2.0290 C.3     1  UNL1        0.0800
      2  C          5.3580    1.0750    1.0870 C.2     1  UNL1        0.1300
      3  C          5.8640    1.0800   -0.3120 C.3     1  UNL1        0.0870
      4  O          4.6680    2.0180    1.4390 O.2     1  UNL1       -0.3000
      5  C          6.5220   -1.1000    1.3600 C.3     1  UNL1        0.0430
      6  C          7.6560   -1.5100    2.2080 C.2     1  UNL1       -0.0440
      7  C          7.7190   -1.1680    3.5630 C.2     1  UNL1        0.0080
      8  C          8.6810   -2.2510    1.6640 C.2     1  UNL1        0.0540
      9  C          8.8070   -1.5820    4.3100 C.2     1  UNL1        0.0510
     10  C          9.7790   -2.6670    2.4240 C.2     1  UNL1        0.1660
     11  C          9.8420   -2.3300    3.7570 C.2     1  UNL1        0.1650
     12  O         10.9070   -3.3990    2.1210 O.2     1  UNL1       -0.4540
     13  O         11.0210   -2.8670    4.2510 O.2     1  UNL1       -0.4540
     14  C         11.6820   -3.6300    3.2700 C.3     1  UNL1        0.4680
@<TRIPOS>BOND
     1     3     2    1
     2     2     4    2
     3     2     1    1
     4     5     1    1
     5     5     6    1
     6     8     6    2
     7     8    10    1
     8    12    10    1
     9    12    14    1
    10     6     7    1
    11    10    11    2
    12    14    13    1
    13     7     9    2
    14    11    13    1
    15    11     9    1
