@<TRIPOS>MOLECULE
/home/cewinharhar/GITHUB/reincatalyze/data/processed/docking_pred/2023-May-23-1437_sub9_nm5_bs15_s42_ex16_mel10_mts10000_k50_ec02_g099_lra3e-4_lrc1e-3/dcca543849eb83a4cf97fda16a0578d2b97a91da_ligand_9.pdbqt
 14 15 0 0 0
SMALL
GASTEIGER

@<TRIPOS>ATOM
      1  C          6.1200   -0.8660    2.3350 C.3     1  UNL1        0.0800
      2  C          5.3630    0.3020    1.8030 C.2     1  UNL1        0.1300
      3  C          5.7450    0.9650    0.5280 C.3     1  UNL1        0.0870
      4  O          4.4000    0.7510    2.4040 O.2     1  UNL1       -0.3000
      5  C          7.4890   -0.9740    1.6920 C.3     1  UNL1        0.0430
      6  C          8.4970   -1.4880    2.6350 C.2     1  UNL1       -0.0440
      7  C          8.3540   -1.3320    4.0190 C.2     1  UNL1        0.0080
      8  C          9.6090   -2.1430    2.1560 C.2     1  UNL1        0.0540
      9  C          9.3320   -1.8370    4.8560 C.2     1  UNL1        0.0510
     10  C         10.5940   -2.6520    3.0070 C.2     1  UNL1        0.1660
     11  C         10.4550   -2.4970    4.3680 C.2     1  UNL1        0.1650
     12  O         11.7730   -3.3300    2.7790 O.2     1  UNL1       -0.4540
     13  O         11.5620   -3.0900    4.9540 O.2     1  UNL1       -0.4540
     14  C         12.3780   -3.7090    3.9890 C.3     1  UNL1        0.4680
@<TRIPOS>BOND
     1     3     2    1
     2     5     1    1
     3     5     6    1
     4     2     1    1
     5     2     4    2
     6     8     6    2
     7     8    10    1
     8     6     7    1
     9    12    10    1
    10    12    14    1
    11    10    11    2
    12    14    13    1
    13     7     9    2
    14    11     9    1
    15    11    13    1
