@<TRIPOS>MOLECULE
/home/cewinharhar/GITHUB/reincatalyze/data/processed/docking_pred/2023-May-23-1437_sub9_nm5_bs15_s42_ex16_mel10_mts10000_k50_ec02_g099_lra3e-4_lrc1e-3/dcca543849eb83a4cf97fda16a0578d2b97a91da_ligand_9.pdbqt
 14 15 0 0 0
SMALL
GASTEIGER

@<TRIPOS>ATOM
      1  C          5.6870    1.3000   -0.3010 C.3     1  UNL1        0.0800
      2  C          5.1280    1.2700    1.0790 C.2     1  UNL1        0.1300
      3  C          5.4560    0.1750    2.0310 C.3     1  UNL1        0.0870
      4  O          4.3790    2.1500    1.4710 O.2     1  UNL1       -0.3000
      5  C          7.1910    1.1070   -0.2900 C.3     1  UNL1        0.0430
      6  C          7.5820   -0.1730   -0.9070 C.2     1  UNL1       -0.0440
      7  C          7.6850   -0.3160   -2.2950 C.2     1  UNL1        0.0080
      8  C          7.8580   -1.2590   -0.1080 C.2     1  UNL1        0.0540
      9  C          8.0580   -1.5420   -2.8170 C.2     1  UNL1        0.0510
     10  C          8.2350   -2.4950   -0.6400 C.2     1  UNL1        0.1660
     11  C          8.3350   -2.6380   -2.0060 C.2     1  UNL1        0.1650
     12  O          8.5560   -3.7070   -0.0660 O.2     1  UNL1       -0.4540
     13  O          8.7210   -3.9480   -2.2450 O.2     1  UNL1       -0.4540
     14  C          8.9590   -4.6350   -1.0400 C.3     1  UNL1        0.4680
@<TRIPOS>BOND
     1     9     7    1
     2     9    11    2
     3     7     6    2
     4    13    11    1
     5    13    14    1
     6    11    10    1
     7    14    12    1
     8     6     5    1
     9     6     8    1
    10    10     8    2
    11    10    12    1
    12     1     5    1
    13     1     2    1
    14     2     4    2
    15     2     3    1
