@<TRIPOS>MOLECULE
/home/cewinharhar/GITHUB/reincatalyze/data/processed/docking_pred/2023-May-23-1437_sub9_nm5_bs15_s42_ex16_mel10_mts10000_k50_ec02_g099_lra3e-4_lrc1e-3/ddb46e737fe602632681221f3e2121514b9159c3_ligand_9.pdbqt
 14 15 0 0 0
SMALL
GASTEIGER

@<TRIPOS>ATOM
      1  C          5.3330   -0.0590    1.9770 C.3     1  UNL1        0.0800
      2  C          4.4410    1.1190    1.7880 C.2     1  UNL1        0.1300
      3  C          4.7180    2.1500    0.7510 C.3     1  UNL1        0.0870
      4  O          3.4500    1.2740    2.4830 O.2     1  UNL1       -0.3000
      5  C          6.7930    0.3390    1.9020 C.3     1  UNL1        0.0430
      6  C          7.3940   -0.0270    0.6070 C.2     1  UNL1       -0.0440
      7  C          7.8870    0.9440   -0.2720 C.2     1  UNL1        0.0080
      8  C          7.4780   -1.3510    0.2440 C.2     1  UNL1        0.0540
      9  C          8.4410    0.5420   -1.4740 C.2     1  UNL1        0.0510
     10  C          8.0390   -1.7530   -0.9720 C.2     1  UNL1        0.1660
     11  C          8.5240   -0.7990   -1.8380 C.2     1  UNL1        0.1650
     12  O          8.2350   -2.9870   -1.5550 O.2     1  UNL1       -0.4540
     13  O          9.0130   -1.4740   -2.9450 O.2     1  UNL1       -0.4540
     14  C          8.9330   -2.8680   -2.7680 C.3     1  UNL1        0.4680
@<TRIPOS>BOND
     1    13    14    1
     2    13    11    1
     3    14    12    1
     4    11     9    2
     5    11    10    1
     6    12    10    1
     7     9     7    1
     8    10     8    2
     9     7     6    2
    10     8     6    1
    11     6     5    1
    12     3     2    1
    13     2     1    1
    14     2     4    2
    15     5     1    1
