@<TRIPOS>MOLECULE
/home/cewinharhar/GITHUB/reincatalyze/data/processed/docking_pred/2023-May-23-1437_sub9_nm5_bs15_s42_ex16_mel10_mts10000_k50_ec02_g099_lra3e-4_lrc1e-3/dea2b8be3c05a7e32d8e1c0cb085cc688668c765_ligand_9.pdbqt
 14 15 0 0 0
SMALL
GASTEIGER

@<TRIPOS>ATOM
      1  C          6.3160    1.3180    0.8340 C.3     1  UNL1        0.0800
      2  C          5.6580    0.4830    1.8780 C.2     1  UNL1        0.1300
      3  C          6.3200   -0.7230    2.4440 C.3     1  UNL1        0.0870
      4  O          4.5490    0.7660    2.3010 O.2     1  UNL1       -0.3000
      5  C          5.8050    0.9710   -0.5510 C.3     1  UNL1        0.0430
      6  C          6.7780    0.1580   -1.3030 C.2     1  UNL1       -0.0440
      7  C          7.5060    0.6910   -2.3730 C.2     1  UNL1        0.0080
      8  C          6.9840   -1.1570   -0.9530 C.2     1  UNL1        0.0540
      9  C          8.4050   -0.1180   -3.0420 C.2     1  UNL1        0.0510
     10  C          7.8950   -1.9710   -1.6320 C.2     1  UNL1        0.1660
     11  C          8.6110   -1.4480   -2.6860 C.2     1  UNL1        0.1650
     12  O          8.2740   -3.2880   -1.4800 O.2     1  UNL1       -0.4540
     13  O          9.4240   -2.4640   -3.1620 O.2     1  UNL1       -0.4540
     14  C          9.3090   -3.6210   -2.3690 C.3     1  UNL1        0.4680
@<TRIPOS>BOND
     1    13    11    1
     2    13    14    1
     3     9    11    2
     4     9     7    1
     5    11    10    1
     6     7     6    2
     7    14    12    1
     8    10    12    1
     9    10     8    2
    10     6     8    1
    11     6     5    1
    12     5     1    1
    13     1     2    1
    14     2     4    2
    15     2     3    1
