MODEL 1
REMARK VINA RESULT:      -7.6      0.000      0.000
REMARK SMILES CC(=O)CCc1ccc2c(c1)OCO2
REMARK SMILES IDX 4 1 2 2 1 3 3 4 5 5 6 6 7 7 11 8 8 9 10 10 9 11 12 12 14 13
REMARK SMILES IDX 13 14
REMARK H PARENT
REMARK Flexibility Score: inf
ROOT
ATOM      1  C   UNL     1       5.556   1.896   1.290  1.00  0.00     0.080 C 
ENDROOT
BRANCH   1   2
ATOM      2  C   UNL     1       5.122   0.674   2.023  1.00  0.00     0.130 C 
ATOM      3  C   UNL     1       6.023  -0.498   2.190  1.00  0.00     0.087 C 
ATOM      4  O   UNL     1       4.006   0.599   2.511  1.00  0.00    -0.300 OA
ENDBRANCH   1   2
BRANCH   1   5
ATOM      5  C   UNL     1       5.421   1.716  -0.209  1.00  0.00     0.043 C 
BRANCH   5   6
ATOM      6  C   UNL     1       6.584   1.017  -0.783  1.00  0.00    -0.044 A 
ATOM      7  C   UNL     1       7.893   1.451  -0.540  1.00  0.00     0.008 A 
ATOM      8  C   UNL     1       6.392  -0.091  -1.576  1.00  0.00     0.054 A 
ATOM      9  C   UNL     1       8.946   0.755  -1.105  1.00  0.00     0.051 A 
ATOM     10  C   UNL     1       7.460  -0.792  -2.144  1.00  0.00     0.166 A 
ATOM     11  C   UNL     1       8.747  -0.365  -1.907  1.00  0.00     0.165 A 
ATOM     12  O   UNL     1       7.528  -1.904  -2.956  1.00  0.00    -0.454 OA
ATOM     13  O   UNL     1       9.589  -1.234  -2.584  1.00  0.00    -0.454 OA
ATOM     14  C   UNL     1       8.862  -2.277  -3.188  1.00  0.00     0.468 C 
ENDBRANCH   5   6
ENDBRANCH   1   5
TORSDOF 3
ENDMDL
MODEL 2
REMARK VINA RESULT:      -7.5      1.907      2.369
REMARK SMILES CC(=O)CCc1ccc2c(c1)OCO2
REMARK SMILES IDX 4 1 2 2 1 3 3 4 5 5 6 6 7 7 11 8 8 9 10 10 9 11 12 12 14 13
REMARK SMILES IDX 13 14
REMARK H PARENT
REMARK Flexibility Score: inf
ROOT
ATOM      1  C   UNL     1       5.741   1.364  -0.317  1.00  0.00     0.080 C 
ENDROOT
BRANCH   1   2
ATOM      2  C   UNL     1       5.109   1.284   1.029  1.00  0.00     0.130 C 
ATOM      3  C   UNL     1       5.388   0.156   1.957  1.00  0.00     0.087 C 
ATOM      4  O   UNL     1       4.338   2.150   1.412  1.00  0.00    -0.300 OA
ENDBRANCH   1   2
BRANCH   1   5
ATOM      5  C   UNL     1       7.234   1.114  -0.241  1.00  0.00     0.043 C 
BRANCH   5   6
ATOM      6  C   UNL     1       7.606  -0.168  -0.863  1.00  0.00    -0.044 A 
ATOM      7  C   UNL     1       7.683  -0.314  -2.253  1.00  0.00     0.008 A 
ATOM      8  C   UNL     1       7.890  -1.256  -0.069  1.00  0.00     0.054 A 
ATOM      9  C   UNL     1       8.038  -1.542  -2.781  1.00  0.00     0.051 A 
ATOM     10  C   UNL     1       8.250  -2.495  -0.607  1.00  0.00     0.166 A 
ATOM     11  C   UNL     1       8.324  -2.639  -1.975  1.00  0.00     0.165 A 
ATOM     12  O   UNL     1       8.574  -3.708  -0.038  1.00  0.00    -0.454 OA
ATOM     13  O   UNL     1       8.697  -3.951  -2.220  1.00  0.00    -0.454 OA
ATOM     14  C   UNL     1       8.954  -4.639  -1.019  1.00  0.00     0.468 C 
ENDBRANCH   5   6
ENDBRANCH   1   5
TORSDOF 3
ENDMDL
MODEL 3
REMARK VINA RESULT:      -7.2      2.047      2.609
REMARK SMILES CC(=O)CCc1ccc2c(c1)OCO2
REMARK SMILES IDX 4 1 2 2 1 3 3 4 5 5 6 6 7 7 11 8 8 9 10 10 9 11 12 12 14 13
REMARK SMILES IDX 13 14
REMARK H PARENT
REMARK Flexibility Score: inf
ROOT
ATOM      1  C   UNL     1       5.445  -0.034   2.009  1.00  0.00     0.080 C 
ENDROOT
BRANCH   1   2
ATOM      2  C   UNL     1       4.581   1.154   1.765  1.00  0.00     0.130 C 
ATOM      3  C   UNL     1       4.898   2.146   0.703  1.00  0.00     0.087 C 
ATOM      4  O   UNL     1       3.581   1.350   2.437  1.00  0.00    -0.300 OA
ENDBRANCH   1   2
BRANCH   1   5
ATOM      5  C   UNL     1       6.873   0.224   1.570  1.00  0.00     0.043 C 
BRANCH   5   6
ATOM      6  C   UNL     1       7.295  -0.706   0.507  1.00  0.00    -0.044 A 
ATOM      7  C   UNL     1       7.171  -0.376  -0.847  1.00  0.00     0.008 A 
ATOM      8  C   UNL     1       7.827  -1.930   0.844  1.00  0.00     0.054 A 
ATOM      9  C   UNL     1       7.584  -1.289  -1.801  1.00  0.00     0.051 A 
ATOM     10  C   UNL     1       8.244  -2.849  -0.124  1.00  0.00     0.166 A 
ATOM     11  C   UNL     1       8.122  -2.526  -1.457  1.00  0.00     0.165 A 
ATOM     12  O   UNL     1       8.796  -4.110  -0.046  1.00  0.00    -0.454 OA
ATOM     13  O   UNL     1       8.606  -3.606  -2.178  1.00  0.00    -0.454 OA
ATOM     14  C   UNL     1       9.128  -4.595  -1.322  1.00  0.00     0.468 C 
ENDBRANCH   5   6
ENDBRANCH   1   5
TORSDOF 3
ENDMDL
MODEL 4
REMARK VINA RESULT:      -7.1      1.226      1.402
REMARK SMILES CC(=O)CCc1ccc2c(c1)OCO2
REMARK SMILES IDX 4 1 2 2 1 3 3 4 5 5 6 6 7 7 11 8 8 9 10 10 9 11 12 12 14 13
REMARK SMILES IDX 13 14
REMARK H PARENT
REMARK Flexibility Score: inf
ROOT
ATOM      1  C   UNL     1       6.316   1.318   0.834  1.00  0.00     0.080 C 
ENDROOT
BRANCH   1   2
ATOM      2  C   UNL     1       5.658   0.483   1.878  1.00  0.00     0.130 C 
ATOM      3  C   UNL     1       6.320  -0.723   2.444  1.00  0.00     0.087 C 
ATOM      4  O   UNL     1       4.549   0.766   2.301  1.00  0.00    -0.300 OA
ENDBRANCH   1   2
BRANCH   1   5
ATOM      5  C   UNL     1       5.805   0.971  -0.551  1.00  0.00     0.043 C 
BRANCH   5   6
ATOM      6  C   UNL     1       6.778   0.158  -1.303  1.00  0.00    -0.044 A 
ATOM      7  C   UNL     1       7.506   0.691  -2.373  1.00  0.00     0.008 A 
ATOM      8  C   UNL     1       6.984  -1.157  -0.953  1.00  0.00     0.054 A 
ATOM      9  C   UNL     1       8.405  -0.118  -3.042  1.00  0.00     0.051 A 
ATOM     10  C   UNL     1       7.895  -1.971  -1.632  1.00  0.00     0.166 A 
ATOM     11  C   UNL     1       8.611  -1.448  -2.686  1.00  0.00     0.165 A 
ATOM     12  O   UNL     1       8.274  -3.288  -1.480  1.00  0.00    -0.454 OA
ATOM     13  O   UNL     1       9.424  -2.464  -3.162  1.00  0.00    -0.454 OA
ATOM     14  C   UNL     1       9.309  -3.621  -2.369  1.00  0.00     0.468 C 
ENDBRANCH   5   6
ENDBRANCH   1   5
TORSDOF 3
ENDMDL
MODEL 5
REMARK VINA RESULT:      -7.0      1.942      2.505
REMARK SMILES CC(=O)CCc1ccc2c(c1)OCO2
REMARK SMILES IDX 4 1 2 2 1 3 3 4 5 5 6 6 7 7 11 8 8 9 10 10 9 11 12 12 14 13
REMARK SMILES IDX 13 14
REMARK H PARENT
REMARK Flexibility Score: inf
ROOT
ATOM      1  C   UNL     1       6.863   0.924   1.308  1.00  0.00     0.080 C 
ENDROOT
BRANCH   1   2
ATOM      2  C   UNL     1       5.403   1.148   1.497  1.00  0.00     0.130 C 
ATOM      3  C   UNL     1       4.656   2.150   0.690  1.00  0.00     0.087 C 
ATOM      4  O   UNL     1       4.773   0.511   2.326  1.00  0.00    -0.300 OA
ENDBRANCH   1   2
BRANCH   1   5
ATOM      5  C   UNL     1       7.262   1.091  -0.145  1.00  0.00     0.043 C 
BRANCH   5   6
ATOM      6  C   UNL     1       7.582  -0.201  -0.777  1.00  0.00    -0.044 A 
ATOM      7  C   UNL     1       7.524  -0.373  -2.165  1.00  0.00     0.008 A 
ATOM      8  C   UNL     1       7.950  -1.271   0.007  1.00  0.00     0.054 A 
ATOM      9  C   UNL     1       7.836  -1.609  -2.701  1.00  0.00     0.051 A 
ATOM     10  C   UNL     1       8.265  -2.518  -0.540  1.00  0.00     0.166 A 
ATOM     11  C   UNL     1       8.207  -2.689  -1.906  1.00  0.00     0.165 A 
ATOM     12  O   UNL     1       8.651  -3.719   0.017  1.00  0.00    -0.454 OA
ATOM     13  O   UNL     1       8.564  -4.004  -2.161  1.00  0.00    -0.454 OA
ATOM     14  C   UNL     1       8.941  -4.667  -0.978  1.00  0.00     0.468 C 
ENDBRANCH   5   6
ENDBRANCH   1   5
TORSDOF 3
ENDMDL
