@<TRIPOS>MOLECULE
/home/cewinharhar/GITHUB/reincatalyze/data/processed/docking_pred/2023-May-23-1437_sub9_nm5_bs15_s42_ex16_mel10_mts10000_k50_ec02_g099_lra3e-4_lrc1e-3/dea2b8be3c05a7e32d8e1c0cb085cc688668c765_ligand_9.pdbqt
 14 15 0 0 0
SMALL
GASTEIGER

@<TRIPOS>ATOM
      1  C          5.5560    1.8960    1.2900 C.3     1  UNL1        0.0800
      2  C          5.1220    0.6740    2.0230 C.2     1  UNL1        0.1300
      3  C          6.0230   -0.4980    2.1900 C.3     1  UNL1        0.0870
      4  O          4.0060    0.5990    2.5110 O.2     1  UNL1       -0.3000
      5  C          5.4210    1.7160   -0.2090 C.3     1  UNL1        0.0430
      6  C          6.5840    1.0170   -0.7830 C.2     1  UNL1       -0.0440
      7  C          7.8930    1.4510   -0.5400 C.2     1  UNL1        0.0080
      8  C          6.3920   -0.0910   -1.5760 C.2     1  UNL1        0.0540
      9  C          8.9460    0.7550   -1.1050 C.2     1  UNL1        0.0510
     10  C          7.4600   -0.7920   -2.1440 C.2     1  UNL1        0.1660
     11  C          8.7470   -0.3650   -1.9070 C.2     1  UNL1        0.1650
     12  O          7.5280   -1.9040   -2.9560 O.2     1  UNL1       -0.4540
     13  O          9.5890   -1.2340   -2.5840 O.2     1  UNL1       -0.4540
     14  C          8.8620   -2.2770   -3.1880 C.3     1  UNL1        0.4680
@<TRIPOS>BOND
     1    14    12    1
     2    14    13    1
     3    12    10    1
     4    13    11    1
     5    10    11    2
     6    10     8    1
     7    11     9    1
     8     8     6    2
     9     9     7    2
    10     6     7    1
    11     6     5    1
    12     5     1    1
    13     1     2    1
    14     2     3    1
    15     2     4    2
