@<TRIPOS>MOLECULE
/home/cewinharhar/GITHUB/reincatalyze/data/processed/docking_pred/2023-May-23-1437_sub9_nm5_bs15_s42_ex16_mel10_mts10000_k50_ec02_g099_lra3e-4_lrc1e-3/e1ac879641feb84a16575019a922afe40680d27c_ligand_9.pdbqt
 14 15 0 0 0
SMALL
GASTEIGER

@<TRIPOS>ATOM
      1  C          8.3330    0.2040   -2.6500 C.3     1  UNL1        0.0800
      2  C          8.0460   -1.2540   -2.7480 C.2     1  UNL1        0.1300
      3  C          9.1180   -2.2430   -3.0420 C.3     1  UNL1        0.0870
      4  O          6.9150   -1.6820   -2.5900 O.2     1  UNL1       -0.3000
      5  C          8.8540    0.5710   -1.2740 C.3     1  UNL1        0.0430
      6  C          7.8150    0.4240   -0.2390 C.2     1  UNL1       -0.0440
      7  C          7.9120   -0.5450    0.7650 C.2     1  UNL1        0.0080
      8  C          6.7190    1.2580   -0.2500 C.2     1  UNL1        0.0540
      9  C          6.9060   -0.6360    1.7100 C.2     1  UNL1        0.0510
     10  C          5.7050    1.1630    0.7080 C.2     1  UNL1        0.1660
     11  C          5.8000    0.2080    1.6960 C.2     1  UNL1        0.1650
     12  O          4.5340    1.8620    0.9090 O.2     1  UNL1       -0.4540
     13  O          4.6730    0.3430    2.4920 O.2     1  UNL1       -0.4540
     14  C          3.8900    1.4380    2.0830 C.3     1  UNL1        0.4680
@<TRIPOS>BOND
     1     3     2    1
     2     2     1    1
     3     2     4    2
     4     1     5    1
     5     5     6    1
     6     8     6    2
     7     8    10    1
     8     6     7    1
     9    10    12    1
    10    10    11    2
    11     7     9    2
    12    12    14    1
    13    11     9    1
    14    11    13    1
    15    14    13    1
