@<TRIPOS>MOLECULE
/home/cewinharhar/GITHUB/reincatalyze/data/processed/docking_pred/2023-May-23-1437_sub9_nm5_bs15_s42_ex16_mel10_mts10000_k50_ec02_g099_lra3e-4_lrc1e-3/e25bbeeb226b659c1020d17bcfddf5bb3560bc0d_ligand_9.pdbqt
 14 15 0 0 0
SMALL
GASTEIGER

@<TRIPOS>ATOM
      1  C          5.6300    1.0840   -0.4030 C.3     1  UNL1        0.0800
      2  C          5.1680    1.1820    1.0100 C.2     1  UNL1        0.1300
      3  C          5.5400    0.1610    2.0250 C.3     1  UNL1        0.0870
      4  O          4.4660    2.1100    1.3760 O.2     1  UNL1       -0.3000
      5  C          7.1420    1.0180   -0.4850 C.3     1  UNL1        0.0430
      6  C          7.6050   -0.2680   -1.0360 C.2     1  UNL1       -0.0440
      7  C          7.8470   -0.4350   -2.4040 C.2     1  UNL1        0.0080
      8  C          7.8080   -1.3370   -0.1930 C.2     1  UNL1        0.0540
      9  C          8.2810   -1.6650   -2.8630 C.2     1  UNL1        0.0510
     10  C          8.2480   -2.5790   -0.6620 C.2     1  UNL1        0.1660
     11  C          8.4850   -2.7440   -2.0090 C.2     1  UNL1        0.1650
     12  O          8.5200   -3.7770   -0.0370 O.2     1  UNL1       -0.4540
     13  O          8.9040   -4.0540   -2.1840 O.2     1  UNL1       -0.4540
     14  C          9.0270   -4.7180   -0.9480 C.3     1  UNL1        0.4680
@<TRIPOS>BOND
     1     9     7    1
     2     9    11    2
     3     7     6    2
     4    13    11    1
     5    13    14    1
     6    11    10    1
     7     6     5    1
     8     6     8    1
     9    14    12    1
    10    10     8    2
    11    10    12    1
    12     5     1    1
    13     1     2    1
    14     2     4    2
    15     2     3    1
