@<TRIPOS>MOLECULE
/home/cewinharhar/GITHUB/reincatalyze/data/processed/docking_pred/2023-May-23-1437_sub9_nm5_bs15_s42_ex16_mel10_mts10000_k50_ec02_g099_lra3e-4_lrc1e-3/e3e0f9713a2c6d1770d60d03407d62bfa70f046f_ligand_9.pdbqt
 14 15 0 0 0
SMALL
GASTEIGER

@<TRIPOS>ATOM
      1  C          5.5700   -0.0040    1.9840 C.3     1  UNL1        0.0800
      2  C          4.6760    1.1380    1.6420 C.2     1  UNL1        0.1300
      3  C          4.9930    2.0720    0.5290 C.3     1  UNL1        0.0870
      4  O          3.6500    1.3400    2.2710 O.2     1  UNL1       -0.3000
      5  C          6.9870    0.2440    1.5060 C.3     1  UNL1        0.0430
      6  C          7.3880   -0.7170    0.4630 C.2     1  UNL1       -0.0440
      7  C          7.2730   -0.4130   -0.8980 C.2     1  UNL1        0.0080
      8  C          7.8910   -1.9460    0.8260 C.2     1  UNL1        0.0540
      9  C          7.6660   -1.3550   -1.8320 C.2     1  UNL1        0.0510
     10  C          8.2880   -2.8940   -0.1220 C.2     1  UNL1        0.1660
     11  C          8.1740   -2.5960   -1.4620 C.2     1  UNL1        0.1650
     12  O          8.8100   -4.1660   -0.0170 O.2     1  UNL1       -0.4540
     13  O          8.6340   -3.7020   -2.1590 O.2     1  UNL1       -0.4540
     14  C          9.1320   -4.6850   -1.2820 C.3     1  UNL1        0.4680
@<TRIPOS>BOND
     1    13    11    1
     2    13    14    1
     3     9    11    2
     4     9     7    1
     5    11    10    1
     6    14    12    1
     7     7     6    2
     8    10    12    1
     9    10     8    2
    10     6     8    1
    11     6     5    1
    12     3     2    1
    13     5     1    1
    14     2     1    1
    15     2     4    2
