MODEL 1
REMARK VINA RESULT:      -7.6      0.000      0.000
REMARK SMILES CC(=O)CCc1ccc2c(c1)OCO2
REMARK SMILES IDX 4 1 2 2 1 3 3 4 5 5 6 6 7 7 11 8 8 9 10 10 9 11 12 12 14 13
REMARK SMILES IDX 13 14
REMARK H PARENT
REMARK Flexibility Score: inf
ROOT
ATOM      1  C   UNL     1       5.535   1.932   1.260  1.00  0.00     0.080 C 
ENDROOT
BRANCH   1   2
ATOM      2  C   UNL     1       5.113   0.713   2.004  1.00  0.00     0.130 C 
ATOM      3  C   UNL     1       6.027  -0.446   2.187  1.00  0.00     0.087 C 
ATOM      4  O   UNL     1       3.996   0.630   2.488  1.00  0.00    -0.300 OA
ENDBRANCH   1   2
BRANCH   1   5
ATOM      5  C   UNL     1       5.407   1.734  -0.238  1.00  0.00     0.043 C 
BRANCH   5   6
ATOM      6  C   UNL     1       6.573   1.027  -0.797  1.00  0.00    -0.044 A 
ATOM      7  C   UNL     1       7.881   1.451  -0.540  1.00  0.00     0.008 A 
ATOM      8  C   UNL     1       6.382  -0.081  -1.591  1.00  0.00     0.054 A 
ATOM      9  C   UNL     1       8.936   0.747  -1.091  1.00  0.00     0.051 A 
ATOM     10  C   UNL     1       7.451  -0.790  -2.146  1.00  0.00     0.166 A 
ATOM     11  C   UNL     1       8.739  -0.372  -1.894  1.00  0.00     0.165 A 
ATOM     12  O   UNL     1       7.522  -1.904  -2.956  1.00  0.00    -0.454 OA
ATOM     13  O   UNL     1       9.582  -1.248  -2.560  1.00  0.00    -0.454 OA
ATOM     14  C   UNL     1       8.856  -2.287  -3.171  1.00  0.00     0.468 C 
ENDBRANCH   5   6
ENDBRANCH   1   5
TORSDOF 3
ENDMDL
MODEL 2
REMARK VINA RESULT:      -7.4      1.868      2.320
REMARK SMILES CC(=O)CCc1ccc2c(c1)OCO2
REMARK SMILES IDX 4 1 2 2 1 3 3 4 5 5 6 6 7 7 11 8 8 9 10 10 9 11 12 12 14 13
REMARK SMILES IDX 13 14
REMARK H PARENT
REMARK Flexibility Score: inf
ROOT
ATOM      1  C   UNL     1       5.749   1.428  -0.273  1.00  0.00     0.080 C 
ENDROOT
BRANCH   1   2
ATOM      2  C   UNL     1       5.133   1.289   1.076  1.00  0.00     0.130 C 
ATOM      3  C   UNL     1       5.397   0.104   1.936  1.00  0.00     0.087 C 
ATOM      4  O   UNL     1       4.388   2.149   1.517  1.00  0.00    -0.300 OA
ENDBRANCH   1   2
BRANCH   1   5
ATOM      5  C   UNL     1       7.242   1.175  -0.225  1.00  0.00     0.043 C 
BRANCH   5   6
ATOM      6  C   UNL     1       7.600  -0.106  -0.860  1.00  0.00    -0.044 A 
ATOM      7  C   UNL     1       7.633  -0.251  -2.252  1.00  0.00     0.008 A 
ATOM      8  C   UNL     1       7.914  -1.192  -0.075  1.00  0.00     0.054 A 
ATOM      9  C   UNL     1       7.977  -1.477  -2.791  1.00  0.00     0.051 A 
ATOM     10  C   UNL     1       8.262  -2.430  -0.625  1.00  0.00     0.166 A 
ATOM     11  C   UNL     1       8.293  -2.573  -1.995  1.00  0.00     0.165 A 
ATOM     12  O   UNL     1       8.609  -3.642  -0.068  1.00  0.00    -0.454 OA
ATOM     13  O   UNL     1       8.663  -3.884  -2.252  1.00  0.00    -0.454 OA
ATOM     14  C   UNL     1       8.961  -4.571  -1.060  1.00  0.00     0.468 C 
ENDBRANCH   5   6
ENDBRANCH   1   5
TORSDOF 3
ENDMDL
MODEL 3
REMARK VINA RESULT:      -7.2      2.092      2.637
REMARK SMILES CC(=O)CCc1ccc2c(c1)OCO2
REMARK SMILES IDX 4 1 2 2 1 3 3 4 5 5 6 6 7 7 11 8 8 9 10 10 9 11 12 12 14 13
REMARK SMILES IDX 13 14
REMARK H PARENT
REMARK Flexibility Score: inf
ROOT
ATOM      1  C   UNL     1       5.570  -0.004   1.984  1.00  0.00     0.080 C 
ENDROOT
BRANCH   1   2
ATOM      2  C   UNL     1       4.676   1.138   1.642  1.00  0.00     0.130 C 
ATOM      3  C   UNL     1       4.993   2.072   0.529  1.00  0.00     0.087 C 
ATOM      4  O   UNL     1       3.650   1.340   2.271  1.00  0.00    -0.300 OA
ENDBRANCH   1   2
BRANCH   1   5
ATOM      5  C   UNL     1       6.987   0.244   1.506  1.00  0.00     0.043 C 
BRANCH   5   6
ATOM      6  C   UNL     1       7.388  -0.717   0.463  1.00  0.00    -0.044 A 
ATOM      7  C   UNL     1       7.273  -0.413  -0.898  1.00  0.00     0.008 A 
ATOM      8  C   UNL     1       7.891  -1.946   0.826  1.00  0.00     0.054 A 
ATOM      9  C   UNL     1       7.666  -1.355  -1.832  1.00  0.00     0.051 A 
ATOM     10  C   UNL     1       8.288  -2.894  -0.122  1.00  0.00     0.166 A 
ATOM     11  C   UNL     1       8.174  -2.596  -1.462  1.00  0.00     0.165 A 
ATOM     12  O   UNL     1       8.810  -4.166  -0.017  1.00  0.00    -0.454 OA
ATOM     13  O   UNL     1       8.634  -3.702  -2.159  1.00  0.00    -0.454 OA
ATOM     14  C   UNL     1       9.132  -4.685  -1.282  1.00  0.00     0.468 C 
ENDBRANCH   5   6
ENDBRANCH   1   5
TORSDOF 3
ENDMDL
MODEL 4
REMARK VINA RESULT:      -7.1      1.257      1.473
REMARK SMILES CC(=O)CCc1ccc2c(c1)OCO2
REMARK SMILES IDX 4 1 2 2 1 3 3 4 5 5 6 6 7 7 11 8 8 9 10 10 9 11 12 12 14 13
REMARK SMILES IDX 13 14
REMARK H PARENT
REMARK Flexibility Score: inf
ROOT
ATOM      1  C   UNL     1       6.412   1.194   0.938  1.00  0.00     0.080 C 
ENDROOT
BRANCH   1   2
ATOM      2  C   UNL     1       5.678   0.357   1.928  1.00  0.00     0.130 C 
ATOM      3  C   UNL     1       6.272  -0.883   2.495  1.00  0.00     0.087 C 
ATOM      4  O   UNL     1       4.559   0.668   2.304  1.00  0.00    -0.300 OA
ENDBRANCH   1   2
BRANCH   1   5
ATOM      5  C   UNL     1       5.907   0.951  -0.470  1.00  0.00     0.043 C 
BRANCH   5   6
ATOM      6  C   UNL     1       6.837   0.113  -1.247  1.00  0.00    -0.044 A 
ATOM      7  C   UNL     1       7.514   0.612  -2.366  1.00  0.00     0.008 A 
ATOM      8  C   UNL     1       7.055  -1.193  -0.871  1.00  0.00     0.054 A 
ATOM      9  C   UNL     1       8.376  -0.221  -3.056  1.00  0.00     0.051 A 
ATOM     10  C   UNL     1       7.928  -2.031  -1.572  1.00  0.00     0.166 A 
ATOM     11  C   UNL     1       8.593  -1.541  -2.673  1.00  0.00     0.165 A 
ATOM     12  O   UNL     1       8.308  -3.345  -1.402  1.00  0.00    -0.454 OA
ATOM     13  O   UNL     1       9.377  -2.575  -3.161  1.00  0.00    -0.454 OA
ATOM     14  C   UNL     1       9.296  -3.709  -2.331  1.00  0.00     0.468 C 
ENDBRANCH   5   6
ENDBRANCH   1   5
TORSDOF 3
ENDMDL
MODEL 5
REMARK VINA RESULT:      -7.0      1.940      2.502
REMARK SMILES CC(=O)CCc1ccc2c(c1)OCO2
REMARK SMILES IDX 4 1 2 2 1 3 3 4 5 5 6 6 7 7 11 8 8 9 10 10 9 11 12 12 14 13
REMARK SMILES IDX 13 14
REMARK H PARENT
REMARK Flexibility Score: inf
ROOT
ATOM      1  C   UNL     1       6.863   0.924   1.308  1.00  0.00     0.080 C 
ENDROOT
BRANCH   1   2
ATOM      2  C   UNL     1       5.403   1.148   1.497  1.00  0.00     0.130 C 
ATOM      3  C   UNL     1       4.656   2.150   0.690  1.00  0.00     0.087 C 
ATOM      4  O   UNL     1       4.773   0.511   2.326  1.00  0.00    -0.300 OA
ENDBRANCH   1   2
BRANCH   1   5
ATOM      5  C   UNL     1       7.262   1.091  -0.145  1.00  0.00     0.043 C 
BRANCH   5   6
ATOM      6  C   UNL     1       7.582  -0.201  -0.777  1.00  0.00    -0.044 A 
ATOM      7  C   UNL     1       7.524  -0.373  -2.165  1.00  0.00     0.008 A 
ATOM      8  C   UNL     1       7.950  -1.271   0.007  1.00  0.00     0.054 A 
ATOM      9  C   UNL     1       7.836  -1.609  -2.701  1.00  0.00     0.051 A 
ATOM     10  C   UNL     1       8.265  -2.518  -0.540  1.00  0.00     0.166 A 
ATOM     11  C   UNL     1       8.207  -2.689  -1.906  1.00  0.00     0.165 A 
ATOM     12  O   UNL     1       8.651  -3.719   0.017  1.00  0.00    -0.454 OA
ATOM     13  O   UNL     1       8.564  -4.004  -2.161  1.00  0.00    -0.454 OA
ATOM     14  C   UNL     1       8.941  -4.667  -0.978  1.00  0.00     0.468 C 
ENDBRANCH   5   6
ENDBRANCH   1   5
TORSDOF 3
ENDMDL
