@<TRIPOS>MOLECULE
/home/cewinharhar/GITHUB/reincatalyze/data/processed/docking_pred/2023-May-23-1437_sub9_nm5_bs15_s42_ex16_mel10_mts10000_k50_ec02_g099_lra3e-4_lrc1e-3/e3e0f9713a2c6d1770d60d03407d62bfa70f046f_ligand_9.pdbqt
 14 15 0 0 0
SMALL
GASTEIGER

@<TRIPOS>ATOM
      1  C          5.7490    1.4280   -0.2730 C.3     1  UNL1        0.0800
      2  C          5.1330    1.2890    1.0760 C.2     1  UNL1        0.1300
      3  C          5.3970    0.1040    1.9360 C.3     1  UNL1        0.0870
      4  O          4.3880    2.1490    1.5170 O.2     1  UNL1       -0.3000
      5  C          7.2420    1.1750   -0.2250 C.3     1  UNL1        0.0430
      6  C          7.6000   -0.1060   -0.8600 C.2     1  UNL1       -0.0440
      7  C          7.6330   -0.2510   -2.2520 C.2     1  UNL1        0.0080
      8  C          7.9140   -1.1920   -0.0750 C.2     1  UNL1        0.0540
      9  C          7.9770   -1.4770   -2.7910 C.2     1  UNL1        0.0510
     10  C          8.2620   -2.4300   -0.6250 C.2     1  UNL1        0.1660
     11  C          8.2930   -2.5730   -1.9950 C.2     1  UNL1        0.1650
     12  O          8.6090   -3.6420   -0.0680 O.2     1  UNL1       -0.4540
     13  O          8.6630   -3.8840   -2.2520 O.2     1  UNL1       -0.4540
     14  C          8.9610   -4.5710   -1.0600 C.3     1  UNL1        0.4680
@<TRIPOS>BOND
     1     9     7    1
     2     9    11    2
     3     7     6    2
     4    13    11    1
     5    13    14    1
     6    11    10    1
     7    14    12    1
     8     6     5    1
     9     6     8    1
    10    10     8    2
    11    10    12    1
    12     1     5    1
    13     1     2    1
    14     2     4    2
    15     2     3    1
