@<TRIPOS>MOLECULE
/home/cewinharhar/GITHUB/reincatalyze/data/processed/docking_pred/2023-May-23-1437_sub9_nm5_bs15_s42_ex16_mel10_mts10000_k50_ec02_g099_lra3e-4_lrc1e-3/e3fbdfe9b196bdc40f83d7817e536621cd4b8c1b_ligand_9.pdbqt
 14 15 0 0 0
SMALL
GASTEIGER

@<TRIPOS>ATOM
      1  C          8.7890   -4.7780   -0.3740 C.3     1  UNL1        0.0800
      2  C          9.5180   -4.6790   -1.6700 C.2     1  UNL1        0.1300
      3  C         10.3360   -5.8060   -2.1930 C.3     1  UNL1        0.0870
      4  O          9.4640   -3.6630   -2.3430 O.2     1  UNL1       -0.3000
      5  C          9.5350   -4.0610    0.7330 C.3     1  UNL1        0.0430
      6  C          8.8770   -2.7950    1.1050 C.2     1  UNL1       -0.0440
      7  C          9.5990   -1.6020    1.2230 C.2     1  UNL1        0.0080
      8  C          7.5220   -2.7740    1.3400 C.2     1  UNL1        0.0540
      9  C          8.9280   -0.4440    1.5740 C.2     1  UNL1        0.0510
     10  C          6.8480   -1.6010    1.6940 C.2     1  UNL1        0.1660
     11  C          7.5570   -0.4270    1.8120 C.2     1  UNL1        0.1650
     12  O          5.5270   -1.3250    1.9770 O.2     1  UNL1       -0.4540
     13  O          6.6470    0.5570    2.1680 O.2     1  UNL1       -0.4540
     14  C          5.3340    0.0490    2.1940 C.3     1  UNL1        0.4680
@<TRIPOS>BOND
     1     4     2    2
     2     3     2    1
     3     2     1    1
     4     1     5    1
     5     5     6    1
     6     6     7    2
     7     6     8    1
     8     7     9    1
     9     8    10    2
    10     9    11    2
    11    10    11    1
    12    10    12    1
    13    11    13    1
    14    12    14    1
    15    13    14    1
