@<TRIPOS>MOLECULE
/home/cewinharhar/GITHUB/reincatalyze/data/processed/docking_pred/2023-May-23-1437_sub9_nm5_bs15_s42_ex16_mel10_mts10000_k50_ec02_g099_lra3e-4_lrc1e-3/e3fbdfe9b196bdc40f83d7817e536621cd4b8c1b_ligand_9.pdbqt
 14 15 0 0 0
SMALL
GASTEIGER

@<TRIPOS>ATOM
      1  C          7.9330   -3.1370    0.7460 C.3     1  UNL1        0.0800
      2  C          9.0740   -4.0520    0.4650 C.2     1  UNL1        0.1300
      3  C          9.1550   -4.8330   -0.7990 C.3     1  UNL1        0.0870
      4  O          9.9810   -4.1890    1.2700 O.2     1  UNL1       -0.3000
      5  C          8.2790   -2.1460    1.8390 C.3     1  UNL1        0.0430
      6  C          7.3710   -0.9840    1.8310 C.2     1  UNL1       -0.0440
      7  C          7.8290    0.3020    1.5220 C.2     1  UNL1        0.0080
      8  C          6.0390   -1.1570    2.1300 C.2     1  UNL1        0.0540
      9  C          6.9320    1.3530    1.5290 C.2     1  UNL1        0.0510
     10  C          5.1350   -0.0910    2.1350 C.2     1  UNL1        0.1660
     11  C          5.5850    1.1750    1.8330 C.2     1  UNL1        0.1650
     12  O          3.7840   -0.0050    2.3960 O.2     1  UNL1       -0.4540
     13  O          4.4900    2.0200    1.9140 O.2     1  UNL1       -0.4540
     14  C          3.3100    1.2990    2.1790 C.3     1  UNL1        0.4680
@<TRIPOS>BOND
     1     3     2    1
     2     2     1    1
     3     2     4    2
     4     1     5    1
     5     7     9    1
     6     7     6    2
     7     9    11    2
     8     6     5    1
     9     6     8    1
    10    11    13    1
    11    11    10    1
    12    13    14    1
    13     8    10    2
    14    10    12    1
    15    14    12    1
