@<TRIPOS>MOLECULE
/home/cewinharhar/GITHUB/reincatalyze/data/processed/docking_pred/2023-May-23-1437_sub9_nm5_bs15_s42_ex16_mel10_mts10000_k50_ec02_g099_lra3e-4_lrc1e-3/e3fbdfe9b196bdc40f83d7817e536621cd4b8c1b_ligand_9.pdbqt
 14 15 0 0 0
SMALL
GASTEIGER

@<TRIPOS>ATOM
      1  C          6.5330    2.1350    1.3830 C.3     1  UNL1        0.0800
      2  C          5.2350    2.1380    0.6530 C.2     1  UNL1        0.1300
      3  C          5.1740    2.1270   -0.8330 C.3     1  UNL1        0.0870
      4  O          4.1750    2.1500    1.2590 O.2     1  UNL1       -0.3000
      5  C          6.5090    1.1630    2.5460 C.3     1  UNL1        0.0430
      6  C          6.9010   -0.1950    2.1300 C.2     1  UNL1       -0.0440
      7  C          5.9680   -1.2370    2.0580 C.2     1  UNL1        0.0080
      8  C          8.2110   -0.4570    1.8010 C.2     1  UNL1        0.0540
      9  C          6.3930   -2.4910    1.6600 C.2     1  UNL1        0.0510
     10  C          8.6360   -1.7270    1.4000 C.2     1  UNL1        0.1660
     11  C          7.7190   -2.7530    1.3290 C.2     1  UNL1        0.1650
     12  O          9.8630   -2.2340    1.0280 O.2     1  UNL1       -0.4540
     13  O          8.4100   -3.8790    0.9100 O.2     1  UNL1       -0.4540
     14  C          9.7530   -3.5730    0.6200 C.3     1  UNL1        0.4680
@<TRIPOS>BOND
     1     3     2    1
     2    14    13    1
     3    14    12    1
     4     2     4    2
     5     2     1    1
     6    13    11    1
     7    12    10    1
     8    11    10    2
     9    11     9    1
    10     1     5    1
    11    10     8    1
    12     9     7    2
    13     8     6    2
    14     7     6    1
    15     6     5    1
