@<TRIPOS>MOLECULE
/home/cewinharhar/GITHUB/reincatalyze/data/processed/docking_pred/2023-May-23-1437_sub9_nm5_bs15_s42_ex16_mel10_mts10000_k50_ec02_g099_lra3e-4_lrc1e-3/e4036567ae6c7c824a0e93db279f74886267d276_ligand_9.pdbqt
 14 15 0 0 0
SMALL
GASTEIGER

@<TRIPOS>ATOM
      1  C          5.5730    1.8900    1.2630 C.3     1  UNL1        0.0800
      2  C          5.1230    0.6840    2.0120 C.2     1  UNL1        0.1300
      3  C          6.0080   -0.4980    2.1940 C.3     1  UNL1        0.0870
      4  O          4.0060    0.6300    2.5010 O.2     1  UNL1       -0.3000
      5  C          5.4310    1.6940   -0.2330 C.3     1  UNL1        0.0430
      6  C          6.5960    0.9950   -0.8050 C.2     1  UNL1       -0.0440
      7  C          7.9030    1.4350   -0.5700 C.2     1  UNL1        0.0080
      8  C          6.4040   -0.1200   -1.5890 C.2     1  UNL1        0.0540
      9  C          8.9570    0.7390   -1.1320 C.2     1  UNL1        0.0510
     10  C          7.4730   -0.8210   -2.1550 C.2     1  UNL1        0.1660
     11  C          8.7600   -0.3880   -1.9250 C.2     1  UNL1        0.1650
     12  O          7.5440   -1.9390   -2.9590 O.2     1  UNL1       -0.4540
     13  O          9.6030   -1.2590   -2.5980 O.2     1  UNL1       -0.4540
     14  C          8.8780   -2.3100   -3.1920 C.3     1  UNL1        0.4680
@<TRIPOS>BOND
     1    14    12    1
     2    14    13    1
     3    12    10    1
     4    13    11    1
     5    10    11    2
     6    10     8    1
     7    11     9    1
     8     8     6    2
     9     9     7    2
    10     6     7    1
    11     6     5    1
    12     5     1    1
    13     1     2    1
    14     2     3    1
    15     2     4    2
