@<TRIPOS>MOLECULE
/home/cewinharhar/GITHUB/reincatalyze/data/processed/docking_pred/2023-May-23-1437_sub9_nm5_bs15_s42_ex16_mel10_mts10000_k50_ec02_g099_lra3e-4_lrc1e-3/e4036567ae6c7c824a0e93db279f74886267d276_ligand_9.pdbqt
 14 15 0 0 0
SMALL
GASTEIGER

@<TRIPOS>ATOM
      1  C          6.3390    1.2560    0.8570 C.3     1  UNL1        0.0800
      2  C          5.6610    0.4510    1.9110 C.2     1  UNL1        0.1300
      3  C          6.2870   -0.7710    2.4830 C.3     1  UNL1        0.0870
      4  O          4.5640    0.7740    2.3380 O.2     1  UNL1       -0.3000
      5  C          5.8250    0.9000   -0.5240 C.3     1  UNL1        0.0430
      6  C          6.8000    0.0930   -1.2780 C.2     1  UNL1       -0.0440
      7  C          7.5250    0.6310   -2.3480 C.2     1  UNL1        0.0080
      8  C          7.0130   -1.2220   -0.9300 C.2     1  UNL1        0.0540
      9  C          8.4280   -0.1740   -3.0180 C.2     1  UNL1        0.0510
     10  C          7.9270   -2.0310   -1.6110 C.2     1  UNL1        0.1660
     11  C          8.6400   -1.5030   -2.6640 C.2     1  UNL1        0.1650
     12  O          8.3120   -3.3460   -1.4600 O.2     1  UNL1       -0.4540
     13  O          9.4570   -2.5150   -3.1420 O.2     1  UNL1       -0.4540
     14  C          9.3480   -3.6740   -2.3510 C.3     1  UNL1        0.4680
@<TRIPOS>BOND
     1    13    11    1
     2    13    14    1
     3     9    11    2
     4     9     7    1
     5    11    10    1
     6    14    12    1
     7     7     6    2
     8    10    12    1
     9    10     8    2
    10     6     8    1
    11     6     5    1
    12     5     1    1
    13     1     2    1
    14     2     4    2
    15     2     3    1
