@<TRIPOS>MOLECULE
/home/cewinharhar/GITHUB/reincatalyze/data/processed/docking_pred/2023-May-23-1437_sub9_nm5_bs15_s42_ex16_mel10_mts10000_k50_ec02_g099_lra3e-4_lrc1e-3/e4fa235ec7efbd7e119135046aea7bf03a15639f_ligand_9.pdbqt
 14 15 0 0 0
SMALL
GASTEIGER

@<TRIPOS>ATOM
      1  C          6.1360   -0.0310    1.8460 C.3     1  UNL1        0.0800
      2  C          5.0450    0.9650    1.6580 C.2     1  UNL1        0.1300
      3  C          5.1000    1.9890    0.5800 C.3     1  UNL1        0.0870
      4  O          4.0670    0.9690    2.3880 O.2     1  UNL1       -0.3000
      5  C          6.4270   -0.7790    0.5600 C.3     1  UNL1        0.0430
      6  C          7.8470   -0.6770    0.1780 C.2     1  UNL1       -0.0440
      7  C          8.3170    0.3740   -0.6180 C.2     1  UNL1        0.0080
      8  C          8.7410   -1.6300    0.6110 C.2     1  UNL1        0.0540
      9  C          9.6600    0.4190   -0.9450 C.2     1  UNL1        0.0510
     10  C         10.0980   -1.5790    0.2790 C.2     1  UNL1        0.1660
     11  C         10.5610   -0.5470   -0.5060 C.2     1  UNL1        0.1650
     12  O         11.1690   -2.3930    0.5790 O.2     1  UNL1       -0.4540
     13  O         11.9220   -0.7490   -0.6720 O.2     1  UNL1       -0.4540
     14  C         12.3660   -1.8580    0.0740 C.3     1  UNL1        0.4680
@<TRIPOS>BOND
     1     9     7    1
     2     9    11    2
     3    13    11    1
     4    13    14    1
     5     7     6    2
     6    11    10    1
     7    14    12    1
     8     6     5    1
     9     6     8    1
    10    10    12    1
    11    10     8    2
    12     5     1    1
    13     3     2    1
    14     2     1    1
    15     2     4    2
