@<TRIPOS>MOLECULE
/home/cewinharhar/GITHUB/reincatalyze/data/processed/docking_pred/2023-May-23-1437_sub9_nm5_bs15_s42_ex16_mel10_mts10000_k50_ec02_g099_lra3e-4_lrc1e-3/e4fa235ec7efbd7e119135046aea7bf03a15639f_ligand_9.pdbqt
 14 15 0 0 0
SMALL
GASTEIGER

@<TRIPOS>ATOM
      1  C          6.6470    0.0950    1.9000 C.3     1  UNL1        0.0800
      2  C          5.3570    0.8100    1.6960 C.2     1  UNL1        0.1300
      3  C          5.1710    1.7860    0.5890 C.3     1  UNL1        0.0870
      4  O          4.4080    0.6150    2.4390 O.2     1  UNL1       -0.3000
      5  C          6.5390   -1.3620    1.4960 C.3     1  UNL1        0.0430
      6  C          7.2720   -1.6380    0.2480 C.2     1  UNL1       -0.0440
      7  C          6.8530   -1.1120   -0.9800 C.2     1  UNL1        0.0080
      8  C          8.3970   -2.4300    0.2780 C.2     1  UNL1        0.0540
      9  C          7.5810   -1.4050   -2.1190 C.2     1  UNL1        0.0510
     10  C          9.1300   -2.7220   -0.8760 C.2     1  UNL1        0.1660
     11  C          8.7180   -2.2060   -2.0840 C.2     1  UNL1        0.1650
     12  O         10.2650   -3.4720   -1.1040 O.2     1  UNL1       -0.4540
     13  O          9.6180   -2.6530   -3.0390 O.2     1  UNL1       -0.4540
     14  C         10.6660   -3.3840   -2.4470 C.3     1  UNL1        0.4680
@<TRIPOS>BOND
     1    13    14    1
     2    13    11    1
     3    14    12    1
     4     9    11    2
     5     9     7    1
     6    11    10    1
     7    12    10    1
     8     7     6    2
     9    10     8    2
    10     6     8    1
    11     6     5    1
    12     3     2    1
    13     5     1    1
    14     2     1    1
    15     2     4    2
