@<TRIPOS>MOLECULE
/home/cewinharhar/GITHUB/reincatalyze/data/processed/docking_pred/2023-May-23-1437_sub9_nm5_bs15_s42_ex16_mel10_mts10000_k50_ec02_g099_lra3e-4_lrc1e-3/e4fa235ec7efbd7e119135046aea7bf03a15639f_ligand_9.pdbqt
 14 15 0 0 0
SMALL
GASTEIGER

@<TRIPOS>ATOM
      1  C          6.5770    0.1000    0.9470 C.3     1  UNL1        0.0800
      2  C          5.3890    0.9280    1.2950 C.2     1  UNL1        0.1300
      3  C          4.9910    2.1060    0.4780 C.3     1  UNL1        0.0870
      4  O          4.7030    0.6620    2.2690 O.2     1  UNL1       -0.3000
      5  C          7.4280    0.7760   -0.1100 C.3     1  UNL1        0.0430
      6  C          8.0940   -0.2060   -0.9850 C.2     1  UNL1       -0.0440
      7  C          7.6870   -0.4010   -2.3100 C.2     1  UNL1        0.0080
      8  C          9.1420   -0.9530   -0.4980 C.2     1  UNL1        0.0540
      9  C          8.3500   -1.3360   -3.0840 C.2     1  UNL1        0.0510
     10  C          9.8100   -1.8960   -1.2850 C.2     1  UNL1        0.1660
     11  C          9.4100   -2.0890   -2.5890 C.2     1  UNL1        0.1650
     12  O         10.8630   -2.7500   -1.0380 O.2     1  UNL1       -0.4540
     13  O         10.2360   -3.0680   -3.1210 O.2     1  UNL1       -0.4540
     14  C         11.2290   -3.4490   -2.1990 C.3     1  UNL1        0.4680
@<TRIPOS>BOND
     1    13    11    1
     2    13    14    1
     3     9    11    2
     4     9     7    1
     5    11    10    1
     6     7     6    2
     7    14    12    1
     8    10    12    1
     9    10     8    2
    10     6     8    1
    11     6     5    1
    12     5     1    1
    13     3     2    1
    14     1     2    1
    15     2     4    2
