@<TRIPOS>MOLECULE
/home/cewinharhar/GITHUB/reincatalyze/data/processed/docking_pred/2023-May-23-1437_sub9_nm5_bs15_s42_ex16_mel10_mts10000_k50_ec02_g099_lra3e-4_lrc1e-3/e5153a6a2872aa0f73be7da8df97a591d10f8a10_ligand_9.pdbqt
 14 15 0 0 0
SMALL
GASTEIGER

@<TRIPOS>ATOM
      1  C          6.7640    0.6750    1.2860 C.3     1  UNL1        0.0800
      2  C          5.3600    1.1350    1.4750 C.2     1  UNL1        0.1300
      3  C          4.7430    2.1500    0.5800 C.3     1  UNL1        0.0870
      4  O          4.6700    0.6880    2.3780 O.2     1  UNL1       -0.3000
      5  C          7.2290    0.9000   -0.1390 C.3     1  UNL1        0.0430
      6  C          7.6370   -0.3600   -0.7860 C.2     1  UNL1       -0.0440
      7  C          7.7630   -0.4630   -2.1760 C.2     1  UNL1        0.0080
      8  C          7.9070   -1.4670   -0.0140 C.2     1  UNL1        0.0540
      9  C          8.1500   -1.6710   -2.7270 C.2     1  UNL1        0.0510
     10  C          8.2990   -2.6850   -0.5760 C.2     1  UNL1        0.1660
     11  C          8.4210   -2.7880   -1.9440 C.2     1  UNL1        0.1650
     12  O          8.6170   -3.9120   -0.0320 O.2     1  UNL1       -0.4540
     13  O          8.8180   -4.0890   -2.2140 O.2     1  UNL1       -0.4540
     14  C          9.0420   -4.8090   -1.0250 C.3     1  UNL1        0.4680
@<TRIPOS>BOND
     1     9     7    1
     2     9    11    2
     3    13    11    1
     4    13    14    1
     5     7     6    2
     6    11    10    1
     7    14    12    1
     8     6     5    1
     9     6     8    1
    10    10    12    1
    11    10     8    2
    12     5     1    1
    13     3     2    1
    14     1     2    1
    15     2     4    2
