@<TRIPOS>MOLECULE
/home/cewinharhar/GITHUB/reincatalyze/data/processed/docking_pred/2023-May-23-1437_sub9_nm5_bs15_s42_ex16_mel10_mts10000_k50_ec02_g099_lra3e-4_lrc1e-3/e664ed9b9863352566edc96c512c4454db4fc7ef_ligand_9.pdbqt
 14 15 0 0 0
SMALL
GASTEIGER

@<TRIPOS>ATOM
      1  C          6.3740    1.2180    0.9190 C.3     1  UNL1        0.0800
      2  C          5.6620    0.3880    1.9310 C.2     1  UNL1        0.1300
      3  C          6.2740   -0.8400    2.5050 C.3     1  UNL1        0.0870
      4  O          4.5470    0.6960    2.3210 O.2     1  UNL1       -0.3000
      5  C          5.8670    0.9330   -0.4810 C.3     1  UNL1        0.0430
      6  C          6.8170    0.1100   -1.2490 C.2     1  UNL1       -0.0440
      7  C          7.5100    0.6250   -2.3500 C.2     1  UNL1        0.0080
      8  C          7.0370   -1.1990   -0.8830 C.2     1  UNL1        0.0540
      9  C          8.3910   -0.1940   -3.0330 C.2     1  UNL1        0.0510
     10  C          7.9290   -2.0230   -1.5760 C.2     1  UNL1        0.1660
     11  C          8.6100   -1.5170   -2.6600 C.2     1  UNL1        0.1650
     12  O          8.3150   -3.3370   -1.4130 O.2     1  UNL1       -0.4540
     13  O          9.4100   -2.5400   -3.1440 O.2     1  UNL1       -0.4540
     14  C          9.3220   -3.6840   -2.3280 C.3     1  UNL1        0.4680
@<TRIPOS>BOND
     1    13    11    1
     2    13    14    1
     3     9    11    2
     4     9     7    1
     5    11    10    1
     6     7     6    2
     7    14    12    1
     8    10    12    1
     9    10     8    2
    10     6     8    1
    11     6     5    1
    12     5     1    1
    13     1     2    1
    14     2     4    2
    15     2     3    1
