@<TRIPOS>MOLECULE
/home/cewinharhar/GITHUB/reincatalyze/data/processed/docking_pred/2023-May-23-1437_sub9_nm5_bs15_s42_ex16_mel10_mts10000_k50_ec02_g099_lra3e-4_lrc1e-3/e664ed9b9863352566edc96c512c4454db4fc7ef_ligand_9.pdbqt
 14 15 0 0 0
SMALL
GASTEIGER

@<TRIPOS>ATOM
      1  C          5.4980    1.9270    1.2520 C.3     1  UNL1        0.0800
      2  C          5.0510    0.7130    1.9920 C.2     1  UNL1        0.1300
      3  C          5.9280   -0.4780    2.1400 C.3     1  UNL1        0.0870
      4  O          3.9430    0.6630    2.5010 O.2     1  UNL1       -0.3000
      5  C          5.3790    1.7320   -0.2470 C.3     1  UNL1        0.0430
      6  C          6.5510    1.0330   -0.8020 C.2     1  UNL1       -0.0440
      7  C          7.8560    1.4680   -0.5400 C.2     1  UNL1        0.0080
      8  C          6.3710   -0.0770   -1.5960 C.2     1  UNL1        0.0540
      9  C          8.9180    0.7720   -1.0880 C.2     1  UNL1        0.0510
     10  C          7.4480   -0.7780   -2.1470 C.2     1  UNL1        0.1660
     11  C          8.7320   -0.3500   -1.8910 C.2     1  UNL1        0.1650
     12  O          7.5300   -1.8910   -2.9550 O.2     1  UNL1       -0.4540
     13  O          9.5840   -1.2190   -2.5540 O.2     1  UNL1       -0.4540
     14  C          8.8670   -2.2640   -3.1660 C.3     1  UNL1        0.4680
@<TRIPOS>BOND
     1    14    12    1
     2    14    13    1
     3    12    10    1
     4    13    11    1
     5    10    11    2
     6    10     8    1
     7    11     9    1
     8     8     6    2
     9     9     7    2
    10     6     7    1
    11     6     5    1
    12     5     1    1
    13     1     2    1
    14     2     3    1
    15     2     4    2
