@<TRIPOS>MOLECULE
/home/cewinharhar/GITHUB/reincatalyze/data/processed/docking_pred/2023-May-23-1437_sub9_nm5_bs15_s42_ex16_mel10_mts10000_k50_ec02_g099_lra3e-4_lrc1e-3/e664ed9b9863352566edc96c512c4454db4fc7ef_ligand_9.pdbqt
 14 15 0 0 0
SMALL
GASTEIGER

@<TRIPOS>ATOM
      1  C          5.7670    1.3250   -0.2420 C.3     1  UNL1        0.0800
      2  C          5.1800    1.2540    1.1250 C.2     1  UNL1        0.1300
      3  C          5.4370    0.0990    2.0260 C.3     1  UNL1        0.0870
      4  O          4.4660    2.1490    1.5480 O.2     1  UNL1       -0.3000
      5  C          7.2590    1.0570   -0.2150 C.3     1  UNL1        0.0430
      6  C          7.5940   -0.2340   -0.8420 C.2     1  UNL1       -0.0440
      7  C          7.5730   -0.4010   -2.2320 C.2     1  UNL1        0.0080
      8  C          7.9390   -1.3070   -0.0530 C.2     1  UNL1        0.0540
      9  C          7.8970   -1.6350   -2.7640 C.2     1  UNL1        0.0510
     10  C          8.2670   -2.5530   -0.5960 C.2     1  UNL1        0.1660
     11  C          8.2450   -2.7180   -1.9630 C.2     1  UNL1        0.1650
     12  O          8.6370   -3.7550   -0.0320 O.2     1  UNL1       -0.4540
     13  O          8.6070   -4.0330   -2.2130 O.2     1  UNL1       -0.4540
     14  C          8.9520   -4.7000   -1.0220 C.3     1  UNL1        0.4680
@<TRIPOS>BOND
     1     9     7    1
     2     9    11    2
     3     7     6    2
     4    13    11    1
     5    13    14    1
     6    11    10    1
     7    14    12    1
     8     6     5    1
     9     6     8    1
    10    10     8    2
    11    10    12    1
    12     1     5    1
    13     1     2    1
    14     2     4    2
    15     2     3    1
