@<TRIPOS>MOLECULE
/home/cewinharhar/GITHUB/reincatalyze/data/processed/docking_pred/2023-May-23-1437_sub9_nm5_bs15_s42_ex16_mel10_mts10000_k50_ec02_g099_lra3e-4_lrc1e-3/e69dee760b6a4f483691253cffcee702e9155e2b_ligand_9.pdbqt
 14 15 0 0 0
SMALL
GASTEIGER

@<TRIPOS>ATOM
      1  C          5.5080    1.9390    1.2630 C.3     1  UNL1        0.0800
      2  C          5.0760    0.7210    2.0030 C.2     1  UNL1        0.1300
      3  C          5.9710   -0.4570    2.1590 C.3     1  UNL1        0.0870
      4  O          3.9660    0.6540    2.5060 O.2     1  UNL1       -0.3000
      5  C          5.3830    1.7460   -0.2350 C.3     1  UNL1        0.0430
      6  C          6.5530    1.0470   -0.7960 C.2     1  UNL1       -0.0440
      7  C          7.8580    1.4920   -0.5560 C.2     1  UNL1        0.0080
      8  C          6.3690   -0.0740   -1.5730 C.2     1  UNL1        0.0540
      9  C          8.9170    0.7940   -1.1080 C.2     1  UNL1        0.0510
     10  C          7.4430   -0.7770   -2.1280 C.2     1  UNL1        0.1660
     11  C          8.7280   -0.3380   -1.8930 C.2     1  UNL1        0.1650
     12  O          7.5210   -1.9000   -2.9230 O.2     1  UNL1       -0.4540
     13  O          9.5760   -1.2120   -2.5550 O.2     1  UNL1       -0.4540
     14  C          8.8580   -2.2690   -3.1450 C.3     1  UNL1        0.4680
@<TRIPOS>BOND
     1    14    12    1
     2    14    13    1
     3    12    10    1
     4    13    11    1
     5    10    11    2
     6    10     8    1
     7    11     9    1
     8     8     6    2
     9     9     7    2
    10     6     7    1
    11     6     5    1
    12     5     1    1
    13     1     2    1
    14     2     3    1
    15     2     4    2
