@<TRIPOS>MOLECULE
/home/cewinharhar/GITHUB/reincatalyze/data/processed/docking_pred/2023-May-23-1437_sub9_nm5_bs15_s42_ex16_mel10_mts10000_k50_ec02_g099_lra3e-4_lrc1e-3/e69dee760b6a4f483691253cffcee702e9155e2b_ligand_9.pdbqt
 14 15 0 0 0
SMALL
GASTEIGER

@<TRIPOS>ATOM
      1  C          5.7710    1.2620   -0.2920 C.3     1  UNL1        0.0800
      2  C          5.2210    1.2070    1.0910 C.2     1  UNL1        0.1300
      3  C          5.4010    0.0100    1.9560 C.3     1  UNL1        0.0870
      4  O          4.6020    2.1500    1.5570 O.2     1  UNL1       -0.3000
      5  C          7.2710    1.0470   -0.2970 C.3     1  UNL1        0.0430
      6  C          7.6360   -0.2500   -0.8950 C.2     1  UNL1       -0.0440
      7  C          7.6630   -0.4350   -2.2820 C.2     1  UNL1        0.0080
      8  C          7.9620   -1.3090   -0.0790 C.2     1  UNL1        0.0540
      9  C          8.0140   -1.6750   -2.7860 C.2     1  UNL1        0.0510
     10  C          8.3160   -2.5600   -0.5940 C.2     1  UNL1        0.1660
     11  C          8.3420   -2.7440   -1.9580 C.2     1  UNL1        0.1650
     12  O          8.6750   -3.7520   -0.0020 O.2     1  UNL1       -0.4540
     13  O          8.7210   -4.0590   -2.1780 O.2     1  UNL1       -0.4540
     14  C          9.0300   -4.7080   -0.9680 C.3     1  UNL1        0.4680
@<TRIPOS>BOND
     1     9     7    1
     2     9    11    2
     3     7     6    2
     4    13    11    1
     5    13    14    1
     6    11    10    1
     7    14    12    1
     8     6     5    1
     9     6     8    1
    10    10     8    2
    11    10    12    1
    12     5     1    1
    13     1     2    1
    14     2     4    2
    15     2     3    1
