@<TRIPOS>MOLECULE
/home/cewinharhar/GITHUB/reincatalyze/data/processed/docking_pred/2023-May-23-1437_sub9_nm5_bs15_s42_ex16_mel10_mts10000_k50_ec02_g099_lra3e-4_lrc1e-3/e72dfb9ce69b60d9dd63e32278a4acfac8a78322_ligand_9.pdbqt
 14 15 0 0 0
SMALL
GASTEIGER

@<TRIPOS>ATOM
      1  C          6.9090    0.9500    1.1820 C.3     1  UNL1        0.0800
      2  C          5.4490    1.1310    1.4200 C.2     1  UNL1        0.1300
      3  C          4.6580    2.1500    0.6810 C.3     1  UNL1        0.0870
      4  O          4.8580    0.4420    2.2360 O.2     1  UNL1       -0.3000
      5  C          7.2470    1.0860   -0.2890 C.3     1  UNL1        0.0430
      6  C          7.6280   -0.2080   -0.8830 C.2     1  UNL1       -0.0440
      7  C          7.7330   -0.3760   -2.2690 C.2     1  UNL1        0.0080
      8  C          7.8920   -1.2830   -0.0650 C.2     1  UNL1        0.0540
      9  C          8.0960   -1.6130   -2.7690 C.2     1  UNL1        0.0510
     10  C          8.2580   -2.5320   -0.5760 C.2     1  UNL1        0.1660
     11  C          8.3610   -2.6980   -1.9390 C.2     1  UNL1        0.1650
     12  O          8.5660   -3.7370    0.0190 O.2     1  UNL1       -0.4540
     13  O          8.7350   -4.0150   -2.1550 O.2     1  UNL1       -0.4540
     14  C          8.9640   -4.6850   -0.9390 C.3     1  UNL1        0.4680
@<TRIPOS>BOND
     1     9     7    1
     2     9    11    2
     3     7     6    2
     4    13    11    1
     5    13    14    1
     6    11    10    1
     7    14    12    1
     8     6     5    1
     9     6     8    1
    10    10     8    2
    11    10    12    1
    12     5     1    1
    13     3     2    1
    14     1     2    1
    15     2     4    2
