@<TRIPOS>MOLECULE
/home/cewinharhar/GITHUB/reincatalyze/data/processed/docking_pred/2023-May-23-1437_sub9_nm5_bs15_s42_ex16_mel10_mts10000_k50_ec02_g099_lra3e-4_lrc1e-3/e8fc6854485d68a8d0bf78bf523603f1a9cbeca9_ligand_9.pdbqt
 14 15 0 0 0
SMALL
GASTEIGER

@<TRIPOS>ATOM
      1  C          6.8120    1.4770    0.6540 C.3     1  UNL1        0.0800
      2  C          6.2490    0.9600    1.9320 C.2     1  UNL1        0.1300
      3  C          4.8790    0.3850    2.0060 C.3     1  UNL1        0.0870
      4  O          6.9010    0.9950    2.9630 O.2     1  UNL1       -0.3000
      5  C          6.1030    0.8760   -0.5430 C.3     1  UNL1        0.0430
      6  C          6.8920   -0.2040   -1.1610 C.2     1  UNL1       -0.0440
      7  C          7.3190   -0.1310   -2.4920 C.2     1  UNL1        0.0080
      8  C          7.2250   -1.3150   -0.4200 C.2     1  UNL1        0.0540
      9  C          8.0580   -1.1750   -3.0180 C.2     1  UNL1        0.0510
     10  C          7.9730   -2.3680   -0.9560 C.2     1  UNL1        0.1660
     11  C          8.3920   -2.2970   -2.2660 C.2     1  UNL1        0.1650
     12  O          8.4240   -3.5610   -0.4340 O.2     1  UNL1       -0.4540
     13  O          9.1020   -3.4600   -2.5230 O.2     1  UNL1       -0.4540
     14  C          9.2240   -4.2480   -1.3620 C.3     1  UNL1        0.4680
@<TRIPOS>BOND
     1     9     7    1
     2     9    11    2
     3    13    11    1
     4    13    14    1
     5     7     6    2
     6    11    10    1
     7    14    12    1
     8     6     5    1
     9     6     8    1
    10    10    12    1
    11    10     8    2
    12     5     1    1
    13     1     2    1
    14     2     3    1
    15     2     4    2
