@<TRIPOS>MOLECULE
/home/cewinharhar/GITHUB/reincatalyze/data/processed/docking_pred/2023-May-23-1437_sub9_nm5_bs15_s42_ex16_mel10_mts10000_k50_ec02_g099_lra3e-4_lrc1e-3/ea9f39b4277e7ba3f00603e8654b95ed05d2571c_ligand_9.pdbqt
 14 15 0 0 0
SMALL
GASTEIGER

@<TRIPOS>ATOM
      1  C          6.3800    1.2040    0.9430 C.3     1  UNL1        0.0800
      2  C          5.6510    0.3730    1.9410 C.2     1  UNL1        0.1300
      3  C          6.2550   -0.8540    2.5250 C.3     1  UNL1        0.0870
      4  O          4.5290    0.6770    2.3100 O.2     1  UNL1       -0.3000
      5  C          5.8780    0.9430   -0.4630 C.3     1  UNL1        0.0430
      6  C          6.8210    0.1150   -1.2360 C.2     1  UNL1       -0.0440
      7  C          7.5030    0.6230   -2.3470 C.2     1  UNL1        0.0080
      8  C          7.0460   -1.1910   -0.8620 C.2     1  UNL1        0.0540
      9  C          8.3760   -0.2010   -3.0330 C.2     1  UNL1        0.0510
     10  C          7.9310   -2.0200   -1.5590 C.2     1  UNL1        0.1660
     11  C          8.6010   -1.5200   -2.6530 C.2     1  UNL1        0.1650
     12  O          8.3200   -3.3310   -1.3900 O.2     1  UNL1       -0.4540
     13  O          9.3970   -2.5460   -3.1380 O.2     1  UNL1       -0.4540
     14  C          9.3190   -3.6840   -2.3130 C.3     1  UNL1        0.4680
@<TRIPOS>BOND
     1    13    11    1
     2    13    14    1
     3     9    11    2
     4     9     7    1
     5    11    10    1
     6     7     6    2
     7    14    12    1
     8    10    12    1
     9    10     8    2
    10     6     8    1
    11     6     5    1
    12     5     1    1
    13     1     2    1
    14     2     4    2
    15     2     3    1
