MODEL 1
REMARK VINA RESULT:      -7.7      0.000      0.000
REMARK SMILES CC(=O)CCc1ccc2c(c1)OCO2
REMARK SMILES IDX 4 1 2 2 1 3 3 4 5 5 6 6 7 7 11 8 8 9 10 10 9 11 12 12 14 13
REMARK SMILES IDX 13 14
REMARK H PARENT
REMARK Flexibility Score: inf
ROOT
ATOM      1  C   UNL     1       5.516   1.913   1.267  1.00  0.00     0.080 C 
ENDROOT
BRANCH   1   2
ATOM      2  C   UNL     1       5.062   0.697   1.998  1.00  0.00     0.130 C 
ATOM      3  C   UNL     1       5.935  -0.499   2.143  1.00  0.00     0.087 C 
ATOM      4  O   UNL     1       3.952   0.647   2.503  1.00  0.00    -0.300 OA
ENDBRANCH   1   2
BRANCH   1   5
ATOM      5  C   UNL     1       5.393   1.731  -0.233  1.00  0.00     0.043 C 
BRANCH   5   6
ATOM      6  C   UNL     1       6.560   1.030  -0.796  1.00  0.00    -0.044 A 
ATOM      7  C   UNL     1       7.867   1.467  -0.549  1.00  0.00     0.008 A 
ATOM      8  C   UNL     1       6.373  -0.083  -1.584  1.00  0.00     0.054 A 
ATOM      9  C   UNL     1       8.924   0.769  -1.104  1.00  0.00     0.051 A 
ATOM     10  C   UNL     1       7.445  -0.786  -2.142  1.00  0.00     0.166 A 
ATOM     11  C   UNL     1       8.731  -0.356  -1.900  1.00  0.00     0.165 A 
ATOM     12  O   UNL     1       7.519  -1.903  -2.947  1.00  0.00    -0.454 OA
ATOM     13  O   UNL     1       9.577  -1.228  -2.568  1.00  0.00    -0.454 OA
ATOM     14  C   UNL     1       8.855  -2.276  -3.169  1.00  0.00     0.468 C 
ENDBRANCH   5   6
ENDBRANCH   1   5
TORSDOF 3
ENDMDL
MODEL 2
REMARK VINA RESULT:      -7.4      1.835      2.307
REMARK SMILES CC(=O)CCc1ccc2c(c1)OCO2
REMARK SMILES IDX 4 1 2 2 1 3 3 4 5 5 6 6 7 7 11 8 8 9 10 10 9 11 12 12 14 13
REMARK SMILES IDX 13 14
REMARK H PARENT
REMARK Flexibility Score: inf
ROOT
ATOM      1  C   UNL     1       5.756   1.493  -0.271  1.00  0.00     0.080 C 
ENDROOT
BRANCH   1   2
ATOM      2  C   UNL     1       5.106   1.313   1.058  1.00  0.00     0.130 C 
ATOM      3  C   UNL     1       5.481   0.195   1.965  1.00  0.00     0.087 C 
ATOM      4  O   UNL     1       4.241   2.083   1.442  1.00  0.00    -0.300 OA
ENDBRANCH   1   2
BRANCH   1   5
ATOM      5  C   UNL     1       7.240   1.196  -0.203  1.00  0.00     0.043 C 
BRANCH   5   6
ATOM      6  C   UNL     1       7.572  -0.083  -0.855  1.00  0.00    -0.044 A 
ATOM      7  C   UNL     1       7.537  -0.228  -2.246  1.00  0.00     0.008 A 
ATOM      8  C   UNL     1       7.929  -1.168  -0.087  1.00  0.00     0.054 A 
ATOM      9  C   UNL     1       7.859  -1.452  -2.803  1.00  0.00     0.051 A 
ATOM     10  C   UNL     1       8.255  -2.404  -0.654  1.00  0.00     0.166 A 
ATOM     11  C   UNL     1       8.219  -2.547  -2.023  1.00  0.00     0.165 A 
ATOM     12  O   UNL     1       8.635  -3.615  -0.114  1.00  0.00    -0.454 OA
ATOM     13  O   UNL     1       8.582  -3.856  -2.299  1.00  0.00    -0.454 OA
ATOM     14  C   UNL     1       8.942  -4.542  -1.123  1.00  0.00     0.468 C 
ENDBRANCH   5   6
ENDBRANCH   1   5
TORSDOF 3
ENDMDL
MODEL 3
REMARK VINA RESULT:      -7.2      2.084      2.616
REMARK SMILES CC(=O)CCc1ccc2c(c1)OCO2
REMARK SMILES IDX 4 1 2 2 1 3 3 4 5 5 6 6 7 7 11 8 8 9 10 10 9 11 12 12 14 13
REMARK SMILES IDX 13 14
REMARK H PARENT
REMARK Flexibility Score: inf
ROOT
ATOM      1  C   UNL     1       5.544   0.014   1.946  1.00  0.00     0.080 C 
ENDROOT
BRANCH   1   2
ATOM      2  C   UNL     1       4.650   1.167   1.645  1.00  0.00     0.130 C 
ATOM      3  C   UNL     1       4.938   2.107   0.528  1.00  0.00     0.087 C 
ATOM      4  O   UNL     1       3.649   1.374   2.310  1.00  0.00    -0.300 OA
ENDBRANCH   1   2
BRANCH   1   5
ATOM      5  C   UNL     1       6.958   0.274   1.466  1.00  0.00     0.043 C 
BRANCH   5   6
ATOM      6  C   UNL     1       7.369  -0.690   0.429  1.00  0.00    -0.044 A 
ATOM      7  C   UNL     1       7.274  -0.385  -0.934  1.00  0.00     0.008 A 
ATOM      8  C   UNL     1       7.862  -1.921   0.798  1.00  0.00     0.054 A 
ATOM      9  C   UNL     1       7.675  -1.329  -1.862  1.00  0.00     0.051 A 
ATOM     10  C   UNL     1       8.267  -2.871  -0.144  1.00  0.00     0.166 A 
ATOM     11  C   UNL     1       8.172  -2.572  -1.485  1.00  0.00     0.165 A 
ATOM     12  O   UNL     1       8.781  -4.145  -0.032  1.00  0.00    -0.454 OA
ATOM     13  O   UNL     1       8.636  -3.681  -2.176  1.00  0.00    -0.454 OA
ATOM     14  C   UNL     1       9.117  -4.666  -1.293  1.00  0.00     0.468 C 
ENDBRANCH   5   6
ENDBRANCH   1   5
TORSDOF 3
ENDMDL
MODEL 4
REMARK VINA RESULT:      -7.1      1.953      2.556
REMARK SMILES CC(=O)CCc1ccc2c(c1)OCO2
REMARK SMILES IDX 4 1 2 2 1 3 3 4 5 5 6 6 7 7 11 8 8 9 10 10 9 11 12 12 14 13
REMARK SMILES IDX 13 14
REMARK H PARENT
REMARK Flexibility Score: inf
ROOT
ATOM      1  C   UNL     1       6.853   0.824   1.100  1.00  0.00     0.080 C 
ENDROOT
BRANCH   1   2
ATOM      2  C   UNL     1       5.437   1.220   1.343  1.00  0.00     0.130 C 
ATOM      3  C   UNL     1       4.719   2.149   0.430  1.00  0.00     0.087 C 
ATOM      4  O   UNL     1       4.822   0.789   2.305  1.00  0.00    -0.300 OA
ENDBRANCH   1   2
BRANCH   1   5
ATOM      5  C   UNL     1       7.221   0.968  -0.363  1.00  0.00     0.043 C 
BRANCH   5   6
ATOM      6  C   UNL     1       7.647  -0.316  -0.948  1.00  0.00    -0.044 A 
ATOM      7  C   UNL     1       7.823  -0.471  -2.328  1.00  0.00     0.008 A 
ATOM      8  C   UNL     1       7.883  -1.395  -0.126  1.00  0.00     0.054 A 
ATOM      9  C   UNL     1       8.224  -1.700  -2.819  1.00  0.00     0.051 A 
ATOM     10  C   UNL     1       8.289  -2.635  -0.628  1.00  0.00     0.166 A 
ATOM     11  C   UNL     1       8.461  -2.788  -1.986  1.00  0.00     0.165 A 
ATOM     12  O   UNL     1       8.582  -3.841  -0.028  1.00  0.00    -0.454 OA
ATOM     13  O   UNL     1       8.861  -4.099  -2.194  1.00  0.00    -0.454 OA
ATOM     14  C   UNL     1       9.038  -4.776  -0.972  1.00  0.00     0.468 C 
ENDBRANCH   5   6
ENDBRANCH   1   5
TORSDOF 3
ENDMDL
MODEL 5
REMARK VINA RESULT:      -7.1      1.255      1.463
REMARK SMILES CC(=O)CCc1ccc2c(c1)OCO2
REMARK SMILES IDX 4 1 2 2 1 3 3 4 5 5 6 6 7 7 11 8 8 9 10 10 9 11 12 12 14 13
REMARK SMILES IDX 13 14
REMARK H PARENT
REMARK Flexibility Score: inf
ROOT
ATOM      1  C   UNL     1       6.380   1.204   0.943  1.00  0.00     0.080 C 
ENDROOT
BRANCH   1   2
ATOM      2  C   UNL     1       5.651   0.373   1.941  1.00  0.00     0.130 C 
ATOM      3  C   UNL     1       6.255  -0.854   2.525  1.00  0.00     0.087 C 
ATOM      4  O   UNL     1       4.529   0.677   2.310  1.00  0.00    -0.300 OA
ENDBRANCH   1   2
BRANCH   1   5
ATOM      5  C   UNL     1       5.878   0.943  -0.463  1.00  0.00     0.043 C 
BRANCH   5   6
ATOM      6  C   UNL     1       6.821   0.115  -1.236  1.00  0.00    -0.044 A 
ATOM      7  C   UNL     1       7.503   0.623  -2.347  1.00  0.00     0.008 A 
ATOM      8  C   UNL     1       7.046  -1.191  -0.862  1.00  0.00     0.054 A 
ATOM      9  C   UNL     1       8.376  -0.201  -3.033  1.00  0.00     0.051 A 
ATOM     10  C   UNL     1       7.931  -2.020  -1.559  1.00  0.00     0.166 A 
ATOM     11  C   UNL     1       8.601  -1.520  -2.653  1.00  0.00     0.165 A 
ATOM     12  O   UNL     1       8.320  -3.331  -1.390  1.00  0.00    -0.454 OA
ATOM     13  O   UNL     1       9.397  -2.546  -3.138  1.00  0.00    -0.454 OA
ATOM     14  C   UNL     1       9.319  -3.684  -2.313  1.00  0.00     0.468 C 
ENDBRANCH   5   6
ENDBRANCH   1   5
TORSDOF 3
ENDMDL
