@<TRIPOS>MOLECULE
/home/cewinharhar/GITHUB/reincatalyze/data/processed/docking_pred/2023-May-23-1437_sub9_nm5_bs15_s42_ex16_mel10_mts10000_k50_ec02_g099_lra3e-4_lrc1e-3/eb53456adf8787420c4e8f25112cf644d6bf88f9_ligand_9.pdbqt
 14 15 0 0 0
SMALL
GASTEIGER

@<TRIPOS>ATOM
      1  C          5.7310    1.1880   -0.3170 C.3     1  UNL1        0.0800
      2  C          5.2050    1.1870    1.0770 C.2     1  UNL1        0.1300
      3  C          5.3930    0.0210    1.9810 C.3     1  UNL1        0.0870
      4  O          4.6000    2.1500    1.5190 O.2     1  UNL1       -0.3000
      5  C          7.2400    1.0390   -0.3360 C.3     1  UNL1        0.0430
      6  C          7.6540   -0.2460   -0.9260 C.2     1  UNL1       -0.0440
      7  C          7.8260   -0.3970   -2.3070 C.2     1  UNL1        0.0080
      8  C          7.8840   -1.3300   -0.1090 C.2     1  UNL1        0.0540
      9  C          8.2170   -1.6270   -2.8040 C.2     1  UNL1        0.0510
     10  C          8.2800   -2.5710   -0.6170 C.2     1  UNL1        0.1660
     11  C          8.4480   -2.7200   -1.9750 C.2     1  UNL1        0.1650
     12  O          8.5650   -3.7820   -0.0220 O.2     1  UNL1       -0.4540
     13  O          8.8370   -4.0330   -2.1890 O.2     1  UNL1       -0.4540
     14  C          9.0110   -4.7160   -0.9700 C.3     1  UNL1        0.4680
@<TRIPOS>BOND
     1     9     7    1
     2     9    11    2
     3     7     6    2
     4    13    11    1
     5    13    14    1
     6    11    10    1
     7    14    12    1
     8     6     5    1
     9     6     8    1
    10    10     8    2
    11    10    12    1
    12     5     1    1
    13     1     2    1
    14     2     4    2
    15     2     3    1
