MODEL 1
REMARK VINA RESULT:      -7.6      0.000      0.000
REMARK SMILES CC(=O)CCc1ccc2c(c1)OCO2
REMARK SMILES IDX 4 1 2 2 1 3 3 4 5 5 6 6 7 7 11 8 8 9 10 10 9 11 12 12 14 13
REMARK SMILES IDX 13 14
REMARK H PARENT
REMARK Flexibility Score: inf
ROOT
ATOM      1  C   UNL     1       5.551   1.906   1.286  1.00  0.00     0.080 C 
ENDROOT
BRANCH   1   2
ATOM      2  C   UNL     1       5.123   0.684   2.022  1.00  0.00     0.130 C 
ATOM      3  C   UNL     1       6.030  -0.482   2.194  1.00  0.00     0.087 C 
ATOM      4  O   UNL     1       4.006   0.604   2.507  1.00  0.00    -0.300 OA
ENDBRANCH   1   2
BRANCH   1   5
ATOM      5  C   UNL     1       5.417   1.722  -0.212  1.00  0.00     0.043 C 
BRANCH   5   6
ATOM      6  C   UNL     1       6.581   1.021  -0.783  1.00  0.00    -0.044 A 
ATOM      7  C   UNL     1       7.889   1.450  -0.534  1.00  0.00     0.008 A 
ATOM      8  C   UNL     1       6.388  -0.086  -1.578  1.00  0.00     0.054 A 
ATOM      9  C   UNL     1       8.943   0.752  -1.096  1.00  0.00     0.051 A 
ATOM     10  C   UNL     1       7.456  -0.789  -2.144  1.00  0.00     0.166 A 
ATOM     11  C   UNL     1       8.744  -0.366  -1.901  1.00  0.00     0.165 A 
ATOM     12  O   UNL     1       7.524  -1.900  -2.957  1.00  0.00    -0.454 OA
ATOM     13  O   UNL     1       9.585  -1.236  -2.576  1.00  0.00    -0.454 OA
ATOM     14  C   UNL     1       8.858  -2.277  -3.184  1.00  0.00     0.468 C 
ENDBRANCH   5   6
ENDBRANCH   1   5
TORSDOF 3
ENDMDL
MODEL 2
REMARK VINA RESULT:      -7.3      1.939      2.410
REMARK SMILES CC(=O)CCc1ccc2c(c1)OCO2
REMARK SMILES IDX 4 1 2 2 1 3 3 4 5 5 6 6 7 7 11 8 8 9 10 10 9 11 12 12 14 13
REMARK SMILES IDX 13 14
REMARK H PARENT
REMARK Flexibility Score: inf
ROOT
ATOM      1  C   UNL     1       5.731   1.188  -0.317  1.00  0.00     0.080 C 
ENDROOT
BRANCH   1   2
ATOM      2  C   UNL     1       5.205   1.187   1.077  1.00  0.00     0.130 C 
ATOM      3  C   UNL     1       5.393   0.021   1.981  1.00  0.00     0.087 C 
ATOM      4  O   UNL     1       4.600   2.150   1.519  1.00  0.00    -0.300 OA
ENDBRANCH   1   2
BRANCH   1   5
ATOM      5  C   UNL     1       7.240   1.039  -0.336  1.00  0.00     0.043 C 
BRANCH   5   6
ATOM      6  C   UNL     1       7.654  -0.246  -0.926  1.00  0.00    -0.044 A 
ATOM      7  C   UNL     1       7.826  -0.397  -2.307  1.00  0.00     0.008 A 
ATOM      8  C   UNL     1       7.884  -1.330  -0.109  1.00  0.00     0.054 A 
ATOM      9  C   UNL     1       8.217  -1.627  -2.804  1.00  0.00     0.051 A 
ATOM     10  C   UNL     1       8.280  -2.571  -0.617  1.00  0.00     0.166 A 
ATOM     11  C   UNL     1       8.448  -2.720  -1.975  1.00  0.00     0.165 A 
ATOM     12  O   UNL     1       8.565  -3.782  -0.022  1.00  0.00    -0.454 OA
ATOM     13  O   UNL     1       8.837  -4.033  -2.189  1.00  0.00    -0.454 OA
ATOM     14  C   UNL     1       9.011  -4.716  -0.970  1.00  0.00     0.468 C 
ENDBRANCH   5   6
ENDBRANCH   1   5
TORSDOF 3
ENDMDL
MODEL 3
REMARK VINA RESULT:      -7.1      2.052      2.585
REMARK SMILES CC(=O)CCc1ccc2c(c1)OCO2
REMARK SMILES IDX 4 1 2 2 1 3 3 4 5 5 6 6 7 7 11 8 8 9 10 10 9 11 12 12 14 13
REMARK SMILES IDX 13 14
REMARK H PARENT
REMARK Flexibility Score: inf
ROOT
ATOM      1  C   UNL     1       5.594   0.027   1.949  1.00  0.00     0.080 C 
ENDROOT
BRANCH   1   2
ATOM      2  C   UNL     1       4.685   1.166   1.641  1.00  0.00     0.130 C 
ATOM      3  C   UNL     1       4.966   2.109   0.525  1.00  0.00     0.087 C 
ATOM      4  O   UNL     1       3.676   1.360   2.300  1.00  0.00    -0.300 OA
ENDBRANCH   1   2
BRANCH   1   5
ATOM      5  C   UNL     1       6.998   0.290   1.442  1.00  0.00     0.043 C 
BRANCH   5   6
ATOM      6  C   UNL     1       7.388  -0.668   0.393  1.00  0.00    -0.044 A 
ATOM      7  C   UNL     1       7.275  -0.354  -0.966  1.00  0.00     0.008 A 
ATOM      8  C   UNL     1       7.880  -1.904   0.746  1.00  0.00     0.054 A 
ATOM      9  C   UNL     1       7.658  -1.293  -1.907  1.00  0.00     0.051 A 
ATOM     10  C   UNL     1       8.266  -2.850  -0.208  1.00  0.00     0.166 A 
ATOM     11  C   UNL     1       8.154  -2.542  -1.546  1.00  0.00     0.165 A 
ATOM     12  O   UNL     1       8.776  -4.127  -0.112  1.00  0.00    -0.454 OA
ATOM     13  O   UNL     1       8.603  -3.647  -2.251  1.00  0.00    -0.454 OA
ATOM     14  C   UNL     1       9.091  -4.641  -1.381  1.00  0.00     0.468 C 
ENDBRANCH   5   6
ENDBRANCH   1   5
TORSDOF 3
ENDMDL
MODEL 4
REMARK VINA RESULT:      -7.0      1.256      1.470
REMARK SMILES CC(=O)CCc1ccc2c(c1)OCO2
REMARK SMILES IDX 4 1 2 2 1 3 3 4 5 5 6 6 7 7 11 8 8 9 10 10 9 11 12 12 14 13
REMARK SMILES IDX 13 14
REMARK H PARENT
REMARK Flexibility Score: inf
ROOT
ATOM      1  C   UNL     1       6.389   1.179   0.953  1.00  0.00     0.080 C 
ENDROOT
BRANCH   1   2
ATOM      2  C   UNL     1       5.647   0.366   1.957  1.00  0.00     0.130 C 
ATOM      3  C   UNL     1       6.233  -0.865   2.551  1.00  0.00     0.087 C 
ATOM      4  O   UNL     1       4.528   0.689   2.321  1.00  0.00    -0.300 OA
ENDBRANCH   1   2
BRANCH   1   5
ATOM      5  C   UNL     1       5.880   0.920  -0.451  1.00  0.00     0.043 C 
BRANCH   5   6
ATOM      6  C   UNL     1       6.821   0.094  -1.229  1.00  0.00    -0.044 A 
ATOM      7  C   UNL     1       7.489   0.602  -2.349  1.00  0.00     0.008 A 
ATOM      8  C   UNL     1       7.058  -1.208  -0.853  1.00  0.00     0.054 A 
ATOM      9  C   UNL     1       8.361  -0.219  -3.040  1.00  0.00     0.051 A 
ATOM     10  C   UNL     1       7.941  -2.035  -1.554  1.00  0.00     0.166 A 
ATOM     11  C   UNL     1       8.598  -1.536  -2.657  1.00  0.00     0.165 A 
ATOM     12  O   UNL     1       8.339  -3.343  -1.384  1.00  0.00    -0.454 OA
ATOM     13  O   UNL     1       9.395  -2.559  -3.146  1.00  0.00    -0.454 OA
ATOM     14  C   UNL     1       9.331  -3.694  -2.315  1.00  0.00     0.468 C 
ENDBRANCH   5   6
ENDBRANCH   1   5
TORSDOF 3
ENDMDL
MODEL 5
REMARK VINA RESULT:      -6.8      1.938      2.498
REMARK SMILES CC(=O)CCc1ccc2c(c1)OCO2
REMARK SMILES IDX 4 1 2 2 1 3 3 4 5 5 6 6 7 7 11 8 8 9 10 10 9 11 12 12 14 13
REMARK SMILES IDX 13 14
REMARK H PARENT
REMARK Flexibility Score: inf
ROOT
ATOM      1  C   UNL     1       6.905   0.954   1.203  1.00  0.00     0.080 C 
ENDROOT
BRANCH   1   2
ATOM      2  C   UNL     1       5.456   1.126   1.501  1.00  0.00     0.130 C 
ATOM      3  C   UNL     1       4.632   2.150   0.804  1.00  0.00     0.087 C 
ATOM      4  O   UNL     1       4.899   0.427   2.332  1.00  0.00    -0.300 OA
ENDBRANCH   1   2
BRANCH   1   5
ATOM      5  C   UNL     1       7.181   1.081  -0.282  1.00  0.00     0.043 C 
BRANCH   5   6
ATOM      6  C   UNL     1       7.558  -0.212  -0.881  1.00  0.00    -0.044 A 
ATOM      7  C   UNL     1       7.587  -0.398  -2.267  1.00  0.00     0.008 A 
ATOM      8  C   UNL     1       7.894  -1.269  -0.065  1.00  0.00     0.054 A 
ATOM      9  C   UNL     1       7.950  -1.633  -2.772  1.00  0.00     0.051 A 
ATOM     10  C   UNL     1       8.261  -2.516  -0.580  1.00  0.00     0.166 A 
ATOM     11  C   UNL     1       8.289  -2.700  -1.945  1.00  0.00     0.165 A 
ATOM     12  O   UNL     1       8.632  -3.705   0.012  1.00  0.00    -0.454 OA
ATOM     13  O   UNL     1       8.681  -4.011  -2.165  1.00  0.00    -0.454 OA
ATOM     14  C   UNL     1       8.997  -4.657  -0.955  1.00  0.00     0.468 C 
ENDBRANCH   5   6
ENDBRANCH   1   5
TORSDOF 3
ENDMDL
