@<TRIPOS>MOLECULE
/home/cewinharhar/GITHUB/reincatalyze/data/processed/docking_pred/2023-May-23-1437_sub9_nm5_bs15_s42_ex16_mel10_mts10000_k50_ec02_g099_lra3e-4_lrc1e-3/eb9358f7bad4db9539b7d0967c6d7dee777b6146_ligand_9.pdbqt
 14 15 0 0 0
SMALL
GASTEIGER

@<TRIPOS>ATOM
      1  C          6.5690    0.3310    1.4320 C.3     1  UNL1        0.0800
      2  C          6.1190    0.7120    0.0630 C.2     1  UNL1        0.1300
      3  C          5.2810    1.9170   -0.1760 C.3     1  UNL1        0.0870
      4  O          6.4290    0.0400   -0.9070 O.2     1  UNL1       -0.3000
      5  C          6.6500   -1.1750    1.5850 C.3     1  UNL1        0.0430
      6  C          7.8010   -1.5790    2.4110 C.2     1  UNL1       -0.0440
      7  C          7.8560   -1.2970    3.7810 C.2     1  UNL1        0.0080
      8  C          8.8530   -2.2520    1.8320 C.2     1  UNL1        0.0540
      9  C          8.9620   -1.7020    4.5050 C.2     1  UNL1        0.0510
     10  C          9.9690   -2.6590    2.5690 C.2     1  UNL1        0.1660
     11  C         10.0240   -2.3820    3.9170 C.2     1  UNL1        0.1650
     12  O         11.1250   -3.3310    2.2310 O.2     1  UNL1       -0.4540
     13  O         11.2250   -2.8940    4.3830 O.2     1  UNL1       -0.4540
     14  C         11.9120   -3.5840    3.3660 C.3     1  UNL1        0.4680
@<TRIPOS>BOND
     1     4     2    2
     2     3     2    1
     3     2     1    1
     4     1     5    1
     5     5     6    1
     6     8     6    2
     7     8    10    1
     8    12    10    1
     9    12    14    1
    10     6     7    1
    11    10    11    2
    12    14    13    1
    13     7     9    2
    14    11    13    1
    15    11     9    1
