@<TRIPOS>MOLECULE
/home/cewinharhar/GITHUB/reincatalyze/data/processed/docking_pred/2023-May-23-1437_sub9_nm5_bs15_s42_ex16_mel10_mts10000_k50_ec02_g099_lra3e-4_lrc1e-3/eb9358f7bad4db9539b7d0967c6d7dee777b6146_ligand_9.pdbqt
 14 15 0 0 0
SMALL
GASTEIGER

@<TRIPOS>ATOM
      1  C          5.4910    1.9200    1.2540 C.3     1  UNL1        0.0800
      2  C          4.9860    0.7190    1.9760 C.2     1  UNL1        0.1300
      3  C          5.7830   -0.5340    2.0600 C.3     1  UNL1        0.0870
      4  O          3.8950    0.7290    2.5230 O.2     1  UNL1       -0.3000
      5  C          5.3840    1.7450   -0.2480 C.3     1  UNL1        0.0430
      6  C          6.5560    1.0440   -0.8010 C.2     1  UNL1       -0.0440
      7  C          7.8610    1.4770   -0.5380 C.2     1  UNL1        0.0080
      8  C          6.3750   -0.0650   -1.5960 C.2     1  UNL1        0.0540
      9  C          8.9220    0.7790   -1.0840 C.2     1  UNL1        0.0510
     10  C          7.4520   -0.7680   -2.1450 C.2     1  UNL1        0.1660
     11  C          8.7360   -0.3420   -1.8870 C.2     1  UNL1        0.1650
     12  O          7.5330   -1.8810   -2.9540 O.2     1  UNL1       -0.4540
     13  O          9.5880   -1.2120   -2.5490 O.2     1  UNL1       -0.4540
     14  C          8.8710   -2.2560   -3.1630 C.3     1  UNL1        0.4680
@<TRIPOS>BOND
     1    14    12    1
     2    14    13    1
     3    12    10    1
     4    13    11    1
     5    10    11    2
     6    10     8    1
     7    11     9    1
     8     8     6    2
     9     9     7    2
    10     6     7    1
    11     6     5    1
    12     5     1    1
    13     1     2    1
    14     2     3    1
    15     2     4    2
