MODEL 1
REMARK VINA RESULT:      -7.5      0.000      0.000
REMARK SMILES CC(=O)CCc1ccc2c(c1)OCO2
REMARK SMILES IDX 4 1 2 2 1 3 3 4 5 5 6 6 7 7 11 8 8 9 10 10 9 11 12 12 14 13
REMARK SMILES IDX 13 14
REMARK H PARENT
REMARK Flexibility Score: inf
ROOT
ATOM      1  C   UNL     1       5.596  -0.216   1.959  1.00  0.00     0.080 C 
ENDROOT
BRANCH   1   2
ATOM      2  C   UNL     1       5.356   0.992   1.120  1.00  0.00     0.130 C 
ATOM      3  C   UNL     1       5.857   1.084  -0.277  1.00  0.00     0.087 C 
ATOM      4  O   UNL     1       4.737   1.947   1.560  1.00  0.00    -0.300 OA
ENDBRANCH   1   2
BRANCH   1   5
ATOM      5  C   UNL     1       6.558  -1.173   1.283  1.00  0.00     0.043 C 
BRANCH   5   6
ATOM      6  C   UNL     1       7.674  -1.543   2.171  1.00  0.00    -0.044 A 
ATOM      7  C   UNL     1       7.680  -1.194   3.527  1.00  0.00     0.008 A 
ATOM      8  C   UNL     1       8.741  -2.252   1.667  1.00  0.00     0.054 A 
ATOM      9  C   UNL     1       8.754  -1.570   4.312  1.00  0.00     0.051 A 
ATOM     10  C   UNL     1       9.824  -2.631   2.466  1.00  0.00     0.166 A 
ATOM     11  C   UNL     1       9.831  -2.286   3.799  1.00  0.00     0.165 A 
ATOM     12  O   UNL     1      10.986  -3.326   2.205  1.00  0.00    -0.454 OA
ATOM     13  O   UNL     1      11.009  -2.783   4.335  1.00  0.00    -0.454 OA
ATOM     14  C   UNL     1      11.727  -3.528   3.381  1.00  0.00     0.468 C 
ENDBRANCH   5   6
ENDBRANCH   1   5
TORSDOF 3
ENDMDL
MODEL 2
REMARK VINA RESULT:      -7.3      3.913      4.916
REMARK SMILES CC(=O)CCc1ccc2c(c1)OCO2
REMARK SMILES IDX 4 1 2 2 1 3 3 4 5 5 6 6 7 7 11 8 8 9 10 10 9 11 12 12 14 13
REMARK SMILES IDX 13 14
REMARK H PARENT
REMARK Flexibility Score: inf
ROOT
ATOM      1  C   UNL     1       5.491   1.920   1.254  1.00  0.00     0.080 C 
ENDROOT
BRANCH   1   2
ATOM      2  C   UNL     1       4.986   0.719   1.976  1.00  0.00     0.130 C 
ATOM      3  C   UNL     1       5.783  -0.534   2.060  1.00  0.00     0.087 C 
ATOM      4  O   UNL     1       3.895   0.729   2.523  1.00  0.00    -0.300 OA
ENDBRANCH   1   2
BRANCH   1   5
ATOM      5  C   UNL     1       5.384   1.745  -0.248  1.00  0.00     0.043 C 
BRANCH   5   6
ATOM      6  C   UNL     1       6.556   1.044  -0.801  1.00  0.00    -0.044 A 
ATOM      7  C   UNL     1       7.861   1.477  -0.538  1.00  0.00     0.008 A 
ATOM      8  C   UNL     1       6.375  -0.065  -1.596  1.00  0.00     0.054 A 
ATOM      9  C   UNL     1       8.922   0.779  -1.084  1.00  0.00     0.051 A 
ATOM     10  C   UNL     1       7.452  -0.768  -2.145  1.00  0.00     0.166 A 
ATOM     11  C   UNL     1       8.736  -0.342  -1.887  1.00  0.00     0.165 A 
ATOM     12  O   UNL     1       7.533  -1.881  -2.954  1.00  0.00    -0.454 OA
ATOM     13  O   UNL     1       9.588  -1.212  -2.549  1.00  0.00    -0.454 OA
ATOM     14  C   UNL     1       8.871  -2.256  -3.163  1.00  0.00     0.468 C 
ENDBRANCH   5   6
ENDBRANCH   1   5
TORSDOF 3
ENDMDL
MODEL 3
REMARK VINA RESULT:      -7.1      3.210      4.375
REMARK SMILES CC(=O)CCc1ccc2c(c1)OCO2
REMARK SMILES IDX 4 1 2 2 1 3 3 4 5 5 6 6 7 7 11 8 8 9 10 10 9 11 12 12 14 13
REMARK SMILES IDX 13 14
REMARK H PARENT
REMARK Flexibility Score: inf
ROOT
ATOM      1  C   UNL     1       5.654   1.403  -0.327  1.00  0.00     0.080 C 
ENDROOT
BRANCH   1   2
ATOM      2  C   UNL     1       5.107   1.301   1.055  1.00  0.00     0.130 C 
ATOM      3  C   UNL     1       5.469   0.175   1.957  1.00  0.00     0.087 C 
ATOM      4  O   UNL     1       4.341   2.146   1.489  1.00  0.00    -0.300 OA
ENDBRANCH   1   2
BRANCH   1   5
ATOM      5  C   UNL     1       7.159   1.226  -0.338  1.00  0.00     0.043 C 
BRANCH   5   6
ATOM      6  C   UNL     1       7.555  -0.052  -0.957  1.00  0.00    -0.044 A 
ATOM      7  C   UNL     1       7.658  -0.193  -2.346  1.00  0.00     0.008 A 
ATOM      8  C   UNL     1       7.834  -1.138  -0.160  1.00  0.00     0.054 A 
ATOM      9  C   UNL     1       8.035  -1.416  -2.870  1.00  0.00     0.051 A 
ATOM     10  C   UNL     1       8.215  -2.373  -0.695  1.00  0.00     0.166 A 
ATOM     11  C   UNL     1       8.316  -2.512  -2.061  1.00  0.00     0.165 A 
ATOM     12  O   UNL     1       8.539  -3.585  -0.123  1.00  0.00    -0.454 OA
ATOM     13  O   UNL     1       8.705  -3.821  -2.303  1.00  0.00    -0.454 OA
ATOM     14  C   UNL     1       8.946  -4.510  -1.099  1.00  0.00     0.468 C 
ENDBRANCH   5   6
ENDBRANCH   1   5
TORSDOF 3
ENDMDL
MODEL 4
REMARK VINA RESULT:      -7.0      0.982      1.941
REMARK SMILES CC(=O)CCc1ccc2c(c1)OCO2
REMARK SMILES IDX 4 1 2 2 1 3 3 4 5 5 6 6 7 7 11 8 8 9 10 10 9 11 12 12 14 13
REMARK SMILES IDX 13 14
REMARK H PARENT
REMARK Flexibility Score: inf
ROOT
ATOM      1  C   UNL     1       5.375  -0.092   1.950  1.00  0.00     0.080 C 
ENDROOT
BRANCH   1   2
ATOM      2  C   UNL     1       5.308   1.086   1.041  1.00  0.00     0.130 C 
ATOM      3  C   UNL     1       5.856   1.037  -0.341  1.00  0.00     0.087 C 
ATOM      4  O   UNL     1       4.799   2.132   1.407  1.00  0.00    -0.300 OA
ENDBRANCH   1   2
BRANCH   1   5
ATOM      5  C   UNL     1       6.113  -1.247   1.303  1.00  0.00     0.043 C 
BRANCH   5   6
ATOM      6  C   UNL     1       7.362  -1.566   2.017  1.00  0.00    -0.044 A 
ATOM      7  C   UNL     1       8.387  -2.300   1.408  1.00  0.00     0.008 A 
ATOM      8  C   UNL     1       7.537  -1.136   3.312  1.00  0.00     0.054 A 
ATOM      9  C   UNL     1       9.538  -2.569   2.127  1.00  0.00     0.051 A 
ATOM     10  C   UNL     1       8.702  -1.410   4.035  1.00  0.00     0.166 A 
ATOM     11  C   UNL     1       9.711  -2.133   3.437  1.00  0.00     0.165 A 
ATOM     12  O   UNL     1       9.109  -1.099   5.315  1.00  0.00    -0.454 OA
ATOM     13  O   UNL     1      10.727  -2.251   4.372  1.00  0.00    -0.454 OA
ATOM     14  C   UNL     1      10.425  -1.533   5.545  1.00  0.00     0.468 C 
ENDBRANCH   5   6
ENDBRANCH   1   5
TORSDOF 3
ENDMDL
MODEL 5
REMARK VINA RESULT:      -7.0      1.097      1.120
REMARK SMILES CC(=O)CCc1ccc2c(c1)OCO2
REMARK SMILES IDX 4 1 2 2 1 3 3 4 5 5 6 6 7 7 11 8 8 9 10 10 9 11 12 12 14 13
REMARK SMILES IDX 13 14
REMARK H PARENT
REMARK Flexibility Score: inf
ROOT
ATOM      1  C   UNL     1       6.569   0.331   1.432  1.00  0.00     0.080 C 
ENDROOT
BRANCH   1   2
ATOM      2  C   UNL     1       6.119   0.712   0.063  1.00  0.00     0.130 C 
ATOM      3  C   UNL     1       5.281   1.917  -0.176  1.00  0.00     0.087 C 
ATOM      4  O   UNL     1       6.429   0.040  -0.907  1.00  0.00    -0.300 OA
ENDBRANCH   1   2
BRANCH   1   5
ATOM      5  C   UNL     1       6.650  -1.175   1.585  1.00  0.00     0.043 C 
BRANCH   5   6
ATOM      6  C   UNL     1       7.801  -1.579   2.411  1.00  0.00    -0.044 A 
ATOM      7  C   UNL     1       7.856  -1.297   3.781  1.00  0.00     0.008 A 
ATOM      8  C   UNL     1       8.853  -2.252   1.832  1.00  0.00     0.054 A 
ATOM      9  C   UNL     1       8.962  -1.702   4.505  1.00  0.00     0.051 A 
ATOM     10  C   UNL     1       9.969  -2.659   2.569  1.00  0.00     0.166 A 
ATOM     11  C   UNL     1      10.024  -2.382   3.917  1.00  0.00     0.165 A 
ATOM     12  O   UNL     1      11.125  -3.331   2.231  1.00  0.00    -0.454 OA
ATOM     13  O   UNL     1      11.225  -2.894   4.383  1.00  0.00    -0.454 OA
ATOM     14  C   UNL     1      11.912  -3.584   3.366  1.00  0.00     0.468 C 
ENDBRANCH   5   6
ENDBRANCH   1   5
TORSDOF 3
ENDMDL
