@<TRIPOS>MOLECULE
/home/cewinharhar/GITHUB/reincatalyze/data/processed/docking_pred/2023-May-23-1437_sub9_nm5_bs15_s42_ex16_mel10_mts10000_k50_ec02_g099_lra3e-4_lrc1e-3/ebaba25497d2d3047300f44322ccacaaeed3cb61_ligand_9.pdbqt
 14 15 0 0 0
SMALL
GASTEIGER

@<TRIPOS>ATOM
      1  C          5.7410    1.2900   -0.3190 C.3     1  UNL1        0.0800
      2  C          5.2000    1.2370    1.0670 C.2     1  UNL1        0.1300
      3  C          5.4610    0.0800    1.9640 C.3     1  UNL1        0.0870
      4  O          4.5200    2.1500    1.5100 O.2     1  UNL1       -0.3000
      5  C          7.2450    1.1000   -0.3300 C.3     1  UNL1        0.0430
      6  C          7.6280   -0.1940   -0.9240 C.2     1  UNL1       -0.0440
      7  C          7.7380   -0.3610   -2.3090 C.2     1  UNL1        0.0080
      8  C          7.8880   -1.2690   -0.1050 C.2     1  UNL1        0.0540
      9  C          8.1020   -1.5980   -2.8090 C.2     1  UNL1        0.0510
     10  C          8.2570   -2.5180   -0.6150 C.2     1  UNL1        0.1660
     11  C          8.3640   -2.6840   -1.9780 C.2     1  UNL1        0.1650
     12  O          8.5620   -3.7230   -0.0200 O.2     1  UNL1       -0.4540
     13  O          8.7380   -4.0010   -2.1940 O.2     1  UNL1       -0.4540
     14  C          8.9630   -4.6710   -0.9760 C.3     1  UNL1        0.4680
@<TRIPOS>BOND
     1     9     7    1
     2     9    11    2
     3     7     6    2
     4    13    11    1
     5    13    14    1
     6    11    10    1
     7    14    12    1
     8     6     5    1
     9     6     8    1
    10    10     8    2
    11    10    12    1
    12     5     1    1
    13     1     2    1
    14     2     4    2
    15     2     3    1
