@<TRIPOS>MOLECULE
/home/cewinharhar/GITHUB/reincatalyze/data/processed/docking_pred/2023-May-23-1437_sub9_nm5_bs15_s42_ex16_mel10_mts10000_k50_ec02_g099_lra3e-4_lrc1e-3/ebaba25497d2d3047300f44322ccacaaeed3cb61_ligand_9.pdbqt
 14 15 0 0 0
SMALL
GASTEIGER

@<TRIPOS>ATOM
      1  C          6.3500    1.2050    0.9530 C.3     1  UNL1        0.0800
      2  C          5.6590    0.3560    1.9640 C.2     1  UNL1        0.1300
      3  C          6.3030   -0.8580    2.5350 C.3     1  UNL1        0.0870
      4  O          4.5370    0.6340    2.3540 O.2     1  UNL1       -0.3000
      5  C          5.8370    0.9230   -0.4450 C.3     1  UNL1        0.0430
      6  C          6.7900    0.1140   -1.2250 C.2     1  UNL1       -0.0440
      7  C          7.4780    0.6450   -2.3220 C.2     1  UNL1        0.0080
      8  C          7.0200   -1.1970   -0.8720 C.2     1  UNL1        0.0540
      9  C          8.3610   -0.1620   -3.0150 C.2     1  UNL1        0.0510
     10  C          7.9150   -2.0090   -1.5760 C.2     1  UNL1        0.1660
     11  C          8.5910   -1.4870   -2.6570 C.2     1  UNL1        0.1650
     12  O          8.3090   -3.3210   -1.4270 O.2     1  UNL1       -0.4540
     13  O          9.3960   -2.5000   -3.1530 O.2     1  UNL1       -0.4540
     14  C          9.3170   -3.6530   -2.3480 C.3     1  UNL1        0.4680
@<TRIPOS>BOND
     1    13    11    1
     2    13    14    1
     3     9    11    2
     4     9     7    1
     5    11    10    1
     6    14    12    1
     7     7     6    2
     8    10    12    1
     9    10     8    2
    10     6     8    1
    11     6     5    1
    12     5     1    1
    13     1     2    1
    14     2     4    2
    15     2     3    1
