@<TRIPOS>MOLECULE
/home/cewinharhar/GITHUB/reincatalyze/data/processed/docking_pred/2023-May-23-1437_sub9_nm5_bs15_s42_ex16_mel10_mts10000_k50_ec02_g099_lra3e-4_lrc1e-3/f15420a79f585431148ea344134f913ab78e73cd_ligand_9.pdbqt
 14 15 0 0 0
SMALL
GASTEIGER

@<TRIPOS>ATOM
      1  C          5.5900    0.0410    1.9620 C.3     1  UNL1        0.0800
      2  C          4.6830    1.1750    1.6300 C.2     1  UNL1        0.1300
      3  C          4.9710    2.1010    0.5020 C.3     1  UNL1        0.0870
      4  O          3.6710    1.3790    2.2800 O.2     1  UNL1       -0.3000
      5  C          6.9970    0.2970    1.4610 C.3     1  UNL1        0.0430
      6  C          7.3950   -0.6760    0.4280 C.2     1  UNL1       -0.0440
      7  C          7.2890   -0.3820   -0.9370 C.2     1  UNL1        0.0080
      8  C          7.8860   -1.9070    0.8020 C.2     1  UNL1        0.0540
      9  C          7.6790   -1.3340   -1.8610 C.2     1  UNL1        0.0510
     10  C          8.2790   -2.8660   -0.1360 C.2     1  UNL1        0.1660
     11  C          8.1740   -2.5770   -1.4790 C.2     1  UNL1        0.1650
     12  O          8.7890   -4.1410   -0.0190 O.2     1  UNL1       -0.4540
     13  O          8.6280   -3.6930   -2.1650 O.2     1  UNL1       -0.4540
     14  C          9.1120   -4.6730   -1.2780 C.3     1  UNL1        0.4680
@<TRIPOS>BOND
     1    13    11    1
     2    13    14    1
     3     9    11    2
     4     9     7    1
     5    11    10    1
     6    14    12    1
     7     7     6    2
     8    10    12    1
     9    10     8    2
    10     6     8    1
    11     6     5    1
    12     3     2    1
    13     5     1    1
    14     2     1    1
    15     2     4    2
