@<TRIPOS>MOLECULE
/home/cewinharhar/GITHUB/reincatalyze/data/processed/docking_pred/2023-May-23-1437_sub9_nm5_bs15_s42_ex16_mel10_mts10000_k50_ec02_g099_lra3e-4_lrc1e-3/f1acaff2cf7a86b9bbc999bfeecc6491fc2a0881_ligand_9.pdbqt
 14 15 0 0 0
SMALL
GASTEIGER

@<TRIPOS>ATOM
      1  C          5.7780    1.4000   -0.2690 C.3     1  UNL1        0.0800
      2  C          5.1090    1.2920    1.0580 C.2     1  UNL1        0.1300
      3  C          5.3610    0.1430    1.9680 C.3     1  UNL1        0.0870
      4  O          4.3290    2.1500    1.4380 O.2     1  UNL1       -0.3000
      5  C          7.2620    1.1110   -0.1620 C.3     1  UNL1        0.0430
      6  C          7.6140   -0.1790   -0.7800 C.2     1  UNL1       -0.0440
      7  C          7.6450   -0.3430   -2.1700 C.2     1  UNL1        0.0080
      8  C          7.9240   -1.2560    0.0190 C.2     1  UNL1        0.0540
      9  C          7.9830   -1.5780   -2.6930 C.2     1  UNL1        0.0510
     10  C          8.2660   -2.5020   -0.5140 C.2     1  UNL1        0.1660
     11  C          8.2950   -2.6640   -1.8820 C.2     1  UNL1        0.1650
     12  O          8.6080   -3.7080    0.0590 O.2     1  UNL1       -0.4540
     13  O          8.6600   -3.9800   -2.1220 O.2     1  UNL1       -0.4540
     14  C          8.9560   -4.6520   -0.9210 C.3     1  UNL1        0.4680
@<TRIPOS>BOND
     1     9     7    1
     2     9    11    2
     3     7     6    2
     4    13    11    1
     5    13    14    1
     6    11    10    1
     7    14    12    1
     8     6     5    1
     9     6     8    1
    10    10     8    2
    11    10    12    1
    12     1     5    1
    13     1     2    1
    14     2     4    2
    15     2     3    1
