@<TRIPOS>MOLECULE
/home/cewinharhar/GITHUB/reincatalyze/data/processed/docking_pred/2023-May-23-1437_sub9_nm5_bs15_s42_ex16_mel10_mts10000_k50_ec02_g099_lra3e-4_lrc1e-3/f1acaff2cf7a86b9bbc999bfeecc6491fc2a0881_ligand_9.pdbqt
 14 15 0 0 0
SMALL
GASTEIGER

@<TRIPOS>ATOM
      1  C          5.3040   -0.0790    1.9600 C.3     1  UNL1        0.0800
      2  C          4.4290    1.1140    1.7850 C.2     1  UNL1        0.1300
      3  C          4.7150    2.1480    0.7550 C.3     1  UNL1        0.0870
      4  O          3.4450    1.2770    2.4880 O.2     1  UNL1       -0.3000
      5  C          6.7700    0.3010    1.9010 C.3     1  UNL1        0.0430
      6  C          7.3750   -0.0550    0.6050 C.2     1  UNL1       -0.0440
      7  C          7.8560    0.9230   -0.2730 C.2     1  UNL1        0.0080
      8  C          7.4760   -1.3780    0.2400 C.2     1  UNL1        0.0540
      9  C          8.4140    0.5300   -1.4750 C.2     1  UNL1        0.0510
     10  C          8.0420   -1.7710   -0.9770 C.2     1  UNL1        0.1660
     11  C          8.5150   -0.8090   -1.8420 C.2     1  UNL1        0.1650
     12  O          8.2540   -3.0020   -1.5610 O.2     1  UNL1       -0.4540
     13  O          9.0130   -1.4760   -2.9500 O.2     1  UNL1       -0.4540
     14  C          8.9500   -2.8710   -2.7740 C.3     1  UNL1        0.4680
@<TRIPOS>BOND
     1    13    14    1
     2    13    11    1
     3    14    12    1
     4    11     9    2
     5    11    10    1
     6    12    10    1
     7     9     7    1
     8    10     8    2
     9     7     6    2
    10     8     6    1
    11     6     5    1
    12     3     2    1
    13     2     1    1
    14     2     4    2
    15     5     1    1
