@<TRIPOS>MOLECULE
/home/cewinharhar/GITHUB/reincatalyze/data/processed/docking_pred/2023-May-23-1437_sub9_nm5_bs15_s42_ex16_mel10_mts10000_k50_ec02_g099_lra3e-4_lrc1e-3/f30ba497e043f8369d09a0e37081e2f7bff27f85_ligand_9.pdbqt
 14 15 0 0 0
SMALL
GASTEIGER

@<TRIPOS>ATOM
      1  C          5.5680    0.0010    1.8670 C.3     1  UNL1        0.0800
      2  C          4.6790    1.1610    1.5820 C.2     1  UNL1        0.1300
      3  C          4.9620    2.1070    0.4700 C.3     1  UNL1        0.0870
      4  O          3.6860    1.3700    2.2600 O.2     1  UNL1       -0.3000
      5  C          6.9810    0.2570    1.3790 C.3     1  UNL1        0.0430
      6  C          7.3900   -0.7210    0.3550 C.2     1  UNL1       -0.0440
      7  C          7.2900   -0.4370   -1.0120 C.2     1  UNL1        0.0080
      8  C          7.8870   -1.9450    0.7410 C.2     1  UNL1        0.0540
      9  C          7.6910   -1.3930   -1.9270 C.2     1  UNL1        0.0510
     10  C          8.2920   -2.9080   -0.1880 C.2     1  UNL1        0.1660
     11  C          8.1930   -2.6300   -1.5330 C.2     1  UNL1        0.1650
     12  O          8.8100   -4.1790   -0.0590 O.2     1  UNL1       -0.4540
     13  O          8.6580   -3.7470   -2.2090 O.2     1  UNL1       -0.4540
     14  C          9.1440   -4.7180   -1.3130 C.3     1  UNL1        0.4680
@<TRIPOS>BOND
     1    13    11    1
     2    13    14    1
     3     9    11    2
     4     9     7    1
     5    11    10    1
     6    14    12    1
     7     7     6    2
     8    10    12    1
     9    10     8    2
    10     6     8    1
    11     6     5    1
    12     3     2    1
    13     5     1    1
    14     2     1    1
    15     2     4    2
