@<TRIPOS>MOLECULE
/home/cewinharhar/GITHUB/reincatalyze/data/processed/docking_pred/2023-May-23-1437_sub9_nm5_bs15_s42_ex16_mel10_mts10000_k50_ec02_g099_lra3e-4_lrc1e-3/f30ba497e043f8369d09a0e37081e2f7bff27f85_ligand_9.pdbqt
 14 15 0 0 0
SMALL
GASTEIGER

@<TRIPOS>ATOM
      1  C          6.3770    1.2270    0.9200 C.3     1  UNL1        0.0800
      2  C          5.6530    0.4060    1.9300 C.2     1  UNL1        0.1300
      3  C          6.2640   -0.8110    2.5290 C.3     1  UNL1        0.0870
      4  O          4.5300    0.7110    2.2970 O.2     1  UNL1       -0.3000
      5  C          5.8710    0.9470   -0.4820 C.3     1  UNL1        0.0430
      6  C          6.8180    0.1180   -1.2480 C.2     1  UNL1       -0.0440
      7  C          7.5030    0.6240   -2.3590 C.2     1  UNL1        0.0080
      8  C          7.0440   -1.1860   -0.8700 C.2     1  UNL1        0.0540
      9  C          8.3810   -0.2010   -3.0390 C.2     1  UNL1        0.0510
     10  C          7.9330   -2.0160   -1.5610 C.2     1  UNL1        0.1660
     11  C          8.6060   -1.5190   -2.6550 C.2     1  UNL1        0.1650
     12  O          8.3230   -3.3270   -1.3870 O.2     1  UNL1       -0.4540
     13  O          9.4050   -2.5450   -3.1340 O.2     1  UNL1       -0.4540
     14  C          9.3250   -3.6810   -2.3060 C.3     1  UNL1        0.4680
@<TRIPOS>BOND
     1    13    11    1
     2    13    14    1
     3     9    11    2
     4     9     7    1
     5    11    10    1
     6     7     6    2
     7    14    12    1
     8    10    12    1
     9    10     8    2
    10     6     8    1
    11     6     5    1
    12     5     1    1
    13     1     2    1
    14     2     4    2
    15     2     3    1
