@<TRIPOS>MOLECULE
/home/cewinharhar/GITHUB/reincatalyze/data/processed/docking_pred/2023-May-23-1437_sub9_nm5_bs15_s42_ex16_mel10_mts10000_k50_ec02_g099_lra3e-4_lrc1e-3/f30ba497e043f8369d09a0e37081e2f7bff27f85_ligand_9.pdbqt
 14 15 0 0 0
SMALL
GASTEIGER

@<TRIPOS>ATOM
      1  C          6.8300    0.7000    1.0660 C.3     1  UNL1        0.0800
      2  C          5.4350    1.0820    1.4210 C.2     1  UNL1        0.1300
      3  C          4.7070    2.1500    0.6850 C.3     1  UNL1        0.0870
      4  O          4.8460    0.5270    2.3340 O.2     1  UNL1       -0.3000
      5  C          7.0730    0.8240   -0.4250 C.3     1  UNL1        0.0430
      6  C          7.5780   -0.4340   -1.0030 C.2     1  UNL1       -0.0440
      7  C          7.8550   -0.5530   -2.3700 C.2     1  UNL1        0.0080
      8  C          7.7880   -1.5230   -0.1890 C.2     1  UNL1        0.0540
      9  C          8.3280   -1.7580   -2.8570 C.2     1  UNL1        0.0510
     10  C          8.2670   -2.7390   -0.6860 C.2     1  UNL1        0.1660
     11  C          8.5380   -2.8580   -2.0300 C.2     1  UNL1        0.1650
     12  O          8.5530   -3.9500   -0.0910 O.2     1  UNL1       -0.4540
     13  O          8.9920   -4.1510   -2.2350 O.2     1  UNL1       -0.4540
     14  C          9.1030   -4.8500   -1.0180 C.3     1  UNL1        0.4680
@<TRIPOS>BOND
     1     9     7    1
     2     9    11    2
     3     7     6    2
     4    13    11    1
     5    13    14    1
     6    11    10    1
     7    14    12    1
     8     6     5    1
     9     6     8    1
    10    10     8    2
    11    10    12    1
    12     5     1    1
    13     3     2    1
    14     1     2    1
    15     2     4    2
