@<TRIPOS>MOLECULE
/home/cewinharhar/GITHUB/reincatalyze/data/processed/docking_pred/2023-May-23-1437_sub9_nm5_bs15_s42_ex16_mel10_mts10000_k50_ec02_g099_lra3e-4_lrc1e-3/f30ba497e043f8369d09a0e37081e2f7bff27f85_ligand_9.pdbqt
 14 15 0 0 0
SMALL
GASTEIGER

@<TRIPOS>ATOM
      1  C          5.7370    1.2810   -0.3050 C.3     1  UNL1        0.0800
      2  C          5.1640    1.2400    1.0690 C.2     1  UNL1        0.1300
      3  C          5.4240    0.1010    1.9900 C.3     1  UNL1        0.0870
      4  O          4.4600    2.1480    1.4810 O.2     1  UNL1       -0.3000
      5  C          7.2390    1.0770   -0.2820 C.3     1  UNL1        0.0430
      6  C          7.6250   -0.2120   -0.8820 C.2     1  UNL1       -0.0440
      7  C          7.7430   -0.3690   -2.2680 C.2     1  UNL1        0.0080
      8  C          7.8820   -1.2930   -0.0710 C.2     1  UNL1        0.0540
      9  C          8.1090   -1.6020   -2.7750 C.2     1  UNL1        0.0510
     10  C          8.2530   -2.5380   -0.5880 C.2     1  UNL1        0.1660
     11  C          8.3670   -2.6940   -1.9520 C.2     1  UNL1        0.1650
     12  O          8.5560   -3.7480   -0.0000 O.2     1  UNL1       -0.4540
     13  O          8.7430   -4.0090   -2.1750 O.2     1  UNL1       -0.4540
     14  C          8.9620   -4.6880   -0.9610 C.3     1  UNL1        0.4680
@<TRIPOS>BOND
     1     9     7    1
     2     9    11    2
     3     7     6    2
     4    13    11    1
     5    13    14    1
     6    11    10    1
     7    14    12    1
     8     6     5    1
     9     6     8    1
    10    10     8    2
    11    10    12    1
    12     1     5    1
    13     1     2    1
    14     2     4    2
    15     2     3    1
