@<TRIPOS>MOLECULE
/home/cewinharhar/GITHUB/reincatalyze/data/processed/docking_pred/2023-May-23-1437_sub9_nm5_bs15_s42_ex16_mel10_mts10000_k50_ec02_g099_lra3e-4_lrc1e-3/f30ba497e043f8369d09a0e37081e2f7bff27f85_ligand_9.pdbqt
 14 15 0 0 0
SMALL
GASTEIGER

@<TRIPOS>ATOM
      1  C          5.4980    1.9310    1.2500 C.3     1  UNL1        0.0800
      2  C          5.0560    0.7180    1.9930 C.2     1  UNL1        0.1300
      3  C          5.9370   -0.4710    2.1430 C.3     1  UNL1        0.0870
      4  O          3.9490    0.6650    2.5040 O.2     1  UNL1       -0.3000
      5  C          5.3780    1.7320   -0.2480 C.3     1  UNL1        0.0430
      6  C          6.5510    1.0330   -0.8020 C.2     1  UNL1       -0.0440
      7  C          7.8560    1.4670   -0.5390 C.2     1  UNL1        0.0080
      8  C          6.3710   -0.0770   -1.5960 C.2     1  UNL1        0.0540
      9  C          8.9180    0.7700   -1.0850 C.2     1  UNL1        0.0510
     10  C          7.4490   -0.7790   -2.1450 C.2     1  UNL1        0.1660
     11  C          8.7320   -0.3510   -1.8880 C.2     1  UNL1        0.1650
     12  O          7.5300   -1.8920   -2.9540 O.2     1  UNL1       -0.4540
     13  O          9.5840   -1.2210   -2.5500 O.2     1  UNL1       -0.4540
     14  C          8.8680   -2.2660   -3.1640 C.3     1  UNL1        0.4680
@<TRIPOS>BOND
     1    14    12    1
     2    14    13    1
     3    12    10    1
     4    13    11    1
     5    10    11    2
     6    10     8    1
     7    11     9    1
     8     8     6    2
     9     9     7    2
    10     6     7    1
    11     6     5    1
    12     5     1    1
    13     1     2    1
    14     2     3    1
    15     2     4    2
