@<TRIPOS>MOLECULE
/home/cewinharhar/GITHUB/reincatalyze/data/processed/docking_pred/2023-May-23-1437_sub9_nm5_bs15_s42_ex16_mel10_mts10000_k50_ec02_g099_lra3e-4_lrc1e-3/f32d20faebe3d2be17d1bcf3c85c7c889e58fe23_ligand_9.pdbqt
 14 15 0 0 0
SMALL
GASTEIGER

@<TRIPOS>ATOM
      1  C          6.3990    1.1960    0.9470 C.3     1  UNL1        0.0800
      2  C          5.6550    0.3650    1.9340 C.2     1  UNL1        0.1300
      3  C          6.2450   -0.8690    2.5180 C.3     1  UNL1        0.0870
      4  O          4.5310    0.6760    2.2940 O.2     1  UNL1       -0.3000
      5  C          5.9010    0.9530   -0.4640 C.3     1  UNL1        0.0430
      6  C          6.8350    0.1140   -1.2360 C.2     1  UNL1       -0.0440
      7  C          7.5170    0.6130   -2.3520 C.2     1  UNL1        0.0080
      8  C          7.0510   -1.1920   -0.8580 C.2     1  UNL1        0.0540
      9  C          8.3820   -0.2210   -3.0370 C.2     1  UNL1        0.0510
     10  C          7.9270   -2.0300   -1.5540 C.2     1  UNL1        0.1660
     11  C          8.5980   -1.5400   -2.6530 C.2     1  UNL1        0.1650
     12  O          8.3070   -3.3440   -1.3810 O.2     1  UNL1       -0.4540
     13  O          9.3840   -2.5750   -3.1360 O.2     1  UNL1       -0.4540
     14  C          9.2990   -3.7080   -2.3060 C.3     1  UNL1        0.4680
@<TRIPOS>BOND
     1    13    11    1
     2    13    14    1
     3     9    11    2
     4     9     7    1
     5    11    10    1
     6     7     6    2
     7    14    12    1
     8    10    12    1
     9    10     8    2
    10     6     8    1
    11     6     5    1
    12     5     1    1
    13     1     2    1
    14     2     4    2
    15     2     3    1
