@<TRIPOS>MOLECULE
/home/cewinharhar/GITHUB/reincatalyze/data/processed/docking_pred/2023-May-23-1437_sub9_nm5_bs15_s42_ex16_mel10_mts10000_k50_ec02_g099_lra3e-4_lrc1e-3/f32d20faebe3d2be17d1bcf3c85c7c889e58fe23_ligand_9.pdbqt
 14 15 0 0 0
SMALL
GASTEIGER

@<TRIPOS>ATOM
      1  C          5.6880    1.3270   -0.1850 C.3     1  UNL1        0.0800
      2  C          5.0720    1.2260    1.1680 C.2     1  UNL1        0.1300
      3  C          5.3850    0.0980    2.0860 C.3     1  UNL1        0.0870
      4  O          4.2870    2.0720    1.5640 O.2     1  UNL1       -0.3000
      5  C          7.1860    1.1020   -0.1250 C.3     1  UNL1        0.0430
      6  C          7.5730   -0.1710   -0.7570 C.2     1  UNL1       -0.0440
      7  C          7.6490   -0.3060   -2.1480 C.2     1  UNL1        0.0080
      8  C          7.8720   -1.2600    0.0300 C.2     1  UNL1        0.0540
      9  C          8.0190   -1.5260   -2.6850 C.2     1  UNL1        0.0510
     10  C          8.2460   -2.4910   -0.5170 C.2     1  UNL1        0.1660
     11  C          8.3190   -2.6250   -1.8860 C.2     1  UNL1        0.1650
     12  O          8.5850   -3.7050    0.0430 O.2     1  UNL1       -0.4540
     13  O          8.7080   -3.9310   -2.1400 O.2     1  UNL1       -0.4540
     14  C          8.9750   -4.6240   -0.9450 C.3     1  UNL1        0.4680
@<TRIPOS>BOND
     1     9     7    1
     2     9    11    2
     3     7     6    2
     4    13    11    1
     5    13    14    1
     6    11    10    1
     7    14    12    1
     8     6     5    1
     9     6     8    1
    10    10     8    2
    11    10    12    1
    12     1     5    1
    13     1     2    1
    14     2     4    2
    15     2     3    1
