MODEL 1
REMARK VINA RESULT:      -7.6      0.000      0.000
REMARK SMILES CC(=O)CCc1ccc2c(c1)OCO2
REMARK SMILES IDX 4 1 2 2 1 3 3 4 5 5 6 6 7 7 11 8 8 9 10 10 9 11 12 12 14 13
REMARK SMILES IDX 13 14
REMARK H PARENT
REMARK Flexibility Score: inf
ROOT
ATOM      1  C   UNL     1       5.526   1.918   1.270  1.00  0.00     0.080 C 
ENDROOT
BRANCH   1   2
ATOM      2  C   UNL     1       5.074   0.703   2.003  1.00  0.00     0.130 C 
ATOM      3  C   UNL     1       5.955  -0.484   2.164  1.00  0.00     0.087 C 
ATOM      4  O   UNL     1       3.959   0.646   2.496  1.00  0.00    -0.300 OA
ENDBRANCH   1   2
BRANCH   1   5
ATOM      5  C   UNL     1       5.401   1.735  -0.229  1.00  0.00     0.043 C 
BRANCH   5   6
ATOM      6  C   UNL     1       6.568   1.033  -0.793  1.00  0.00    -0.044 A 
ATOM      7  C   UNL     1       7.875   1.471  -0.549  1.00  0.00     0.008 A 
ATOM      8  C   UNL     1       6.380  -0.082  -1.578  1.00  0.00     0.054 A 
ATOM      9  C   UNL     1       8.931   0.771  -1.104  1.00  0.00     0.051 A 
ATOM     10  C   UNL     1       7.451  -0.786  -2.136  1.00  0.00     0.166 A 
ATOM     11  C   UNL     1       8.737  -0.355  -1.897  1.00  0.00     0.165 A 
ATOM     12  O   UNL     1       7.524  -1.905  -2.938  1.00  0.00    -0.454 OA
ATOM     13  O   UNL     1       9.582  -1.229  -2.564  1.00  0.00    -0.454 OA
ATOM     14  C   UNL     1       8.859  -2.279  -3.162  1.00  0.00     0.468 C 
ENDBRANCH   5   6
ENDBRANCH   1   5
TORSDOF 3
ENDMDL
MODEL 2
REMARK VINA RESULT:      -7.4      1.863      2.323
REMARK SMILES CC(=O)CCc1ccc2c(c1)OCO2
REMARK SMILES IDX 4 1 2 2 1 3 3 4 5 5 6 6 7 7 11 8 8 9 10 10 9 11 12 12 14 13
REMARK SMILES IDX 13 14
REMARK H PARENT
REMARK Flexibility Score: inf
ROOT
ATOM      1  C   UNL     1       5.808   1.513  -0.299  1.00  0.00     0.080 C 
ENDROOT
BRANCH   1   2
ATOM      2  C   UNL     1       5.120   1.358   1.013  1.00  0.00     0.130 C 
ATOM      3  C   UNL     1       5.445   0.239   1.937  1.00  0.00     0.087 C 
ATOM      4  O   UNL     1       4.262   2.150   1.369  1.00  0.00    -0.300 OA
ENDBRANCH   1   2
BRANCH   1   5
ATOM      5  C   UNL     1       7.287   1.203  -0.185  1.00  0.00     0.043 C 
BRANCH   5   6
ATOM      6  C   UNL     1       7.628  -0.078  -0.829  1.00  0.00    -0.044 A 
ATOM      7  C   UNL     1       7.647  -0.217  -2.221  1.00  0.00     0.008 A 
ATOM      8  C   UNL     1       7.940  -1.171  -0.051  1.00  0.00     0.054 A 
ATOM      9  C   UNL     1       7.976  -1.443  -2.769  1.00  0.00     0.051 A 
ATOM     10  C   UNL     1       8.272  -2.408  -0.610  1.00  0.00     0.166 A 
ATOM     11  C   UNL     1       8.289  -2.546  -1.980  1.00  0.00     0.165 A 
ATOM     12  O   UNL     1       8.614  -3.626  -0.061  1.00  0.00    -0.454 OA
ATOM     13  O   UNL     1       8.647  -3.858  -2.247  1.00  0.00    -0.454 OA
ATOM     14  C   UNL     1       8.949  -4.554  -1.061  1.00  0.00     0.468 C 
ENDBRANCH   5   6
ENDBRANCH   1   5
TORSDOF 3
ENDMDL
MODEL 3
REMARK VINA RESULT:      -7.2      2.085      2.618
REMARK SMILES CC(=O)CCc1ccc2c(c1)OCO2
REMARK SMILES IDX 4 1 2 2 1 3 3 4 5 5 6 6 7 7 11 8 8 9 10 10 9 11 12 12 14 13
REMARK SMILES IDX 13 14
REMARK H PARENT
REMARK Flexibility Score: inf
ROOT
ATOM      1  C   UNL     1       5.600   0.048   1.987  1.00  0.00     0.080 C 
ENDROOT
BRANCH   1   2
ATOM      2  C   UNL     1       4.680   1.175   1.664  1.00  0.00     0.130 C 
ATOM      3  C   UNL     1       4.985   2.145   0.579  1.00  0.00     0.087 C 
ATOM      4  O   UNL     1       3.643   1.335   2.287  1.00  0.00    -0.300 OA
ENDBRANCH   1   2
BRANCH   1   5
ATOM      5  C   UNL     1       6.998   0.312   1.464  1.00  0.00     0.043 C 
BRANCH   5   6
ATOM      6  C   UNL     1       7.389  -0.666   0.433  1.00  0.00    -0.044 A 
ATOM      7  C   UNL     1       7.275  -0.378  -0.931  1.00  0.00     0.008 A 
ATOM      8  C   UNL     1       7.882  -1.894   0.811  1.00  0.00     0.054 A 
ATOM      9  C   UNL     1       7.659  -1.334  -1.854  1.00  0.00     0.051 A 
ATOM     10  C   UNL     1       8.269  -2.858  -0.125  1.00  0.00     0.166 A 
ATOM     11  C   UNL     1       8.156  -2.575  -1.469  1.00  0.00     0.165 A 
ATOM     12  O   UNL     1       8.780  -4.133  -0.005  1.00  0.00    -0.454 OA
ATOM     13  O   UNL     1       8.606  -3.694  -2.152  1.00  0.00    -0.454 OA
ATOM     14  C   UNL     1       9.096  -4.670  -1.264  1.00  0.00     0.468 C 
ENDBRANCH   5   6
ENDBRANCH   1   5
TORSDOF 3
ENDMDL
MODEL 4
REMARK VINA RESULT:      -7.1      1.259      1.474
REMARK SMILES CC(=O)CCc1ccc2c(c1)OCO2
REMARK SMILES IDX 4 1 2 2 1 3 3 4 5 5 6 6 7 7 11 8 8 9 10 10 9 11 12 12 14 13
REMARK SMILES IDX 13 14
REMARK H PARENT
REMARK Flexibility Score: inf
ROOT
ATOM      1  C   UNL     1       6.395   1.196   0.944  1.00  0.00     0.080 C 
ENDROOT
BRANCH   1   2
ATOM      2  C   UNL     1       5.649   0.371   1.935  1.00  0.00     0.130 C 
ATOM      3  C   UNL     1       6.238  -0.859   2.528  1.00  0.00     0.087 C 
ATOM      4  O   UNL     1       4.524   0.684   2.290  1.00  0.00    -0.300 OA
ENDBRANCH   1   2
BRANCH   1   5
ATOM      5  C   UNL     1       5.898   0.946  -0.466  1.00  0.00     0.043 C 
BRANCH   5   6
ATOM      6  C   UNL     1       6.836   0.109  -1.236  1.00  0.00    -0.044 A 
ATOM      7  C   UNL     1       7.515   0.607  -2.354  1.00  0.00     0.008 A 
ATOM      8  C   UNL     1       7.058  -1.194  -0.853  1.00  0.00     0.054 A 
ATOM      9  C   UNL     1       8.383  -0.225  -3.037  1.00  0.00     0.051 A 
ATOM     10  C   UNL     1       7.937  -2.031  -1.547  1.00  0.00     0.166 A 
ATOM     11  C   UNL     1       8.605  -1.543  -2.648  1.00  0.00     0.165 A 
ATOM     12  O   UNL     1       8.322  -3.343  -1.370  1.00  0.00    -0.454 OA
ATOM     13  O   UNL     1       9.395  -2.575  -3.128  1.00  0.00    -0.454 OA
ATOM     14  C   UNL     1       9.316  -3.706  -2.294  1.00  0.00     0.468 C 
ENDBRANCH   5   6
ENDBRANCH   1   5
TORSDOF 3
ENDMDL
MODEL 5
REMARK VINA RESULT:      -6.8      1.188      5.166
REMARK SMILES CC(=O)CCc1ccc2c(c1)OCO2
REMARK SMILES IDX 4 1 2 2 1 3 3 4 5 5 6 6 7 7 11 8 8 9 10 10 9 11 12 12 14 13
REMARK SMILES IDX 13 14
REMARK H PARENT
REMARK Flexibility Score: inf
ROOT
ATOM      1  C   UNL     1       8.278   0.178  -2.730  1.00  0.00     0.080 C 
ENDROOT
BRANCH   1   2
ATOM      2  C   UNL     1       8.036  -1.290  -2.792  1.00  0.00     0.130 C 
ATOM      3  C   UNL     1       9.142  -2.255  -3.035  1.00  0.00     0.087 C 
ATOM      4  O   UNL     1       6.914  -1.747  -2.644  1.00  0.00    -0.300 OA
ENDBRANCH   1   2
BRANCH   1   5
ATOM      5  C   UNL     1       8.818   0.590  -1.375  1.00  0.00     0.043 C 
BRANCH   5   6
ATOM      6  C   UNL     1       7.805   0.446  -0.315  1.00  0.00    -0.044 A 
ATOM      7  C   UNL     1       7.937  -0.507   0.701  1.00  0.00     0.008 A 
ATOM      8  C   UNL     1       6.698   1.265  -0.314  1.00  0.00     0.054 A 
ATOM      9  C   UNL     1       6.954  -0.596   1.670  1.00  0.00     0.051 A 
ATOM     10  C   UNL     1       5.707   1.171   0.668  1.00  0.00     0.166 A 
ATOM     11  C   UNL     1       5.836   0.233   1.668  1.00  0.00     0.165 A 
ATOM     12  O   UNL     1       4.532   1.858   0.885  1.00  0.00    -0.454 OA
ATOM     13  O   UNL     1       4.726   0.365   2.487  1.00  0.00    -0.454 OA
ATOM     14  C   UNL     1       3.919   1.444   2.080  1.00  0.00     0.468 C 
ENDBRANCH   5   6
ENDBRANCH   1   5
TORSDOF 3
ENDMDL
