@<TRIPOS>MOLECULE
/home/cewinharhar/GITHUB/reincatalyze/data/processed/docking_pred/2023-May-23-1437_sub9_nm5_bs15_s42_ex16_mel10_mts10000_k50_ec02_g099_lra3e-4_lrc1e-3/f43d8cd6194682d8f3e5600fbc578d0750565092_ligand_9.pdbqt
 14 15 0 0 0
SMALL
GASTEIGER

@<TRIPOS>ATOM
      1  C          5.4050   -0.0690    1.9880 C.3     1  UNL1        0.0800
      2  C          4.5710    1.1400    1.7380 C.2     1  UNL1        0.1300
      3  C          4.9060    2.1110    0.6630 C.3     1  UNL1        0.0870
      4  O          3.5810    1.3690    2.4150 O.2     1  UNL1       -0.3000
      5  C          6.8500    0.1680    1.5970 C.3     1  UNL1        0.0430
      6  C          7.2880   -0.7580    0.5370 C.2     1  UNL1       -0.0440
      7  C          7.1710   -0.4290   -0.8180 C.2     1  UNL1        0.0080
      8  C          7.8300   -1.9760    0.8770 C.2     1  UNL1        0.0540
      9  C          7.6000   -1.3380   -1.7690 C.2     1  UNL1        0.0510
     10  C          8.2640   -2.8910   -0.0870 C.2     1  UNL1        0.1660
     11  C          8.1470   -2.5690   -1.4210 C.2     1  UNL1        0.1650
     12  O          8.8270   -4.1460   -0.0050 O.2     1  UNL1       -0.4540
     13  O          8.6480   -3.6440   -2.1380 O.2     1  UNL1       -0.4540
     14  C          9.1730   -4.6280   -1.2790 C.3     1  UNL1        0.4680
@<TRIPOS>BOND
     1    13    11    1
     2    13    14    1
     3     9    11    2
     4     9     7    1
     5    11    10    1
     6    14    12    1
     7     7     6    2
     8    10    12    1
     9    10     8    2
    10     6     8    1
    11     6     5    1
    12     3     2    1
    13     5     1    1
    14     2     1    1
    15     2     4    2
