MODEL 1
REMARK VINA RESULT:      -7.6      0.000      0.000
REMARK SMILES CC(=O)CCc1ccc2c(c1)OCO2
REMARK SMILES IDX 4 1 2 2 1 3 3 4 5 5 6 6 7 7 11 8 8 9 10 10 9 11 12 12 14 13
REMARK SMILES IDX 13 14
REMARK H PARENT
REMARK Flexibility Score: inf
ROOT
ATOM      1  C   UNL     1       5.551   1.911   1.277  1.00  0.00     0.080 C 
ENDROOT
BRANCH   1   2
ATOM      2  C   UNL     1       5.124   0.690   2.015  1.00  0.00     0.130 C 
ATOM      3  C   UNL     1       6.031  -0.476   2.186  1.00  0.00     0.087 C 
ATOM      4  O   UNL     1       4.008   0.610   2.502  1.00  0.00    -0.300 OA
ENDBRANCH   1   2
BRANCH   1   5
ATOM      5  C   UNL     1       5.419   1.724  -0.221  1.00  0.00     0.043 C 
BRANCH   5   6
ATOM      6  C   UNL     1       6.583   1.021  -0.789  1.00  0.00    -0.044 A 
ATOM      7  C   UNL     1       7.892   1.448  -0.536  1.00  0.00     0.008 A 
ATOM      8  C   UNL     1       6.391  -0.085  -1.585  1.00  0.00     0.054 A 
ATOM      9  C   UNL     1       8.946   0.748  -1.095  1.00  0.00     0.051 A 
ATOM     10  C   UNL     1       7.460  -0.789  -2.148  1.00  0.00     0.166 A 
ATOM     11  C   UNL     1       8.748  -0.369  -1.900  1.00  0.00     0.165 A 
ATOM     12  O   UNL     1       7.529  -1.900  -2.961  1.00  0.00    -0.454 OA
ATOM     13  O   UNL     1       9.590  -1.240  -2.574  1.00  0.00    -0.454 OA
ATOM     14  C   UNL     1       8.862  -2.279  -3.185  1.00  0.00     0.468 C 
ENDBRANCH   5   6
ENDBRANCH   1   5
TORSDOF 3
ENDMDL
MODEL 2
REMARK VINA RESULT:      -7.5      1.946      2.399
REMARK SMILES CC(=O)CCc1ccc2c(c1)OCO2
REMARK SMILES IDX 4 1 2 2 1 3 3 4 5 5 6 6 7 7 11 8 8 9 10 10 9 11 12 12 14 13
REMARK SMILES IDX 13 14
REMARK H PARENT
REMARK Flexibility Score: inf
ROOT
ATOM      1  C   UNL     1       5.734   1.312  -0.311  1.00  0.00     0.080 C 
ENDROOT
BRANCH   1   2
ATOM      2  C   UNL     1       5.126   1.250   1.047  1.00  0.00     0.130 C 
ATOM      3  C   UNL     1       5.364   0.097   1.957  1.00  0.00     0.087 C 
ATOM      4  O   UNL     1       4.409   2.149   1.455  1.00  0.00    -0.300 OA
ENDBRANCH   1   2
BRANCH   1   5
ATOM      5  C   UNL     1       7.232   1.089  -0.255  1.00  0.00     0.043 C 
BRANCH   5   6
ATOM      6  C   UNL     1       7.616  -0.201  -0.854  1.00  0.00    -0.044 A 
ATOM      7  C   UNL     1       7.720  -0.363  -2.241  1.00  0.00     0.008 A 
ATOM      8  C   UNL     1       7.883  -1.279  -0.041  1.00  0.00     0.054 A 
ATOM      9  C   UNL     1       8.085  -1.598  -2.746  1.00  0.00     0.051 A 
ATOM     10  C   UNL     1       8.252  -2.524  -0.557  1.00  0.00     0.166 A 
ATOM     11  C   UNL     1       8.354  -2.685  -1.921  1.00  0.00     0.165 A 
ATOM     12  O   UNL     1       8.564  -3.731   0.033  1.00  0.00    -0.454 OA
ATOM     13  O   UNL     1       8.730  -4.001  -2.142  1.00  0.00    -0.454 OA
ATOM     14  C   UNL     1       8.963  -4.674  -0.928  1.00  0.00     0.468 C 
ENDBRANCH   5   6
ENDBRANCH   1   5
TORSDOF 3
ENDMDL
MODEL 3
REMARK VINA RESULT:      -7.2      2.075      2.646
REMARK SMILES CC(=O)CCc1ccc2c(c1)OCO2
REMARK SMILES IDX 4 1 2 2 1 3 3 4 5 5 6 6 7 7 11 8 8 9 10 10 9 11 12 12 14 13
REMARK SMILES IDX 13 14
REMARK H PARENT
REMARK Flexibility Score: inf
ROOT
ATOM      1  C   UNL     1       5.405  -0.069   1.988  1.00  0.00     0.080 C 
ENDROOT
BRANCH   1   2
ATOM      2  C   UNL     1       4.571   1.140   1.738  1.00  0.00     0.130 C 
ATOM      3  C   UNL     1       4.906   2.111   0.663  1.00  0.00     0.087 C 
ATOM      4  O   UNL     1       3.581   1.369   2.415  1.00  0.00    -0.300 OA
ENDBRANCH   1   2
BRANCH   1   5
ATOM      5  C   UNL     1       6.850   0.168   1.597  1.00  0.00     0.043 C 
BRANCH   5   6
ATOM      6  C   UNL     1       7.288  -0.758   0.537  1.00  0.00    -0.044 A 
ATOM      7  C   UNL     1       7.171  -0.429  -0.818  1.00  0.00     0.008 A 
ATOM      8  C   UNL     1       7.830  -1.976   0.877  1.00  0.00     0.054 A 
ATOM      9  C   UNL     1       7.600  -1.338  -1.769  1.00  0.00     0.051 A 
ATOM     10  C   UNL     1       8.264  -2.891  -0.087  1.00  0.00     0.166 A 
ATOM     11  C   UNL     1       8.147  -2.569  -1.421  1.00  0.00     0.165 A 
ATOM     12  O   UNL     1       8.827  -4.146  -0.005  1.00  0.00    -0.454 OA
ATOM     13  O   UNL     1       8.648  -3.644  -2.138  1.00  0.00    -0.454 OA
ATOM     14  C   UNL     1       9.173  -4.628  -1.279  1.00  0.00     0.468 C 
ENDBRANCH   5   6
ENDBRANCH   1   5
TORSDOF 3
ENDMDL
MODEL 4
REMARK VINA RESULT:      -7.1      1.249      1.458
REMARK SMILES CC(=O)CCc1ccc2c(c1)OCO2
REMARK SMILES IDX 4 1 2 2 1 3 3 4 5 5 6 6 7 7 11 8 8 9 10 10 9 11 12 12 14 13
REMARK SMILES IDX 13 14
REMARK H PARENT
REMARK Flexibility Score: inf
ROOT
ATOM      1  C   UNL     1       6.369   1.185   0.921  1.00  0.00     0.080 C 
ENDROOT
BRANCH   1   2
ATOM      2  C   UNL     1       5.652   0.371   1.941  1.00  0.00     0.130 C 
ATOM      3  C   UNL     1       6.250  -0.863   2.517  1.00  0.00     0.087 C 
ATOM      4  O   UNL     1       4.543   0.695   2.335  1.00  0.00    -0.300 OA
ENDBRANCH   1   2
BRANCH   1   5
ATOM      5  C   UNL     1       5.856   0.896  -0.476  1.00  0.00     0.043 C 
BRANCH   5   6
ATOM      6  C   UNL     1       6.811   0.084  -1.251  1.00  0.00    -0.044 A 
ATOM      7  C   UNL     1       7.500   0.613  -2.349  1.00  0.00     0.008 A 
ATOM      8  C   UNL     1       7.040  -1.225  -0.895  1.00  0.00     0.054 A 
ATOM      9  C   UNL     1       8.384  -0.196  -3.039  1.00  0.00     0.051 A 
ATOM     10  C   UNL     1       7.936  -2.039  -1.595  1.00  0.00     0.166 A 
ATOM     11  C   UNL     1       8.613  -1.520  -2.676  1.00  0.00     0.165 A 
ATOM     12  O   UNL     1       8.330  -3.351  -1.442  1.00  0.00    -0.454 OA
ATOM     13  O   UNL     1       9.419  -2.535  -3.169  1.00  0.00    -0.454 OA
ATOM     14  C   UNL     1       9.339  -3.685  -2.361  1.00  0.00     0.468 C 
ENDBRANCH   5   6
ENDBRANCH   1   5
TORSDOF 3
ENDMDL
MODEL 5
REMARK VINA RESULT:      -6.8      1.265      1.754
REMARK SMILES CC(=O)CCc1ccc2c(c1)OCO2
REMARK SMILES IDX 4 1 2 2 1 3 3 4 5 5 6 6 7 7 11 8 8 9 10 10 9 11 12 12 14 13
REMARK SMILES IDX 13 14
REMARK H PARENT
REMARK Flexibility Score: inf
ROOT
ATOM      1  C   UNL     1       5.348  -0.067   1.982  1.00  0.00     0.080 C 
ENDROOT
BRANCH   1   2
ATOM      2  C   UNL     1       4.459   1.114   1.797  1.00  0.00     0.130 C 
ATOM      3  C   UNL     1       4.742   2.150   0.767  1.00  0.00     0.087 C 
ATOM      4  O   UNL     1       3.467   1.267   2.491  1.00  0.00    -0.300 OA
ENDBRANCH   1   2
BRANCH   1   5
ATOM      5  C   UNL     1       6.810   0.327   1.910  1.00  0.00     0.043 C 
BRANCH   5   6
ATOM      6  C   UNL     1       7.410  -0.034   0.613  1.00  0.00    -0.044 A 
ATOM      7  C   UNL     1       7.908   0.939  -0.260  1.00  0.00     0.008 A 
ATOM      8  C   UNL     1       7.490  -1.358   0.244  1.00  0.00     0.054 A 
ATOM      9  C   UNL     1       8.461   0.541  -1.464  1.00  0.00     0.051 A 
ATOM     10  C   UNL     1       8.050  -1.755  -0.974  1.00  0.00     0.166 A 
ATOM     11  C   UNL     1       8.539  -0.798  -1.835  1.00  0.00     0.165 A 
ATOM     12  O   UNL     1       8.242  -2.987  -1.562  1.00  0.00    -0.454 OA
ATOM     13  O   UNL     1       9.028  -1.469  -2.945  1.00  0.00    -0.454 OA
ATOM     14  C   UNL     1       8.942  -2.864  -2.774  1.00  0.00     0.468 C 
ENDBRANCH   5   6
ENDBRANCH   1   5
TORSDOF 3
ENDMDL
