MODEL 1
REMARK VINA RESULT:      -7.6      0.000      0.000
REMARK SMILES CC(=O)CCc1ccc2c(c1)OCO2
REMARK SMILES IDX 4 1 2 2 1 3 3 4 5 5 6 6 7 7 11 8 8 9 10 10 9 11 12 12 14 13
REMARK SMILES IDX 13 14
REMARK H PARENT
REMARK Flexibility Score: inf
ROOT
ATOM      1  C   UNL     1       5.549   1.919   1.285  1.00  0.00     0.080 C 
ENDROOT
BRANCH   1   2
ATOM      2  C   UNL     1       5.130   0.691   2.016  1.00  0.00     0.130 C 
ATOM      3  C   UNL     1       6.049  -0.465   2.192  1.00  0.00     0.087 C 
ATOM      4  O   UNL     1       4.011   0.598   2.495  1.00  0.00    -0.300 OA
ENDBRANCH   1   2
BRANCH   1   5
ATOM      5  C   UNL     1       5.419   1.739  -0.215  1.00  0.00     0.043 C 
BRANCH   5   6
ATOM      6  C   UNL     1       6.580   1.032  -0.783  1.00  0.00    -0.044 A 
ATOM      7  C   UNL     1       7.891   1.455  -0.533  1.00  0.00     0.008 A 
ATOM      8  C   UNL     1       6.384  -0.074  -1.579  1.00  0.00     0.054 A 
ATOM      9  C   UNL     1       8.942   0.752  -1.093  1.00  0.00     0.051 A 
ATOM     10  C   UNL     1       7.450  -0.782  -2.142  1.00  0.00     0.166 A 
ATOM     11  C   UNL     1       8.739  -0.365  -1.897  1.00  0.00     0.165 A 
ATOM     12  O   UNL     1       7.514  -1.894  -2.954  1.00  0.00    -0.454 OA
ATOM     13  O   UNL     1       9.578  -1.240  -2.570  1.00  0.00    -0.454 OA
ATOM     14  C   UNL     1       8.847  -2.277  -3.179  1.00  0.00     0.468 C 
ENDBRANCH   5   6
ENDBRANCH   1   5
TORSDOF 3
ENDMDL
MODEL 2
REMARK VINA RESULT:      -7.5      1.931      2.400
REMARK SMILES CC(=O)CCc1ccc2c(c1)OCO2
REMARK SMILES IDX 4 1 2 2 1 3 3 4 5 5 6 6 7 7 11 8 8 9 10 10 9 11 12 12 14 13
REMARK SMILES IDX 13 14
REMARK H PARENT
REMARK Flexibility Score: inf
ROOT
ATOM      1  C   UNL     1       5.717   1.249  -0.290  1.00  0.00     0.080 C 
ENDROOT
BRANCH   1   2
ATOM      2  C   UNL     1       5.156   1.227   1.090  1.00  0.00     0.130 C 
ATOM      3  C   UNL     1       5.403   0.089   2.015  1.00  0.00     0.087 C 
ATOM      4  O   UNL     1       4.472   2.150   1.503  1.00  0.00    -0.300 OA
ENDBRANCH   1   2
BRANCH   1   5
ATOM      5  C   UNL     1       7.220   1.053  -0.276  1.00  0.00     0.043 C 
BRANCH   5   6
ATOM      6  C   UNL     1       7.610  -0.231  -0.885  1.00  0.00    -0.044 A 
ATOM      7  C   UNL     1       7.715  -0.382  -2.273  1.00  0.00     0.008 A 
ATOM      8  C   UNL     1       7.881  -1.314  -0.080  1.00  0.00     0.054 A 
ATOM      9  C   UNL     1       8.085  -1.611  -2.788  1.00  0.00     0.051 A 
ATOM     10  C   UNL     1       8.256  -2.554  -0.606  1.00  0.00     0.166 A 
ATOM     11  C   UNL     1       8.359  -2.704  -1.971  1.00  0.00     0.165 A 
ATOM     12  O   UNL     1       8.573  -3.764  -0.025  1.00  0.00    -0.454 OA
ATOM     13  O   UNL     1       8.741  -4.016  -2.203  1.00  0.00    -0.454 OA
ATOM     14  C   UNL     1       8.976  -4.698  -0.994  1.00  0.00     0.468 C 
ENDBRANCH   5   6
ENDBRANCH   1   5
TORSDOF 3
ENDMDL
MODEL 3
REMARK VINA RESULT:      -7.2      2.075      2.615
REMARK SMILES CC(=O)CCc1ccc2c(c1)OCO2
REMARK SMILES IDX 4 1 2 2 1 3 3 4 5 5 6 6 7 7 11 8 8 9 10 10 9 11 12 12 14 13
REMARK SMILES IDX 13 14
REMARK H PARENT
REMARK Flexibility Score: inf
ROOT
ATOM      1  C   UNL     1       5.547   0.018   1.966  1.00  0.00     0.080 C 
ENDROOT
BRANCH   1   2
ATOM      2  C   UNL     1       4.652   1.165   1.649  1.00  0.00     0.130 C 
ATOM      3  C   UNL     1       4.948   2.101   0.532  1.00  0.00     0.087 C 
ATOM      4  O   UNL     1       3.642   1.371   2.303  1.00  0.00    -0.300 OA
ENDBRANCH   1   2
BRANCH   1   5
ATOM      5  C   UNL     1       6.962   0.275   1.485  1.00  0.00     0.043 C 
BRANCH   5   6
ATOM      6  C   UNL     1       7.367  -0.685   0.442  1.00  0.00    -0.044 A 
ATOM      7  C   UNL     1       7.258  -0.377  -0.919  1.00  0.00     0.008 A 
ATOM      8  C   UNL     1       7.868  -1.915   0.804  1.00  0.00     0.054 A 
ATOM      9  C   UNL     1       7.655  -1.317  -1.853  1.00  0.00     0.051 A 
ATOM     10  C   UNL     1       8.268  -2.861  -0.145  1.00  0.00     0.166 A 
ATOM     11  C   UNL     1       8.160  -2.559  -1.484  1.00  0.00     0.165 A 
ATOM     12  O   UNL     1       8.788  -4.133  -0.041  1.00  0.00    -0.454 OA
ATOM     13  O   UNL     1       8.623  -3.664  -2.182  1.00  0.00    -0.454 OA
ATOM     14  C   UNL     1       9.115  -4.649  -1.305  1.00  0.00     0.468 C 
ENDBRANCH   5   6
ENDBRANCH   1   5
TORSDOF 3
ENDMDL
MODEL 4
REMARK VINA RESULT:      -7.1      1.250      1.464
REMARK SMILES CC(=O)CCc1ccc2c(c1)OCO2
REMARK SMILES IDX 4 1 2 2 1 3 3 4 5 5 6 6 7 7 11 8 8 9 10 10 9 11 12 12 14 13
REMARK SMILES IDX 13 14
REMARK H PARENT
REMARK Flexibility Score: inf
ROOT
ATOM      1  C   UNL     1       6.377   1.191   0.932  1.00  0.00     0.080 C 
ENDROOT
BRANCH   1   2
ATOM      2  C   UNL     1       5.658   0.370   1.946  1.00  0.00     0.130 C 
ATOM      3  C   UNL     1       6.262  -0.858   2.527  1.00  0.00     0.087 C 
ATOM      4  O   UNL     1       4.543   0.685   2.330  1.00  0.00    -0.300 OA
ENDBRANCH   1   2
BRANCH   1   5
ATOM      5  C   UNL     1       5.864   0.913  -0.467  1.00  0.00     0.043 C 
BRANCH   5   6
ATOM      6  C   UNL     1       6.812   0.096  -1.244  1.00  0.00    -0.044 A 
ATOM      7  C   UNL     1       7.491   0.616  -2.352  1.00  0.00     0.008 A 
ATOM      8  C   UNL     1       7.046  -1.211  -0.880  1.00  0.00     0.054 A 
ATOM      9  C   UNL     1       8.370  -0.198  -3.043  1.00  0.00     0.051 A 
ATOM     10  C   UNL     1       7.936  -2.029  -1.582  1.00  0.00     0.166 A 
ATOM     11  C   UNL     1       8.603  -1.518  -2.673  1.00  0.00     0.165 A 
ATOM     12  O   UNL     1       8.333  -3.340  -1.421  1.00  0.00    -0.454 OA
ATOM     13  O   UNL     1       9.406  -2.536  -3.164  1.00  0.00    -0.454 OA
ATOM     14  C   UNL     1       9.334  -3.680  -2.347  1.00  0.00     0.468 C 
ENDBRANCH   5   6
ENDBRANCH   1   5
TORSDOF 3
ENDMDL
MODEL 5
REMARK VINA RESULT:      -7.1      1.965      2.534
REMARK SMILES CC(=O)CCc1ccc2c(c1)OCO2
REMARK SMILES IDX 4 1 2 2 1 3 3 4 5 5 6 6 7 7 11 8 8 9 10 10 9 11 12 12 14 13
REMARK SMILES IDX 13 14
REMARK H PARENT
REMARK Flexibility Score: inf
ROOT
ATOM      1  C   UNL     1       6.887   0.902   1.200  1.00  0.00     0.080 C 
ENDROOT
BRANCH   1   2
ATOM      2  C   UNL     1       5.426   1.158   1.343  1.00  0.00     0.130 C 
ATOM      3  C   UNL     1       4.719   2.144   0.484  1.00  0.00     0.087 C 
ATOM      4  O   UNL     1       4.764   0.562   2.177  1.00  0.00    -0.300 OA
ENDBRANCH   1   2
BRANCH   1   5
ATOM      5  C   UNL     1       7.335   1.060  -0.239  1.00  0.00     0.043 C 
BRANCH   5   6
ATOM      6  C   UNL     1       7.696  -0.234  -0.844  1.00  0.00    -0.044 A 
ATOM      7  C   UNL     1       7.806  -0.390  -2.231  1.00  0.00     0.008 A 
ATOM      8  C   UNL     1       7.937  -1.322  -0.035  1.00  0.00     0.054 A 
ATOM      9  C   UNL     1       8.149  -1.629  -2.741  1.00  0.00     0.051 A 
ATOM     10  C   UNL     1       8.284  -2.572  -0.557  1.00  0.00     0.166 A 
ATOM     11  C   UNL     1       8.391  -2.726  -1.921  1.00  0.00     0.165 A 
ATOM     12  O   UNL     1       8.568  -3.788   0.028  1.00  0.00    -0.454 OA
ATOM     13  O   UNL     1       8.743  -4.048  -2.148  1.00  0.00    -0.454 OA
ATOM     14  C   UNL     1       8.954  -4.733  -0.937  1.00  0.00     0.468 C 
ENDBRANCH   5   6
ENDBRANCH   1   5
TORSDOF 3
ENDMDL
