@<TRIPOS>MOLECULE
/home/cewinharhar/GITHUB/reincatalyze/data/processed/docking_pred/2023-May-23-1437_sub9_nm5_bs15_s42_ex16_mel10_mts10000_k50_ec02_g099_lra3e-4_lrc1e-3/f5fb071253116e33fb6a6057d91faa3d89d34546_ligand_9.pdbqt
 14 15 0 0 0
SMALL
GASTEIGER

@<TRIPOS>ATOM
      1  C          5.5440    1.8940    1.2930 C.3     1  UNL1        0.0800
      2  C          5.0970    0.6730    2.0210 C.2     1  UNL1        0.1300
      3  C          5.9880   -0.5060    2.1900 C.3     1  UNL1        0.0870
      4  O          3.9780    0.6060    2.5040 O.2     1  UNL1       -0.3000
      5  C          5.4100    1.7200   -0.2060 C.3     1  UNL1        0.0430
      6  C          6.5750    1.0230   -0.7820 C.2     1  UNL1       -0.0440
      7  C          7.8820    1.4610   -0.5440 C.2     1  UNL1        0.0080
      8  C          6.3830   -0.0880   -1.5710 C.2     1  UNL1        0.0540
      9  C          8.9360    0.7660   -1.1100 C.2     1  UNL1        0.0510
     10  C          7.4510   -0.7880   -2.1400 C.2     1  UNL1        0.1660
     11  C          8.7390   -0.3560   -1.9080 C.2     1  UNL1        0.1650
     12  O          7.5210   -1.9020   -2.9480 O.2     1  UNL1       -0.4540
     13  O          9.5800   -1.2250   -2.5850 O.2     1  UNL1       -0.4540
     14  C          8.8550   -2.2730   -3.1830 C.3     1  UNL1        0.4680
@<TRIPOS>BOND
     1    14    12    1
     2    14    13    1
     3    12    10    1
     4    13    11    1
     5    10    11    2
     6    10     8    1
     7    11     9    1
     8     8     6    2
     9     9     7    2
    10     6     7    1
    11     6     5    1
    12     5     1    1
    13     1     2    1
    14     2     3    1
    15     2     4    2
