@<TRIPOS>MOLECULE
/home/cewinharhar/GITHUB/reincatalyze/data/processed/docking_pred/2023-May-23-1437_sub9_nm5_bs15_s42_ex16_mel10_mts10000_k50_ec02_g099_lra3e-4_lrc1e-3/f5fb071253116e33fb6a6057d91faa3d89d34546_ligand_9.pdbqt
 14 15 0 0 0
SMALL
GASTEIGER

@<TRIPOS>ATOM
      1  C          5.7480    1.1900   -0.3750 C.3     1  UNL1        0.0800
      2  C          5.1650    1.2110    0.9950 C.2     1  UNL1        0.1300
      3  C          5.3880    0.0990    1.9560 C.3     1  UNL1        0.0870
      4  O          4.4810    2.1500    1.3700 O.2     1  UNL1       -0.3000
      5  C          7.2530    1.0130   -0.3300 C.3     1  UNL1        0.0430
      6  C          7.6710   -0.2700   -0.9230 C.2     1  UNL1       -0.0440
      7  C          7.8340   -0.4190   -2.3050 C.2     1  UNL1        0.0080
      8  C          7.9110   -1.3520   -0.1080 C.2     1  UNL1        0.0540
      9  C          8.2290   -1.6470   -2.8050 C.2     1  UNL1        0.0510
     10  C          8.3110   -2.5910   -0.6180 C.2     1  UNL1        0.1660
     11  C          8.4710   -2.7400   -1.9780 C.2     1  UNL1        0.1650
     12  O          8.6050   -3.8010   -0.0250 O.2     1  UNL1       -0.4540
     13  O          8.8660   -4.0510   -2.1940 O.2     1  UNL1       -0.4540
     14  C          9.0510   -4.7330   -0.9760 C.3     1  UNL1        0.4680
@<TRIPOS>BOND
     1     9     7    1
     2     9    11    2
     3     7     6    2
     4    13    11    1
     5    13    14    1
     6    11    10    1
     7    14    12    1
     8     6     5    1
     9     6     8    1
    10    10     8    2
    11    10    12    1
    12     1     5    1
    13     1     2    1
    14     2     4    2
    15     2     3    1
