@<TRIPOS>MOLECULE
/home/cewinharhar/GITHUB/reincatalyze/data/processed/docking_pred/2023-May-23-1437_sub9_nm5_bs15_s42_ex16_mel10_mts10000_k50_ec02_g099_lra3e-4_lrc1e-3/f5fb071253116e33fb6a6057d91faa3d89d34546_ligand_9.pdbqt
 14 15 0 0 0
SMALL
GASTEIGER

@<TRIPOS>ATOM
      1  C          6.5710    1.0070    1.1220 C.3     1  UNL1        0.0800
      2  C          5.3430    1.7590    0.7400 C.2     1  UNL1        0.1300
      3  C          5.0740    2.1480   -0.6700 C.3     1  UNL1        0.0870
      4  O          4.5170    2.0790    1.5790 O.2     1  UNL1       -0.3000
      5  C          7.6370    1.1130    0.0510 C.3     1  UNL1        0.0430
      6  C          7.8600   -0.1760   -0.6280 C.2     1  UNL1       -0.0440
      7  C          7.7810   -0.2940   -2.0210 C.2     1  UNL1        0.0080
      8  C          8.1550   -1.2970    0.1150 C.2     1  UNL1        0.0540
      9  C          7.9990   -1.5300   -2.6030 C.2     1  UNL1        0.0510
     10  C          8.3760   -2.5430   -0.4790 C.2     1  UNL1        0.1660
     11  C          8.2970   -2.6610   -1.8490 C.2     1  UNL1        0.1650
     12  O          8.6790   -3.7870    0.0330 O.2     1  UNL1       -0.4540
     13  O          8.5580   -3.9880   -2.1530 O.2     1  UNL1       -0.4540
     14  C          8.8940   -4.7170   -0.9970 C.3     1  UNL1        0.4680
@<TRIPOS>BOND
     1     9     7    1
     2     9    11    2
     3    13    11    1
     4    13    14    1
     5     7     6    2
     6    11    10    1
     7    14    12    1
     8     3     2    1
     9     6     5    1
    10     6     8    1
    11    10    12    1
    12    10     8    2
    13     5     1    1
    14     2     1    1
    15     2     4    2
