@<TRIPOS>MOLECULE
/home/cewinharhar/GITHUB/reincatalyze/data/processed/docking_pred/2023-May-23-1437_sub9_nm5_bs15_s42_ex16_mel10_mts10000_k50_ec02_g099_lra3e-4_lrc1e-3/f6b0a6d65051a5b20d9eb350202399160ef0f891_ligand_9.pdbqt
 14 15 0 0 0
SMALL
GASTEIGER

@<TRIPOS>ATOM
      1  C          5.4690   -0.0180    2.0070 C.3     1  UNL1        0.0800
      2  C          4.5900    1.1560    1.7480 C.2     1  UNL1        0.1300
      3  C          4.8940    2.1360    0.6700 C.3     1  UNL1        0.0870
      4  O          3.5890    1.3500    2.4180 O.2     1  UNL1       -0.3000
      5  C          6.8890    0.2440    1.5470 C.3     1  UNL1        0.0430
      6  C          7.3080   -0.7040    0.5000 C.2     1  UNL1       -0.0440
      7  C          7.1890   -0.3960   -0.8600 C.2     1  UNL1        0.0080
      8  C          7.8340   -1.9250    0.8570 C.2     1  UNL1        0.0540
      9  C          7.5990   -1.3250   -1.7980 C.2     1  UNL1        0.0510
     10  C          8.2490   -2.8620   -0.0950 C.2     1  UNL1        0.1660
     11  C          8.1300   -2.5590   -1.4330 C.2     1  UNL1        0.1650
     12  O          8.7940   -4.1240    0.0040 O.2     1  UNL1       -0.4540
     13  O          8.6110   -3.6530   -2.1360 O.2     1  UNL1       -0.4540
     14  C          9.1260   -4.6310   -1.2640 C.3     1  UNL1        0.4680
@<TRIPOS>BOND
     1    13    11    1
     2    13    14    1
     3     9    11    2
     4     9     7    1
     5    11    10    1
     6    14    12    1
     7     7     6    2
     8    10    12    1
     9    10     8    2
    10     6     8    1
    11     6     5    1
    12     3     2    1
    13     5     1    1
    14     2     1    1
    15     2     4    2
