MODEL 1
REMARK VINA RESULT:      -7.6      0.000      0.000
REMARK SMILES CC(=O)CCc1ccc2c(c1)OCO2
REMARK SMILES IDX 4 1 2 2 1 3 3 4 5 5 6 6 7 7 11 8 8 9 10 10 9 11 12 12 14 13
REMARK SMILES IDX 13 14
REMARK H PARENT
REMARK Flexibility Score: inf
ROOT
ATOM      1  C   UNL     1       5.591   1.864   1.306  1.00  0.00     0.080 C 
ENDROOT
BRANCH   1   2
ATOM      2  C   UNL     1       5.144   0.641   2.030  1.00  0.00     0.130 C 
ATOM      3  C   UNL     1       6.037  -0.536   2.199  1.00  0.00     0.087 C 
ATOM      4  O   UNL     1       4.023   0.570   2.508  1.00  0.00    -0.300 OA
ENDBRANCH   1   2
BRANCH   1   5
ATOM      5  C   UNL     1       5.453   1.696  -0.195  1.00  0.00     0.043 C 
BRANCH   5   6
ATOM      6  C   UNL     1       6.614   1.000  -0.776  1.00  0.00    -0.044 A 
ATOM      7  C   UNL     1       7.924   1.429  -0.531  1.00  0.00     0.008 A 
ATOM      8  C   UNL     1       6.419  -0.101  -1.578  1.00  0.00     0.054 A 
ATOM      9  C   UNL     1       8.975   0.736  -1.103  1.00  0.00     0.051 A 
ATOM     10  C   UNL     1       7.485  -0.799  -2.153  1.00  0.00     0.166 A 
ATOM     11  C   UNL     1       8.774  -0.377  -1.914  1.00  0.00     0.165 A 
ATOM     12  O   UNL     1       7.550  -1.905  -2.974  1.00  0.00    -0.454 OA
ATOM     13  O   UNL     1       9.612  -1.242  -2.599  1.00  0.00    -0.454 OA
ATOM     14  C   UNL     1       8.883  -2.279  -3.211  1.00  0.00     0.468 C 
ENDBRANCH   5   6
ENDBRANCH   1   5
TORSDOF 3
ENDMDL
MODEL 2
REMARK VINA RESULT:      -7.4      1.853      2.291
REMARK SMILES CC(=O)CCc1ccc2c(c1)OCO2
REMARK SMILES IDX 4 1 2 2 1 3 3 4 5 5 6 6 7 7 11 8 8 9 10 10 9 11 12 12 14 13
REMARK SMILES IDX 13 14
REMARK H PARENT
REMARK Flexibility Score: inf
ROOT
ATOM      1  C   UNL     1       5.750   1.503  -0.257  1.00  0.00     0.080 C 
ENDROOT
BRANCH   1   2
ATOM      2  C   UNL     1       5.083   1.333   1.064  1.00  0.00     0.130 C 
ATOM      3  C   UNL     1       5.375   0.169   1.943  1.00  0.00     0.087 C 
ATOM      4  O   UNL     1       4.270   2.150   1.465  1.00  0.00    -0.300 OA
ENDBRANCH   1   2
BRANCH   1   5
ATOM      5  C   UNL     1       7.236   1.219  -0.163  1.00  0.00     0.043 C 
BRANCH   5   6
ATOM      6  C   UNL     1       7.592  -0.054  -0.815  1.00  0.00    -0.044 A 
ATOM      7  C   UNL     1       7.628  -0.178  -2.209  1.00  0.00     0.008 A 
ATOM      8  C   UNL     1       7.899  -1.153  -0.046  1.00  0.00     0.054 A 
ATOM      9  C   UNL     1       7.970  -1.397  -2.765  1.00  0.00     0.051 A 
ATOM     10  C   UNL     1       8.244  -2.383  -0.613  1.00  0.00     0.166 A 
ATOM     11  C   UNL     1       8.279  -2.507  -1.984  1.00  0.00     0.165 A 
ATOM     12  O   UNL     1       8.585  -3.605  -0.072  1.00  0.00    -0.454 OA
ATOM     13  O   UNL     1       8.646  -3.814  -2.260  1.00  0.00    -0.454 OA
ATOM     14  C   UNL     1       8.938  -4.520  -1.077  1.00  0.00     0.468 C 
ENDBRANCH   5   6
ENDBRANCH   1   5
TORSDOF 3
ENDMDL
MODEL 3
REMARK VINA RESULT:      -7.2      2.075      2.627
REMARK SMILES CC(=O)CCc1ccc2c(c1)OCO2
REMARK SMILES IDX 4 1 2 2 1 3 3 4 5 5 6 6 7 7 11 8 8 9 10 10 9 11 12 12 14 13
REMARK SMILES IDX 13 14
REMARK H PARENT
REMARK Flexibility Score: inf
ROOT
ATOM      1  C   UNL     1       5.469  -0.018   2.007  1.00  0.00     0.080 C 
ENDROOT
BRANCH   1   2
ATOM      2  C   UNL     1       4.590   1.156   1.748  1.00  0.00     0.130 C 
ATOM      3  C   UNL     1       4.894   2.136   0.670  1.00  0.00     0.087 C 
ATOM      4  O   UNL     1       3.589   1.350   2.418  1.00  0.00    -0.300 OA
ENDBRANCH   1   2
BRANCH   1   5
ATOM      5  C   UNL     1       6.889   0.244   1.547  1.00  0.00     0.043 C 
BRANCH   5   6
ATOM      6  C   UNL     1       7.308  -0.704   0.500  1.00  0.00    -0.044 A 
ATOM      7  C   UNL     1       7.189  -0.396  -0.860  1.00  0.00     0.008 A 
ATOM      8  C   UNL     1       7.834  -1.925   0.857  1.00  0.00     0.054 A 
ATOM      9  C   UNL     1       7.599  -1.325  -1.798  1.00  0.00     0.051 A 
ATOM     10  C   UNL     1       8.249  -2.862  -0.095  1.00  0.00     0.166 A 
ATOM     11  C   UNL     1       8.130  -2.559  -1.433  1.00  0.00     0.165 A 
ATOM     12  O   UNL     1       8.794  -4.124   0.004  1.00  0.00    -0.454 OA
ATOM     13  O   UNL     1       8.611  -3.653  -2.136  1.00  0.00    -0.454 OA
ATOM     14  C   UNL     1       9.126  -4.631  -1.264  1.00  0.00     0.468 C 
ENDBRANCH   5   6
ENDBRANCH   1   5
TORSDOF 3
ENDMDL
MODEL 4
REMARK VINA RESULT:      -7.1      1.247      1.453
REMARK SMILES CC(=O)CCc1ccc2c(c1)OCO2
REMARK SMILES IDX 4 1 2 2 1 3 3 4 5 5 6 6 7 7 11 8 8 9 10 10 9 11 12 12 14 13
REMARK SMILES IDX 13 14
REMARK H PARENT
REMARK Flexibility Score: inf
ROOT
ATOM      1  C   UNL     1       6.385   1.216   0.916  1.00  0.00     0.080 C 
ENDROOT
BRANCH   1   2
ATOM      2  C   UNL     1       5.662   0.400   1.931  1.00  0.00     0.130 C 
ATOM      3  C   UNL     1       6.261  -0.829   2.516  1.00  0.00     0.087 C 
ATOM      4  O   UNL     1       4.548   0.720   2.315  1.00  0.00    -0.300 OA
ENDBRANCH   1   2
BRANCH   1   5
ATOM      5  C   UNL     1       5.875   0.933  -0.483  1.00  0.00     0.043 C 
BRANCH   5   6
ATOM      6  C   UNL     1       6.820   0.105  -1.252  1.00  0.00    -0.044 A 
ATOM      7  C   UNL     1       7.501   0.611  -2.365  1.00  0.00     0.008 A 
ATOM      8  C   UNL     1       7.049  -1.199  -0.874  1.00  0.00     0.054 A 
ATOM      9  C   UNL     1       8.377  -0.213  -3.048  1.00  0.00     0.051 A 
ATOM     10  C   UNL     1       7.936  -2.028  -1.567  1.00  0.00     0.166 A 
ATOM     11  C   UNL     1       8.606  -1.531  -2.663  1.00  0.00     0.165 A 
ATOM     12  O   UNL     1       8.329  -3.338  -1.393  1.00  0.00    -0.454 OA
ATOM     13  O   UNL     1       9.404  -2.556  -3.144  1.00  0.00    -0.454 OA
ATOM     14  C   UNL     1       9.328  -3.691  -2.315  1.00  0.00     0.468 C 
ENDBRANCH   5   6
ENDBRANCH   1   5
TORSDOF 3
ENDMDL
MODEL 5
REMARK VINA RESULT:      -7.0      2.017      2.565
REMARK SMILES CC(=O)CCc1ccc2c(c1)OCO2
REMARK SMILES IDX 4 1 2 2 1 3 3 4 5 5 6 6 7 7 11 8 8 9 10 10 9 11 12 12 14 13
REMARK SMILES IDX 13 14
REMARK H PARENT
REMARK Flexibility Score: inf
ROOT
ATOM      1  C   UNL     1       6.756   0.592   1.325  1.00  0.00     0.080 C 
ENDROOT
BRANCH   1   2
ATOM      2  C   UNL     1       5.350   1.063   1.470  1.00  0.00     0.130 C 
ATOM      3  C   UNL     1       4.799   2.149   0.616  1.00  0.00     0.087 C 
ATOM      4  O   UNL     1       4.606   0.567   2.300  1.00  0.00    -0.300 OA
ENDBRANCH   1   2
BRANCH   1   5
ATOM      5  C   UNL     1       7.279   0.843  -0.075  1.00  0.00     0.043 C 
BRANCH   5   6
ATOM      6  C   UNL     1       7.705  -0.406  -0.731  1.00  0.00    -0.044 A 
ATOM      7  C   UNL     1       7.886  -0.481  -2.117  1.00  0.00     0.008 A 
ATOM      8  C   UNL     1       7.936  -1.531   0.028  1.00  0.00     0.054 A 
ATOM      9  C   UNL     1       8.288  -1.680  -2.677  1.00  0.00     0.051 A 
ATOM     10  C   UNL     1       8.343  -2.740  -0.543  1.00  0.00     0.166 A 
ATOM     11  C   UNL     1       8.520  -2.816  -1.906  1.00  0.00     0.165 A 
ATOM     12  O   UNL     1       8.632  -3.980  -0.012  1.00  0.00    -0.454 OA
ATOM     13  O   UNL     1       8.919  -4.113  -2.187  1.00  0.00    -0.454 OA
ATOM     14  C   UNL     1       9.090  -4.859  -1.006  1.00  0.00     0.468 C 
ENDBRANCH   5   6
ENDBRANCH   1   5
TORSDOF 3
ENDMDL
