@<TRIPOS>MOLECULE
/home/cewinharhar/GITHUB/reincatalyze/data/processed/docking_pred/2023-May-23-1437_sub9_nm5_bs15_s42_ex16_mel10_mts10000_k50_ec02_g099_lra3e-4_lrc1e-3/f6b0a6d65051a5b20d9eb350202399160ef0f891_ligand_9.pdbqt
 14 15 0 0 0
SMALL
GASTEIGER

@<TRIPOS>ATOM
      1  C          6.3850    1.2160    0.9160 C.3     1  UNL1        0.0800
      2  C          5.6620    0.4000    1.9310 C.2     1  UNL1        0.1300
      3  C          6.2610   -0.8290    2.5160 C.3     1  UNL1        0.0870
      4  O          4.5480    0.7200    2.3150 O.2     1  UNL1       -0.3000
      5  C          5.8750    0.9330   -0.4830 C.3     1  UNL1        0.0430
      6  C          6.8200    0.1050   -1.2520 C.2     1  UNL1       -0.0440
      7  C          7.5010    0.6110   -2.3650 C.2     1  UNL1        0.0080
      8  C          7.0490   -1.1990   -0.8740 C.2     1  UNL1        0.0540
      9  C          8.3770   -0.2130   -3.0480 C.2     1  UNL1        0.0510
     10  C          7.9360   -2.0280   -1.5670 C.2     1  UNL1        0.1660
     11  C          8.6060   -1.5310   -2.6630 C.2     1  UNL1        0.1650
     12  O          8.3290   -3.3380   -1.3930 O.2     1  UNL1       -0.4540
     13  O          9.4040   -2.5560   -3.1440 O.2     1  UNL1       -0.4540
     14  C          9.3280   -3.6910   -2.3150 C.3     1  UNL1        0.4680
@<TRIPOS>BOND
     1    13    11    1
     2    13    14    1
     3     9    11    2
     4     9     7    1
     5    11    10    1
     6     7     6    2
     7    14    12    1
     8    10    12    1
     9    10     8    2
    10     6     8    1
    11     6     5    1
    12     5     1    1
    13     1     2    1
    14     2     4    2
    15     2     3    1
