@<TRIPOS>MOLECULE
/home/cewinharhar/GITHUB/reincatalyze/data/processed/docking_pred/2023-May-23-1437_sub9_nm5_bs15_s42_ex16_mel10_mts10000_k50_ec02_g099_lra3e-4_lrc1e-3/f6b0a6d65051a5b20d9eb350202399160ef0f891_ligand_9.pdbqt
 14 15 0 0 0
SMALL
GASTEIGER

@<TRIPOS>ATOM
      1  C          5.7500    1.5030   -0.2570 C.3     1  UNL1        0.0800
      2  C          5.0830    1.3330    1.0640 C.2     1  UNL1        0.1300
      3  C          5.3750    0.1690    1.9430 C.3     1  UNL1        0.0870
      4  O          4.2700    2.1500    1.4650 O.2     1  UNL1       -0.3000
      5  C          7.2360    1.2190   -0.1630 C.3     1  UNL1        0.0430
      6  C          7.5920   -0.0540   -0.8150 C.2     1  UNL1       -0.0440
      7  C          7.6280   -0.1780   -2.2090 C.2     1  UNL1        0.0080
      8  C          7.8990   -1.1530   -0.0460 C.2     1  UNL1        0.0540
      9  C          7.9700   -1.3970   -2.7650 C.2     1  UNL1        0.0510
     10  C          8.2440   -2.3830   -0.6130 C.2     1  UNL1        0.1660
     11  C          8.2790   -2.5070   -1.9840 C.2     1  UNL1        0.1650
     12  O          8.5850   -3.6050   -0.0720 O.2     1  UNL1       -0.4540
     13  O          8.6460   -3.8140   -2.2600 O.2     1  UNL1       -0.4540
     14  C          8.9380   -4.5200   -1.0770 C.3     1  UNL1        0.4680
@<TRIPOS>BOND
     1     9     7    1
     2     9    11    2
     3    13    11    1
     4    13    14    1
     5     7     6    2
     6    11    10    1
     7    14    12    1
     8     6     5    1
     9     6     8    1
    10    10    12    1
    11    10     8    2
    12     1     5    1
    13     1     2    1
    14     2     4    2
    15     2     3    1
