MODEL 1
REMARK VINA RESULT:      -7.7      0.000      0.000
REMARK SMILES CC(=O)CCc1ccc2c(c1)OCO2
REMARK SMILES IDX 4 1 2 2 1 3 3 4 5 5 6 6 7 7 11 8 8 9 10 10 9 11 12 12 14 13
REMARK SMILES IDX 13 14
REMARK H PARENT
REMARK Flexibility Score: inf
ROOT
ATOM      1  C   UNL     1       5.502   1.899   1.256  1.00  0.00     0.080 C 
ENDROOT
BRANCH   1   2
ATOM      2  C   UNL     1       5.030   0.695   1.995  1.00  0.00     0.130 C 
ATOM      3  C   UNL     1       5.867  -0.528   2.111  1.00  0.00     0.087 C 
ATOM      4  O   UNL     1       3.933   0.679   2.531  1.00  0.00    -0.300 OA
ENDBRANCH   1   2
BRANCH   1   5
ATOM      5  C   UNL     1       5.380   1.708  -0.243  1.00  0.00     0.043 C 
BRANCH   5   6
ATOM      6  C   UNL     1       6.555   1.017  -0.803  1.00  0.00    -0.044 A 
ATOM      7  C   UNL     1       7.857   1.470  -0.561  1.00  0.00     0.008 A 
ATOM      8  C   UNL     1       6.379  -0.103  -1.583  1.00  0.00     0.054 A 
ATOM      9  C   UNL     1       8.921   0.780  -1.113  1.00  0.00     0.051 A 
ATOM     10  C   UNL     1       7.459  -0.798  -2.138  1.00  0.00     0.166 A 
ATOM     11  C   UNL     1       8.740  -0.352  -1.901  1.00  0.00     0.165 A 
ATOM     12  O   UNL     1       7.544  -1.919  -2.936  1.00  0.00    -0.454 OA
ATOM     13  O   UNL     1       9.595  -1.218  -2.564  1.00  0.00    -0.454 OA
ATOM     14  C   UNL     1       8.884  -2.278  -3.158  1.00  0.00     0.468 C 
ENDBRANCH   5   6
ENDBRANCH   1   5
TORSDOF 3
ENDMDL
MODEL 2
REMARK VINA RESULT:      -7.5      1.909      2.365
REMARK SMILES CC(=O)CCc1ccc2c(c1)OCO2
REMARK SMILES IDX 4 1 2 2 1 3 3 4 5 5 6 6 7 7 11 8 8 9 10 10 9 11 12 12 14 13
REMARK SMILES IDX 13 14
REMARK H PARENT
REMARK Flexibility Score: inf
ROOT
ATOM      1  C   UNL     1       5.732   1.396  -0.272  1.00  0.00     0.080 C 
ENDROOT
BRANCH   1   2
ATOM      2  C   UNL     1       5.109   1.283   1.076  1.00  0.00     0.130 C 
ATOM      3  C   UNL     1       5.416   0.146   1.985  1.00  0.00     0.087 C 
ATOM      4  O   UNL     1       4.324   2.127   1.477  1.00  0.00    -0.300 OA
ENDBRANCH   1   2
BRANCH   1   5
ATOM      5  C   UNL     1       7.226   1.145  -0.212  1.00  0.00     0.043 C 
BRANCH   5   6
ATOM      6  C   UNL     1       7.587  -0.147  -0.821  1.00  0.00    -0.044 A 
ATOM      7  C   UNL     1       7.625  -0.318  -2.210  1.00  0.00     0.008 A 
ATOM      8  C   UNL     1       7.900  -1.218  -0.015  1.00  0.00     0.054 A 
ATOM      9  C   UNL     1       7.972  -1.554  -2.725  1.00  0.00     0.051 A 
ATOM     10  C   UNL     1       8.251  -2.465  -0.540  1.00  0.00     0.166 A 
ATOM     11  C   UNL     1       8.287  -2.634  -1.907  1.00  0.00     0.165 A 
ATOM     12  O   UNL     1       8.598  -3.666   0.041  1.00  0.00    -0.454 OA
ATOM     13  O   UNL     1       8.661  -3.949  -2.138  1.00  0.00    -0.454 OA
ATOM     14  C   UNL     1       8.956  -4.613  -0.932  1.00  0.00     0.468 C 
ENDBRANCH   5   6
ENDBRANCH   1   5
TORSDOF 3
ENDMDL
MODEL 3
REMARK VINA RESULT:      -7.2      2.090      2.616
REMARK SMILES CC(=O)CCc1ccc2c(c1)OCO2
REMARK SMILES IDX 4 1 2 2 1 3 3 4 5 5 6 6 7 7 11 8 8 9 10 10 9 11 12 12 14 13
REMARK SMILES IDX 13 14
REMARK H PARENT
REMARK Flexibility Score: inf
ROOT
ATOM      1  C   UNL     1       5.589   0.031   1.941  1.00  0.00     0.080 C 
ENDROOT
BRANCH   1   2
ATOM      2  C   UNL     1       4.682   1.170   1.627  1.00  0.00     0.130 C 
ATOM      3  C   UNL     1       4.958   2.099   0.498  1.00  0.00     0.087 C 
ATOM      4  O   UNL     1       3.681   1.376   2.292  1.00  0.00    -0.300 OA
ENDBRANCH   1   2
BRANCH   1   5
ATOM      5  C   UNL     1       6.995   0.291   1.438  1.00  0.00     0.043 C 
BRANCH   5   6
ATOM      6  C   UNL     1       7.397  -0.685   0.410  1.00  0.00    -0.044 A 
ATOM      7  C   UNL     1       7.299  -0.394  -0.956  1.00  0.00     0.008 A 
ATOM      8  C   UNL     1       7.884  -1.915   0.790  1.00  0.00     0.054 A 
ATOM      9  C   UNL     1       7.692  -1.349  -1.875  1.00  0.00     0.051 A 
ATOM     10  C   UNL     1       8.281  -2.877  -0.144  1.00  0.00     0.166 A 
ATOM     11  C   UNL     1       8.184  -2.591  -1.488  1.00  0.00     0.165 A 
ATOM     12  O   UNL     1       8.789  -4.153  -0.021  1.00  0.00    -0.454 OA
ATOM     13  O   UNL     1       8.640  -3.709  -2.169  1.00  0.00    -0.454 OA
ATOM     14  C   UNL     1       9.118  -4.688  -1.277  1.00  0.00     0.468 C 
ENDBRANCH   5   6
ENDBRANCH   1   5
TORSDOF 3
ENDMDL
MODEL 4
REMARK VINA RESULT:      -7.1      1.246      1.444
REMARK SMILES CC(=O)CCc1ccc2c(c1)OCO2
REMARK SMILES IDX 4 1 2 2 1 3 3 4 5 5 6 6 7 7 11 8 8 9 10 10 9 11 12 12 14 13
REMARK SMILES IDX 13 14
REMARK H PARENT
REMARK Flexibility Score: inf
ROOT
ATOM      1  C   UNL     1       6.335   1.240   0.853  1.00  0.00     0.080 C 
ENDROOT
BRANCH   1   2
ATOM      2  C   UNL     1       5.644   0.439   1.902  1.00  0.00     0.130 C 
ATOM      3  C   UNL     1       6.256  -0.790   2.475  1.00  0.00     0.087 C 
ATOM      4  O   UNL     1       4.548   0.770   2.323  1.00  0.00    -0.300 OA
ENDBRANCH   1   2
BRANCH   1   5
ATOM      5  C   UNL     1       5.821   0.895  -0.530  1.00  0.00     0.043 C 
BRANCH   5   6
ATOM      6  C   UNL     1       6.794   0.090  -1.289  1.00  0.00    -0.044 A 
ATOM      7  C   UNL     1       7.512   0.627  -2.364  1.00  0.00     0.008 A 
ATOM      8  C   UNL     1       7.013  -1.224  -0.940  1.00  0.00     0.054 A 
ATOM      9  C   UNL     1       8.413  -0.176  -3.038  1.00  0.00     0.051 A 
ATOM     10  C   UNL     1       7.925  -2.032  -1.624  1.00  0.00     0.166 A 
ATOM     11  C   UNL     1       8.631  -1.504  -2.683  1.00  0.00     0.165 A 
ATOM     12  O   UNL     1       8.314  -3.346  -1.474  1.00  0.00    -0.454 OA
ATOM     13  O   UNL     1       9.448  -2.515  -3.164  1.00  0.00    -0.454 OA
ATOM     14  C   UNL     1       9.345  -3.673  -2.369  1.00  0.00     0.468 C 
ENDBRANCH   5   6
ENDBRANCH   1   5
TORSDOF 3
ENDMDL
MODEL 5
REMARK VINA RESULT:      -6.8      1.257      1.741
REMARK SMILES CC(=O)CCc1ccc2c(c1)OCO2
REMARK SMILES IDX 4 1 2 2 1 3 3 4 5 5 6 6 7 7 11 8 8 9 10 10 9 11 12 12 14 13
REMARK SMILES IDX 13 14
REMARK H PARENT
REMARK Flexibility Score: inf
ROOT
ATOM      1  C   UNL     1       5.335  -0.070   1.974  1.00  0.00     0.080 C 
ENDROOT
BRANCH   1   2
ATOM      2  C   UNL     1       4.446   1.112   1.791  1.00  0.00     0.130 C 
ATOM      3  C   UNL     1       4.721   2.143   0.756  1.00  0.00     0.087 C 
ATOM      4  O   UNL     1       3.459   1.268   2.492  1.00  0.00    -0.300 OA
ENDBRANCH   1   2
BRANCH   1   5
ATOM      5  C   UNL     1       6.796   0.325   1.904  1.00  0.00     0.043 C 
BRANCH   5   6
ATOM      6  C   UNL     1       7.398  -0.035   0.608  1.00  0.00    -0.044 A 
ATOM      7  C   UNL     1       7.895   0.939  -0.266  1.00  0.00     0.008 A 
ATOM      8  C   UNL     1       7.481  -1.358   0.239  1.00  0.00     0.054 A 
ATOM      9  C   UNL     1       8.450   0.541  -1.468  1.00  0.00     0.051 A 
ATOM     10  C   UNL     1       8.044  -1.755  -0.978  1.00  0.00     0.166 A 
ATOM     11  C   UNL     1       8.532  -0.798  -1.839  1.00  0.00     0.165 A 
ATOM     12  O   UNL     1       8.238  -2.987  -1.566  1.00  0.00    -0.454 OA
ATOM     13  O   UNL     1       9.022  -1.468  -2.948  1.00  0.00    -0.454 OA
ATOM     14  C   UNL     1       8.939  -2.863  -2.777  1.00  0.00     0.468 C 
ENDBRANCH   5   6
ENDBRANCH   1   5
TORSDOF 3
ENDMDL
