@<TRIPOS>MOLECULE
/home/cewinharhar/GITHUB/reincatalyze/data/processed/docking_pred/2023-May-23-1437_sub9_nm5_bs15_s42_ex16_mel10_mts10000_k50_ec02_g099_lra3e-4_lrc1e-3/f74925e0f2dbd9eb14447f51d5c862455f02ecd6_ligand_9.pdbqt
 14 15 0 0 0
SMALL
GASTEIGER

@<TRIPOS>ATOM
      1  C          5.5890    0.0310    1.9410 C.3     1  UNL1        0.0800
      2  C          4.6820    1.1700    1.6270 C.2     1  UNL1        0.1300
      3  C          4.9580    2.0990    0.4980 C.3     1  UNL1        0.0870
      4  O          3.6810    1.3760    2.2920 O.2     1  UNL1       -0.3000
      5  C          6.9950    0.2910    1.4380 C.3     1  UNL1        0.0430
      6  C          7.3970   -0.6850    0.4100 C.2     1  UNL1       -0.0440
      7  C          7.2990   -0.3940   -0.9560 C.2     1  UNL1        0.0080
      8  C          7.8840   -1.9150    0.7900 C.2     1  UNL1        0.0540
      9  C          7.6920   -1.3490   -1.8750 C.2     1  UNL1        0.0510
     10  C          8.2810   -2.8770   -0.1440 C.2     1  UNL1        0.1660
     11  C          8.1840   -2.5910   -1.4880 C.2     1  UNL1        0.1650
     12  O          8.7890   -4.1530   -0.0210 O.2     1  UNL1       -0.4540
     13  O          8.6400   -3.7090   -2.1690 O.2     1  UNL1       -0.4540
     14  C          9.1180   -4.6880   -1.2770 C.3     1  UNL1        0.4680
@<TRIPOS>BOND
     1    13    11    1
     2    13    14    1
     3     9    11    2
     4     9     7    1
     5    11    10    1
     6    14    12    1
     7     7     6    2
     8    10    12    1
     9    10     8    2
    10     6     8    1
    11     6     5    1
    12     3     2    1
    13     5     1    1
    14     2     1    1
    15     2     4    2
