@<TRIPOS>MOLECULE
/home/cewinharhar/GITHUB/reincatalyze/data/processed/docking_pred/2023-May-23-1437_sub9_nm5_bs15_s42_ex16_mel10_mts10000_k50_ec02_g099_lra3e-4_lrc1e-3/f9550a52c30547fdb3e6e224a3b8a38c5560e948_ligand_9.pdbqt
 14 15 0 0 0
SMALL
GASTEIGER

@<TRIPOS>ATOM
      1  C          5.8290    1.4010   -0.3770 C.3     1  UNL1        0.0800
      2  C          5.1640    1.3300    0.9550 C.2     1  UNL1        0.1300
      3  C          5.4990    0.2660    1.9390 C.3     1  UNL1        0.0870
      4  O          4.3200    2.1500    1.2780 O.2     1  UNL1       -0.3000
      5  C          7.3090    1.0900   -0.2700 C.3     1  UNL1        0.0430
      6  C          7.6380   -0.2140   -0.8730 C.2     1  UNL1       -0.0440
      7  C          7.6490   -0.3970   -2.2610 C.2     1  UNL1        0.0080
      8  C          7.9470   -1.2820   -0.0630 C.2     1  UNL1        0.0540
      9  C          7.9660   -1.6430   -2.7700 C.2     1  UNL1        0.0510
     10  C          8.2670   -2.5400   -0.5830 C.2     1  UNL1        0.1660
     11  C          8.2770   -2.7220   -1.9480 C.2     1  UNL1        0.1650
     12  O          8.6040   -3.7410    0.0040 O.2     1  UNL1       -0.4540
     13  O          8.6240   -4.0450   -2.1730 O.2     1  UNL1       -0.4540
     14  C          8.9290   -4.7030   -0.9670 C.3     1  UNL1        0.4680
@<TRIPOS>BOND
     1     9     7    1
     2     9    11    2
     3     7     6    2
     4    13    11    1
     5    13    14    1
     6    11    10    1
     7    14    12    1
     8     6     5    1
     9     6     8    1
    10    10     8    2
    11    10    12    1
    12     1     5    1
    13     1     2    1
    14     2     4    2
    15     2     3    1
