@<TRIPOS>MOLECULE
/home/cewinharhar/GITHUB/reincatalyze/data/processed/docking_pred/2023-May-23-1437_sub9_nm5_bs15_s42_ex16_mel10_mts10000_k50_ec02_g099_lra3e-4_lrc1e-3/f9550a52c30547fdb3e6e224a3b8a38c5560e948_ligand_9.pdbqt
 14 15 0 0 0
SMALL
GASTEIGER

@<TRIPOS>ATOM
      1  C          6.3950    1.1990    0.9470 C.3     1  UNL1        0.0800
      2  C          5.6560    0.3670    1.9370 C.2     1  UNL1        0.1300
      3  C          6.2480   -0.8690    2.5160 C.3     1  UNL1        0.0870
      4  O          4.5340    0.6770    2.3040 O.2     1  UNL1       -0.3000
      5  C          5.8950    0.9500   -0.4630 C.3     1  UNL1        0.0430
      6  C          6.8320    0.1140   -1.2350 C.2     1  UNL1       -0.0440
      7  C          7.5160    0.6160   -2.3470 C.2     1  UNL1        0.0080
      8  C          7.0480   -1.1920   -0.8600 C.2     1  UNL1        0.0540
      9  C          8.3840   -0.2150   -3.0330 C.2     1  UNL1        0.0510
     10  C          7.9260   -2.0280   -1.5560 C.2     1  UNL1        0.1660
     11  C          8.5990   -1.5360   -2.6510 C.2     1  UNL1        0.1650
     12  O          8.3060   -3.3430   -1.3850 O.2     1  UNL1       -0.4540
     13  O          9.3870   -2.5680   -3.1350 O.2     1  UNL1       -0.4540
     14  C          9.3010   -3.7040   -2.3090 C.3     1  UNL1        0.4680
@<TRIPOS>BOND
     1    13    11    1
     2    13    14    1
     3     9    11    2
     4     9     7    1
     5    11    10    1
     6     7     6    2
     7    14    12    1
     8    10    12    1
     9    10     8    2
    10     6     8    1
    11     6     5    1
    12     5     1    1
    13     1     2    1
    14     2     4    2
    15     2     3    1
