@<TRIPOS>MOLECULE
/home/cewinharhar/GITHUB/reincatalyze/data/processed/docking_pred/2023-May-23-1437_sub9_nm5_bs15_s42_ex16_mel10_mts10000_k50_ec02_g099_lra3e-4_lrc1e-3/f9550a52c30547fdb3e6e224a3b8a38c5560e948_ligand_9.pdbqt
 14 15 0 0 0
SMALL
GASTEIGER

@<TRIPOS>ATOM
      1  C          5.4750   -0.0170    2.0110 C.3     1  UNL1        0.0800
      2  C          4.5900    1.1540    1.7570 C.2     1  UNL1        0.1300
      3  C          4.8880    2.1380    0.6810 C.3     1  UNL1        0.0870
      4  O          3.5890    1.3410    2.4290 O.2     1  UNL1       -0.3000
      5  C          6.8910    0.2500    1.5420 C.3     1  UNL1        0.0430
      6  C          7.3060   -0.6980    0.4920 C.2     1  UNL1       -0.0440
      7  C          7.1680   -0.3930   -0.8670 C.2     1  UNL1        0.0080
      8  C          7.8460   -1.9140    0.8460 C.2     1  UNL1        0.0540
      9  C          7.5770   -1.3220   -1.8070 C.2     1  UNL1        0.0510
     10  C          8.2580   -2.8480   -0.1090 C.2     1  UNL1        0.1660
     11  C          8.1220   -2.5500   -1.4470 C.2     1  UNL1        0.1650
     12  O          8.8150   -4.1060   -0.0140 O.2     1  UNL1       -0.4540
     13  O          8.6040   -3.6410   -2.1520 O.2     1  UNL1       -0.4540
     14  C          9.1370   -4.6130   -1.2840 C.3     1  UNL1        0.4680
@<TRIPOS>BOND
     1    13    11    1
     2    13    14    1
     3     9    11    2
     4     9     7    1
     5    11    10    1
     6    14    12    1
     7     7     6    2
     8    10    12    1
     9    10     8    2
    10     6     8    1
    11     6     5    1
    12     3     2    1
    13     5     1    1
    14     2     1    1
    15     2     4    2
