@<TRIPOS>MOLECULE
/home/cewinharhar/GITHUB/reincatalyze/data/processed/docking_pred/2023-May-23-1437_sub9_nm5_bs15_s42_ex16_mel10_mts10000_k50_ec02_g099_lra3e-4_lrc1e-3/faf685cb0c2e1ff185f0c147bdf23d27aa2a460b_ligand_9.pdbqt
 14 15 0 0 0
SMALL
GASTEIGER

@<TRIPOS>ATOM
      1  C          5.5390    1.8900    1.2910 C.3     1  UNL1        0.0800
      2  C          5.0960    0.6660    2.0150 C.2     1  UNL1        0.1300
      3  C          5.9900   -0.5110    2.1790 C.3     1  UNL1        0.0870
      4  O          3.9770    0.5930    2.4970 O.2     1  UNL1       -0.3000
      5  C          5.4100    1.7190   -0.2100 C.3     1  UNL1        0.0430
      6  C          6.5730    1.0190   -0.7820 C.2     1  UNL1       -0.0440
      7  C          7.8820    1.4550   -0.5430 C.2     1  UNL1        0.0080
      8  C          6.3810   -0.0930   -1.5700 C.2     1  UNL1        0.0540
      9  C          8.9350    0.7580   -1.1060 C.2     1  UNL1        0.0510
     10  C          7.4490   -0.7950   -2.1370 C.2     1  UNL1        0.1660
     11  C          8.7360   -0.3660   -1.9030 C.2     1  UNL1        0.1650
     12  O          7.5170   -1.9100   -2.9440 O.2     1  UNL1       -0.4540
     13  O          9.5780   -1.2370   -2.5770 O.2     1  UNL1       -0.4540
     14  C          8.8520   -2.2840   -3.1760 C.3     1  UNL1        0.4680
@<TRIPOS>BOND
     1    14    12    1
     2    14    13    1
     3    12    10    1
     4    13    11    1
     5    10    11    2
     6    10     8    1
     7    11     9    1
     8     8     6    2
     9     9     7    2
    10     6     7    1
    11     6     5    1
    12     5     1    1
    13     1     2    1
    14     2     3    1
    15     2     4    2
