@<TRIPOS>MOLECULE
/home/cewinharhar/GITHUB/reincatalyze/data/processed/docking_pred/2023-May-23-1437_sub9_nm5_bs15_s42_ex16_mel10_mts10000_k50_ec02_g099_lra3e-4_lrc1e-3/fbb46063794dc265e75c2cefc4e8ae8bb502d9b1_ligand_9.pdbqt
 14 15 0 0 0
SMALL
GASTEIGER

@<TRIPOS>ATOM
      1  C          5.7220    1.2970   -0.3080 C.3     1  UNL1        0.0800
      2  C          5.2080    1.2370    1.0890 C.2     1  UNL1        0.1300
      3  C          5.4800    0.0700    1.9710 C.3     1  UNL1        0.0870
      4  O          4.5440    2.1500    1.5530 O.2     1  UNL1       -0.3000
      5  C          7.2260    1.1080   -0.3500 C.3     1  UNL1        0.0430
      6  C          7.5970   -0.1870   -0.9470 C.2     1  UNL1       -0.0440
      7  C          7.6210   -0.3760   -2.3330 C.2     1  UNL1        0.0080
      8  C          7.9310   -1.2430   -0.1300 C.2     1  UNL1        0.0540
      9  C          7.9790   -1.6140   -2.8360 C.2     1  UNL1        0.0510
     10  C          8.2920   -2.4930   -0.6430 C.2     1  UNL1        0.1660
     11  C          8.3160   -2.6790   -2.0070 C.2     1  UNL1        0.1650
     12  O          8.6600   -3.6820   -0.0500 O.2     1  UNL1       -0.4540
     13  O          8.7030   -3.9920   -2.2260 O.2     1  UNL1       -0.4540
     14  C          9.0190   -4.6370   -1.0150 C.3     1  UNL1        0.4680
@<TRIPOS>BOND
     1     9     7    1
     2     9    11    2
     3     7     6    2
     4    13    11    1
     5    13    14    1
     6    11    10    1
     7    14    12    1
     8     6     5    1
     9     6     8    1
    10    10     8    2
    11    10    12    1
    12     5     1    1
    13     1     2    1
    14     2     4    2
    15     2     3    1
