@<TRIPOS>MOLECULE
/home/cewinharhar/GITHUB/reincatalyze/data/processed/docking_pred/2023-May-23-1437_sub9_nm5_bs15_s42_ex16_mel10_mts10000_k50_ec02_g099_lra3e-4_lrc1e-3/fbb46063794dc265e75c2cefc4e8ae8bb502d9b1_ligand_9.pdbqt
 14 15 0 0 0
SMALL
GASTEIGER

@<TRIPOS>ATOM
      1  C          6.4020    1.1760    0.9580 C.3     1  UNL1        0.0800
      2  C          5.6530    0.3490    1.9450 C.2     1  UNL1        0.1300
      3  C          6.2250   -0.9020    2.5090 C.3     1  UNL1        0.0870
      4  O          4.5390    0.6780    2.3210 O.2     1  UNL1       -0.3000
      5  C          5.8940    0.9450   -0.4510 C.3     1  UNL1        0.0430
      6  C          6.8230    0.1130   -1.2370 C.2     1  UNL1       -0.0440
      7  C          7.4840    0.6170   -2.3630 C.2     1  UNL1        0.0080
      8  C          7.0550   -1.1900   -0.8620 C.2     1  UNL1        0.0540
      9  C          8.3450   -0.2100   -3.0610 C.2     1  UNL1        0.0510
     10  C          7.9270   -2.0220   -1.5710 C.2     1  UNL1        0.1660
     11  C          8.5770   -1.5280   -2.6800 C.2     1  UNL1        0.1650
     12  O          8.3190   -3.3330   -1.4030 O.2     1  UNL1       -0.4540
     13  O          9.3640   -2.5560   -3.1740 O.2     1  UNL1       -0.4540
     14  C          9.3000   -3.6900   -2.3420 C.3     1  UNL1        0.4680
@<TRIPOS>BOND
     1    13    11    1
     2    13    14    1
     3     9    11    2
     4     9     7    1
     5    11    10    1
     6     7     6    2
     7    14    12    1
     8    10    12    1
     9    10     8    2
    10     6     8    1
    11     6     5    1
    12     5     1    1
    13     1     2    1
    14     2     4    2
    15     2     3    1
