MODEL 1
REMARK VINA RESULT:      -7.6      0.000      0.000
REMARK SMILES CC(=O)CCc1ccc2c(c1)OCO2
REMARK SMILES IDX 4 1 2 2 1 3 3 4 5 5 6 6 7 7 11 8 8 9 10 10 9 11 12 12 14 13
REMARK SMILES IDX 13 14
REMARK H PARENT
REMARK Flexibility Score: inf
ROOT
ATOM      1  C   UNL     1       5.500   1.873   1.234  1.00  0.00     0.080 C 
ENDROOT
BRANCH   1   2
ATOM      2  C   UNL     1       5.006   0.663   1.949  1.00  0.00     0.130 C 
ATOM      3  C   UNL     1       5.827  -0.573   2.050  1.00  0.00     0.087 C 
ATOM      4  O   UNL     1       3.905   0.652   2.475  1.00  0.00    -0.300 OA
ENDBRANCH   1   2
BRANCH   1   5
ATOM      5  C   UNL     1       5.399   1.705  -0.269  1.00  0.00     0.043 C 
BRANCH   5   6
ATOM      6  C   UNL     1       6.566   0.993  -0.819  1.00  0.00    -0.044 A 
ATOM      7  C   UNL     1       7.873   1.429  -0.573  1.00  0.00     0.008 A 
ATOM      8  C   UNL     1       6.378  -0.130  -1.592  1.00  0.00     0.054 A 
ATOM      9  C   UNL     1       8.930   0.721  -1.115  1.00  0.00     0.051 A 
ATOM     10  C   UNL     1       7.450  -0.843  -2.137  1.00  0.00     0.166 A 
ATOM     11  C   UNL     1       8.737  -0.414  -1.897  1.00  0.00     0.165 A 
ATOM     12  O   UNL     1       7.524  -1.972  -2.926  1.00  0.00    -0.454 OA
ATOM     13  O   UNL     1       9.582  -1.297  -2.549  1.00  0.00    -0.454 OA
ATOM     14  C   UNL     1       8.859  -2.352  -3.139  1.00  0.00     0.468 C 
ENDBRANCH   5   6
ENDBRANCH   1   5
TORSDOF 3
ENDMDL
MODEL 2
REMARK VINA RESULT:      -7.5      1.868      2.317
REMARK SMILES CC(=O)CCc1ccc2c(c1)OCO2
REMARK SMILES IDX 4 1 2 2 1 3 3 4 5 5 6 6 7 7 11 8 8 9 10 10 9 11 12 12 14 13
REMARK SMILES IDX 13 14
REMARK H PARENT
REMARK Flexibility Score: inf
ROOT
ATOM      1  C   UNL     1       5.716   1.388  -0.310  1.00  0.00     0.080 C 
ENDROOT
BRANCH   1   2
ATOM      2  C   UNL     1       5.136   1.291   1.058  1.00  0.00     0.130 C 
ATOM      3  C   UNL     1       5.456   0.156   1.964  1.00  0.00     0.087 C 
ATOM      4  O   UNL     1       4.374   2.148   1.478  1.00  0.00    -0.300 OA
ENDBRANCH   1   2
BRANCH   1   5
ATOM      5  C   UNL     1       7.216   1.167  -0.289  1.00  0.00     0.043 C 
BRANCH   5   6
ATOM      6  C   UNL     1       7.586  -0.128  -0.885  1.00  0.00    -0.044 A 
ATOM      7  C   UNL     1       7.670  -0.300  -2.272  1.00  0.00     0.008 A 
ATOM      8  C   UNL     1       7.862  -1.202  -0.069  1.00  0.00     0.054 A 
ATOM      9  C   UNL     1       8.023  -1.539  -2.775  1.00  0.00     0.051 A 
ATOM     10  C   UNL     1       8.219  -2.452  -0.582  1.00  0.00     0.166 A 
ATOM     11  C   UNL     1       8.300  -2.622  -1.946  1.00  0.00     0.165 A 
ATOM     12  O   UNL     1       8.535  -3.656   0.011  1.00  0.00    -0.454 OA
ATOM     13  O   UNL     1       8.669  -3.940  -2.165  1.00  0.00    -0.454 OA
ATOM     14  C   UNL     1       8.917  -4.606  -0.950  1.00  0.00     0.468 C 
ENDBRANCH   5   6
ENDBRANCH   1   5
TORSDOF 3
ENDMDL
MODEL 3
REMARK VINA RESULT:      -7.3      2.026      2.602
REMARK SMILES CC(=O)CCc1ccc2c(c1)OCO2
REMARK SMILES IDX 4 1 2 2 1 3 3 4 5 5 6 6 7 7 11 8 8 9 10 10 9 11 12 12 14 13
REMARK SMILES IDX 13 14
REMARK H PARENT
REMARK Flexibility Score: inf
ROOT
ATOM      1  C   UNL     1       5.373  -0.091   2.019  1.00  0.00     0.080 C 
ENDROOT
BRANCH   1   2
ATOM      2  C   UNL     1       4.542   1.120   1.773  1.00  0.00     0.130 C 
ATOM      3  C   UNL     1       4.895   2.108   0.718  1.00  0.00     0.087 C 
ATOM      4  O   UNL     1       3.541   1.339   2.435  1.00  0.00    -0.300 OA
ENDBRANCH   1   2
BRANCH   1   5
ATOM      5  C   UNL     1       6.820   0.147   1.638  1.00  0.00     0.043 C 
BRANCH   5   6
ATOM      6  C   UNL     1       7.260  -0.764   0.566  1.00  0.00    -0.044 A 
ATOM      7  C   UNL     1       7.146  -0.415  -0.785  1.00  0.00     0.008 A 
ATOM      8  C   UNL     1       7.799  -1.988   0.889  1.00  0.00     0.054 A 
ATOM      9  C   UNL     1       7.576  -1.309  -1.747  1.00  0.00     0.051 A 
ATOM     10  C   UNL     1       8.233  -2.889  -0.088  1.00  0.00     0.166 A 
ATOM     11  C   UNL     1       8.120  -2.547  -1.417  1.00  0.00     0.165 A 
ATOM     12  O   UNL     1       8.794  -4.147  -0.024  1.00  0.00    -0.454 OA
ATOM     13  O   UNL     1       8.621  -3.612  -2.149  1.00  0.00    -0.454 OA
ATOM     14  C   UNL     1       9.142  -4.610  -1.304  1.00  0.00     0.468 C 
ENDBRANCH   5   6
ENDBRANCH   1   5
TORSDOF 3
ENDMDL
MODEL 4
REMARK VINA RESULT:      -7.1      1.241      1.420
REMARK SMILES CC(=O)CCc1ccc2c(c1)OCO2
REMARK SMILES IDX 4 1 2 2 1 3 3 4 5 5 6 6 7 7 11 8 8 9 10 10 9 11 12 12 14 13
REMARK SMILES IDX 13 14
REMARK H PARENT
REMARK Flexibility Score: inf
ROOT
ATOM      1  C   UNL     1       6.349   1.246   0.867  1.00  0.00     0.080 C 
ENDROOT
BRANCH   1   2
ATOM      2  C   UNL     1       5.661   0.434   1.909  1.00  0.00     0.130 C 
ATOM      3  C   UNL     1       6.279  -0.794   2.476  1.00  0.00     0.087 C 
ATOM      4  O   UNL     1       4.562   0.757   2.330  1.00  0.00    -0.300 OA
ENDBRANCH   1   2
BRANCH   1   5
ATOM      5  C   UNL     1       5.836   0.911  -0.520  1.00  0.00     0.043 C 
BRANCH   5   6
ATOM      6  C   UNL     1       6.803   0.097  -1.278  1.00  0.00    -0.044 A 
ATOM      7  C   UNL     1       7.520   0.628  -2.357  1.00  0.00     0.008 A 
ATOM      8  C   UNL     1       7.016  -1.215  -0.924  1.00  0.00     0.054 A 
ATOM      9  C   UNL     1       8.415  -0.183  -3.031  1.00  0.00     0.051 A 
ATOM     10  C   UNL     1       7.923  -2.031  -1.608  1.00  0.00     0.166 A 
ATOM     11  C   UNL     1       8.627  -1.510  -2.671  1.00  0.00     0.165 A 
ATOM     12  O   UNL     1       8.306  -3.346  -1.453  1.00  0.00    -0.454 OA
ATOM     13  O   UNL     1       9.438  -2.527  -3.151  1.00  0.00    -0.454 OA
ATOM     14  C   UNL     1       9.333  -3.681  -2.351  1.00  0.00     0.468 C 
ENDBRANCH   5   6
ENDBRANCH   1   5
TORSDOF 3
ENDMDL
MODEL 5
REMARK VINA RESULT:      -6.8      1.245      1.733
REMARK SMILES CC(=O)CCc1ccc2c(c1)OCO2
REMARK SMILES IDX 4 1 2 2 1 3 3 4 5 5 6 6 7 7 11 8 8 9 10 10 9 11 12 12 14 13
REMARK SMILES IDX 13 14
REMARK H PARENT
REMARK Flexibility Score: inf
ROOT
ATOM      1  C   UNL     1       5.295  -0.083   1.950  1.00  0.00     0.080 C 
ENDROOT
BRANCH   1   2
ATOM      2  C   UNL     1       4.428   1.117   1.782  1.00  0.00     0.130 C 
ATOM      3  C   UNL     1       4.717   2.150   0.751  1.00  0.00     0.087 C 
ATOM      4  O   UNL     1       3.449   1.287   2.490  1.00  0.00    -0.300 OA
ENDBRANCH   1   2
BRANCH   1   5
ATOM      5  C   UNL     1       6.764   0.289   1.904  1.00  0.00     0.043 C 
BRANCH   5   6
ATOM      6  C   UNL     1       7.375  -0.058   0.608  1.00  0.00    -0.044 A 
ATOM      7  C   UNL     1       7.866   0.926  -0.258  1.00  0.00     0.008 A 
ATOM      8  C   UNL     1       7.472  -1.378   0.231  1.00  0.00     0.054 A 
ATOM      9  C   UNL     1       8.429   0.541  -1.461  1.00  0.00     0.051 A 
ATOM     10  C   UNL     1       8.043  -1.762  -0.986  1.00  0.00     0.166 A 
ATOM     11  C   UNL     1       8.525  -0.795  -1.839  1.00  0.00     0.165 A 
ATOM     12  O   UNL     1       8.252  -2.989  -1.580  1.00  0.00    -0.454 OA
ATOM     13  O   UNL     1       9.026  -1.454  -2.950  1.00  0.00    -0.454 OA
ATOM     14  C   UNL     1       8.956  -2.850  -2.788  1.00  0.00     0.468 C 
ENDBRANCH   5   6
ENDBRANCH   1   5
TORSDOF 3
ENDMDL
