MODEL 1
REMARK VINA RESULT:      -7.6      0.000      0.000
REMARK SMILES CC(=O)CCc1ccc2c(c1)OCO2
REMARK SMILES IDX 4 1 2 2 1 3 3 4 5 5 6 6 7 7 11 8 8 9 10 10 9 11 12 12 14 13
REMARK SMILES IDX 13 14
REMARK H PARENT
REMARK Flexibility Score: inf
ROOT
ATOM      1  C   UNL     1       5.505   1.929   1.250  1.00  0.00     0.080 C 
ENDROOT
BRANCH   1   2
ATOM      2  C   UNL     1       5.042   0.723   1.992  1.00  0.00     0.130 C 
ATOM      3  C   UNL     1       5.900  -0.483   2.135  1.00  0.00     0.087 C 
ATOM      4  O   UNL     1       3.936   0.691   2.507  1.00  0.00    -0.300 OA
ENDBRANCH   1   2
BRANCH   1   5
ATOM      5  C   UNL     1       5.385   1.733  -0.248  1.00  0.00     0.043 C 
BRANCH   5   6
ATOM      6  C   UNL     1       6.557   1.032  -0.803  1.00  0.00    -0.044 A 
ATOM      7  C   UNL     1       7.861   1.466  -0.542  1.00  0.00     0.008 A 
ATOM      8  C   UNL     1       6.375  -0.078  -1.596  1.00  0.00     0.054 A 
ATOM      9  C   UNL     1       8.923   0.768  -1.090  1.00  0.00     0.051 A 
ATOM     10  C   UNL     1       7.451  -0.780  -2.147  1.00  0.00     0.166 A 
ATOM     11  C   UNL     1       8.735  -0.354  -1.891  1.00  0.00     0.165 A 
ATOM     12  O   UNL     1       7.531  -1.895  -2.954  1.00  0.00    -0.454 OA
ATOM     13  O   UNL     1       9.586  -1.224  -2.554  1.00  0.00    -0.454 OA
ATOM     14  C   UNL     1       8.868  -2.269  -3.166  1.00  0.00     0.468 C 
ENDBRANCH   5   6
ENDBRANCH   1   5
TORSDOF 3
ENDMDL
MODEL 2
REMARK VINA RESULT:      -7.4      1.917      2.353
REMARK SMILES CC(=O)CCc1ccc2c(c1)OCO2
REMARK SMILES IDX 4 1 2 2 1 3 3 4 5 5 6 6 7 7 11 8 8 9 10 10 9 11 12 12 14 13
REMARK SMILES IDX 13 14
REMARK H PARENT
REMARK Flexibility Score: inf
ROOT
ATOM      1  C   UNL     1       5.716   1.354  -0.231  1.00  0.00     0.080 C 
ENDROOT
BRANCH   1   2
ATOM      2  C   UNL     1       5.087   1.249   1.115  1.00  0.00     0.130 C 
ATOM      3  C   UNL     1       5.394   0.120   2.034  1.00  0.00     0.087 C 
ATOM      4  O   UNL     1       4.296   2.092   1.505  1.00  0.00    -0.300 OA
ENDBRANCH   1   2
BRANCH   1   5
ATOM      5  C   UNL     1       7.211   1.112  -0.161  1.00  0.00     0.043 C 
BRANCH   5   6
ATOM      6  C   UNL     1       7.588  -0.165  -0.793  1.00  0.00    -0.044 A 
ATOM      7  C   UNL     1       7.662  -0.300  -2.184  1.00  0.00     0.008 A 
ATOM      8  C   UNL     1       7.879  -1.255  -0.006  1.00  0.00     0.054 A 
ATOM      9  C   UNL     1       8.022  -1.523  -2.721  1.00  0.00     0.051 A 
ATOM     10  C   UNL     1       8.243  -2.489  -0.553  1.00  0.00     0.166 A 
ATOM     11  C   UNL     1       8.315  -2.624  -1.922  1.00  0.00     0.165 A 
ATOM     12  O   UNL     1       8.574  -3.705   0.007  1.00  0.00    -0.454 OA
ATOM     13  O   UNL     1       8.694  -3.933  -2.176  1.00  0.00    -0.454 OA
ATOM     14  C   UNL     1       8.957  -4.628  -0.980  1.00  0.00     0.468 C 
ENDBRANCH   5   6
ENDBRANCH   1   5
TORSDOF 3
ENDMDL
MODEL 3
REMARK VINA RESULT:      -7.2      2.064      2.617
REMARK SMILES CC(=O)CCc1ccc2c(c1)OCO2
REMARK SMILES IDX 4 1 2 2 1 3 3 4 5 5 6 6 7 7 11 8 8 9 10 10 9 11 12 12 14 13
REMARK SMILES IDX 13 14
REMARK H PARENT
REMARK Flexibility Score: inf
ROOT
ATOM      1  C   UNL     1       5.481  -0.012   2.003  1.00  0.00     0.080 C 
ENDROOT
BRANCH   1   2
ATOM      2  C   UNL     1       4.596   1.161   1.754  1.00  0.00     0.130 C 
ATOM      3  C   UNL     1       4.890   2.145   0.679  1.00  0.00     0.087 C 
ATOM      4  O   UNL     1       3.598   1.348   2.431  1.00  0.00    -0.300 OA
ENDBRANCH   1   2
BRANCH   1   5
ATOM      5  C   UNL     1       6.896   0.256   1.531  1.00  0.00     0.043 C 
BRANCH   5   6
ATOM      6  C   UNL     1       7.311  -0.693   0.482  1.00  0.00    -0.044 A 
ATOM      7  C   UNL     1       7.180  -0.386  -0.877  1.00  0.00     0.008 A 
ATOM      8  C   UNL     1       7.843  -1.912   0.837  1.00  0.00     0.054 A 
ATOM      9  C   UNL     1       7.587  -1.315  -1.817  1.00  0.00     0.051 A 
ATOM     10  C   UNL     1       8.254  -2.847  -0.117  1.00  0.00     0.166 A 
ATOM     11  C   UNL     1       8.125  -2.547  -1.455  1.00  0.00     0.165 A 
ATOM     12  O   UNL     1       8.805  -4.108  -0.021  1.00  0.00    -0.454 OA
ATOM     13  O   UNL     1       8.604  -3.640  -2.160  1.00  0.00    -0.454 OA
ATOM     14  C   UNL     1       9.129  -4.615  -1.290  1.00  0.00     0.468 C 
ENDBRANCH   5   6
ENDBRANCH   1   5
TORSDOF 3
ENDMDL
MODEL 4
REMARK VINA RESULT:      -7.1      1.961      2.525
REMARK SMILES CC(=O)CCc1ccc2c(c1)OCO2
REMARK SMILES IDX 4 1 2 2 1 3 3 4 5 5 6 6 7 7 11 8 8 9 10 10 9 11 12 12 14 13
REMARK SMILES IDX 13 14
REMARK H PARENT
REMARK Flexibility Score: inf
ROOT
ATOM      1  C   UNL     1       6.869   0.867   1.275  1.00  0.00     0.080 C 
ENDROOT
BRANCH   1   2
ATOM      2  C   UNL     1       5.409   1.147   1.377  1.00  0.00     0.130 C 
ATOM      3  C   UNL     1       4.744   2.150   0.503  1.00  0.00     0.087 C 
ATOM      4  O   UNL     1       4.713   0.556   2.186  1.00  0.00    -0.300 OA
ENDBRANCH   1   2
BRANCH   1   5
ATOM      5  C   UNL     1       7.369   1.060  -0.143  1.00  0.00     0.043 C 
BRANCH   5   6
ATOM      6  C   UNL     1       7.701  -0.225  -0.784  1.00  0.00    -0.044 A 
ATOM      7  C   UNL     1       7.732  -0.362  -2.177  1.00  0.00     0.008 A 
ATOM      8  C   UNL     1       7.992  -1.321  -0.005  1.00  0.00     0.054 A 
ATOM      9  C   UNL     1       8.051  -1.592  -2.723  1.00  0.00     0.051 A 
ATOM     10  C   UNL     1       8.315  -2.563  -0.562  1.00  0.00     0.166 A 
ATOM     11  C   UNL     1       8.344  -2.699  -1.932  1.00  0.00     0.165 A 
ATOM     12  O   UNL     1       8.636  -3.785  -0.010  1.00  0.00    -0.454 OA
ATOM     13  O   UNL     1       8.688  -4.016  -2.196  1.00  0.00    -0.454 OA
ATOM     14  C   UNL     1       8.971  -4.715  -1.008  1.00  0.00     0.468 C 
ENDBRANCH   5   6
ENDBRANCH   1   5
TORSDOF 3
ENDMDL
MODEL 5
REMARK VINA RESULT:      -7.1      1.271      1.488
REMARK SMILES CC(=O)CCc1ccc2c(c1)OCO2
REMARK SMILES IDX 4 1 2 2 1 3 3 4 5 5 6 6 7 7 11 8 8 9 10 10 9 11 12 12 14 13
REMARK SMILES IDX 13 14
REMARK H PARENT
REMARK Flexibility Score: inf
ROOT
ATOM      1  C   UNL     1       6.378   1.169   0.960  1.00  0.00     0.080 C 
ENDROOT
BRANCH   1   2
ATOM      2  C   UNL     1       5.639   0.342   1.954  1.00  0.00     0.130 C 
ATOM      3  C   UNL     1       6.237  -0.882   2.550  1.00  0.00     0.087 C 
ATOM      4  O   UNL     1       4.512   0.648   2.310  1.00  0.00    -0.300 OA
ENDBRANCH   1   2
BRANCH   1   5
ATOM      5  C   UNL     1       5.873   0.920  -0.447  1.00  0.00     0.043 C 
BRANCH   5   6
ATOM      6  C   UNL     1       6.813   0.095  -1.227  1.00  0.00    -0.044 A 
ATOM      7  C   UNL     1       7.471   0.600  -2.354  1.00  0.00     0.008 A 
ATOM      8  C   UNL     1       7.058  -1.205  -0.845  1.00  0.00     0.054 A 
ATOM      9  C   UNL     1       8.343  -0.222  -3.046  1.00  0.00     0.051 A 
ATOM     10  C   UNL     1       7.941  -2.031  -1.547  1.00  0.00     0.166 A 
ATOM     11  C   UNL     1       8.588  -1.535  -2.657  1.00  0.00     0.165 A 
ATOM     12  O   UNL     1       8.346  -3.337  -1.372  1.00  0.00    -0.454 OA
ATOM     13  O   UNL     1       9.387  -2.557  -3.145  1.00  0.00    -0.454 OA
ATOM     14  C   UNL     1       9.333  -3.688  -2.308  1.00  0.00     0.468 C 
ENDBRANCH   5   6
ENDBRANCH   1   5
TORSDOF 3
ENDMDL
