@<TRIPOS>MOLECULE
/home/cewinharhar/GITHUB/reincatalyze/data/processed/docking_pred/2023-May-23-1437_sub9_nm5_bs15_s42_ex16_mel10_mts10000_k50_ec02_g099_lra3e-4_lrc1e-3/ff0363d9ee1910d446632d9597fe578fef33cb13_ligand_9.pdbqt
 14 15 0 0 0
SMALL
GASTEIGER

@<TRIPOS>ATOM
      1  C          6.3780    1.1690    0.9600 C.3     1  UNL1        0.0800
      2  C          5.6390    0.3420    1.9540 C.2     1  UNL1        0.1300
      3  C          6.2370   -0.8820    2.5500 C.3     1  UNL1        0.0870
      4  O          4.5120    0.6480    2.3100 O.2     1  UNL1       -0.3000
      5  C          5.8730    0.9200   -0.4470 C.3     1  UNL1        0.0430
      6  C          6.8130    0.0950   -1.2270 C.2     1  UNL1       -0.0440
      7  C          7.4710    0.6000   -2.3540 C.2     1  UNL1        0.0080
      8  C          7.0580   -1.2050   -0.8450 C.2     1  UNL1        0.0540
      9  C          8.3430   -0.2220   -3.0460 C.2     1  UNL1        0.0510
     10  C          7.9410   -2.0310   -1.5470 C.2     1  UNL1        0.1660
     11  C          8.5880   -1.5350   -2.6570 C.2     1  UNL1        0.1650
     12  O          8.3460   -3.3370   -1.3720 O.2     1  UNL1       -0.4540
     13  O          9.3870   -2.5570   -3.1450 O.2     1  UNL1       -0.4540
     14  C          9.3330   -3.6880   -2.3080 C.3     1  UNL1        0.4680
@<TRIPOS>BOND
     1    13    11    1
     2    13    14    1
     3     9    11    2
     4     9     7    1
     5    11    10    1
     6     7     6    2
     7    14    12    1
     8    10    12    1
     9    10     8    2
    10     6     8    1
    11     6     5    1
    12     5     1    1
    13     1     2    1
    14     2     4    2
    15     2     3    1
