@<TRIPOS>MOLECULE
/home/cewinharhar/GITHUB/reincatalyze/data/processed/docking_pred/2023_Apr_20-15:07/00fabcb6e86abbd64330e8a307762c5d347247e8_ligand_2.pdbqt
 12 12 0 0 0
SMALL
GASTEIGER

@<TRIPOS>ATOM
      1  C          8.0040   -2.2010    0.8210 C.3     1  UNL1        0.1270
      2  C          8.7870   -3.3530    0.3160 C.2     1  UNL1        0.3030
      3  O          9.6450   -3.9220    1.0360 O.2     1  UNL1       -0.2520
      4  O          8.5940   -3.8350   -0.9680 O.3     1  UNL1       -0.4810
      5  H          9.0730   -4.6920   -1.2590 H       1  UNL1        0.2960
      6  C          7.4490   -1.4570   -0.3560 C.3     1  UNL1        0.0470
      7  C          6.5980   -0.3240    0.0040 C.2     1  UNL1       -0.0470
      8  C          6.3300    0.6710   -0.9070 C.2     1  UNL1        0.0040
      9  C          6.0630   -0.2620    1.2700 C.2     1  UNL1        0.0040
     10  C          5.5080    1.7230   -0.4940 C.2     1  UNL1        0.0000
     11  C          5.2510    0.7780    1.6760 C.2     1  UNL1        0.0000
     12  C          4.9780    1.7800    0.7700 C.2     1  UNL1        0.0000
@<TRIPOS>BOND
     1     5     4    1
     2     4     2    1
     3     8    10    1
     4     8     7    2
     5    10    12    2
     6     6     7    1
     7     6     1    1
     8     7     9    1
     9     2     1    1
    10     2     3    2
    11    12    11    1
    12     9    11    2
