@<TRIPOS>MOLECULE
/home/cewinharhar/GITHUB/reincatalyze/data/processed/docking_pred/2023_Apr_20-15:07/00fabcb6e86abbd64330e8a307762c5d347247e8_ligand_2.pdbqt
 12 12 0 0 0
SMALL
GASTEIGER

@<TRIPOS>ATOM
      1  C          8.2260    0.3440   -2.0670 C.3     1  UNL1        0.1270
      2  C          9.4150    0.4110   -1.1850 C.2     1  UNL1        0.3030
      3  O          9.5310   -0.3460   -0.1900 O.2     1  UNL1       -0.2520
      4  O         10.4350    1.3150   -1.4350 O.3     1  UNL1       -0.4810
      5  H         10.2020    2.2510   -1.7780 H       1  UNL1        0.2960
      6  C          7.1970   -0.5200   -1.4050 C.3     1  UNL1        0.0470
      7  C          6.3840    0.1790   -0.4110 C.2     1  UNL1       -0.0470
      8  C          5.8220    1.4020   -0.6960 C.2     1  UNL1        0.0040
      9  C          6.1830   -0.4010    0.8200 C.2     1  UNL1        0.0040
     10  C          5.0560    2.0120    0.3000 C.2     1  UNL1        0.0000
     11  C          5.4260    0.2030    1.8040 C.2     1  UNL1        0.0000
     12  C          4.8600    1.4290    1.5270 C.2     1  UNL1        0.0000
@<TRIPOS>BOND
     1     1     6    1
     2     1     2    1
     3     5     4    1
     4     4     2    1
     5     6     7    1
     6     2     3    2
     7     8     7    2
     8     8    10    1
     9     7     9    1
    10    10    12    2
    11     9    11    2
    12    12    11    1
