@<TRIPOS>MOLECULE
/home/cewinharhar/GITHUB/reincatalyze/data/processed/docking_pred/2023_Apr_20-15:07/00fabcb6e86abbd64330e8a307762c5d347247e8_ligand_2.pdbqt
 12 12 0 0 0
SMALL
GASTEIGER

@<TRIPOS>ATOM
      1  C          8.3930   -0.8260   -1.9050 C.3     1  UNL1        0.1270
      2  C          8.4510   -1.9710   -2.8440 C.2     1  UNL1        0.3030
      3  O          9.5410   -2.5300   -3.1220 O.2     1  UNL1       -0.2520
      4  O          7.3000   -2.4570   -3.4420 O.3     1  UNL1       -0.4810
      5  H          6.3870   -2.1460   -3.1000 H       1  UNL1        0.2960
      6  C          7.0250   -0.2180   -1.9880 C.3     1  UNL1        0.0470
      7  C          6.4230    0.0690   -0.6870 C.2     1  UNL1       -0.0470
      8  C          5.7800    1.2630   -0.4580 C.2     1  UNL1        0.0040
      9  C          6.5030   -0.8730    0.3130 C.2     1  UNL1        0.0040
     10  C          5.2270    1.4690    0.8080 C.2     1  UNL1        0.0000
     11  C          5.9560   -0.6670    1.5640 C.2     1  UNL1        0.0000
     12  C          5.3110    0.5270    1.8020 C.2     1  UNL1        0.0000
@<TRIPOS>BOND
     1     4     5    1
     2     4     2    1
     3     3     2    2
     4     2     1    1
     5     6     1    1
     6     6     7    1
     7     7     8    2
     8     7     9    1
     9     8    10    1
    10     9    11    2
    11    10    12    2
    12    11    12    1
