MODEL 1
REMARK VINA RESULT:      -7.3      0.000      0.000
REMARK SMILES O=C(O)CCc1ccccc1
REMARK SMILES IDX 4 1 2 2 1 3 3 4 5 6 6 7 7 8 11 9 8 10 10 11 9 12
REMARK H PARENT 3 5
REMARK Flexibility Score: inf
ROOT
ATOM      1  C   UNL     1       8.393  -0.826  -1.905  1.00  0.00     0.127 C 
ENDROOT
BRANCH   1   2
ATOM      2  C   UNL     1       8.451  -1.971  -2.844  1.00  0.00     0.303 C 
ATOM      3  O   UNL     1       9.541  -2.530  -3.122  1.00  0.00    -0.252 OA
BRANCH   2   4
ATOM      4  O   UNL     1       7.300  -2.457  -3.442  1.00  0.00    -0.481 OA
ATOM      5  H   UNL     1       6.387  -2.146  -3.100  1.00  0.00     0.296 HD
ENDBRANCH   2   4
ENDBRANCH   1   2
BRANCH   1   6
ATOM      6  C   UNL     1       7.025  -0.218  -1.988  1.00  0.00     0.047 C 
BRANCH   6   7
ATOM      7  C   UNL     1       6.423   0.069  -0.687  1.00  0.00    -0.047 A 
ATOM      8  C   UNL     1       5.780   1.263  -0.458  1.00  0.00     0.004 A 
ATOM      9  C   UNL     1       6.503  -0.873   0.313  1.00  0.00     0.004 A 
ATOM     10  C   UNL     1       5.227   1.469   0.808  1.00  0.00     0.000 A 
ATOM     11  C   UNL     1       5.956  -0.667   1.564  1.00  0.00     0.000 A 
ATOM     12  C   UNL     1       5.311   0.527   1.802  1.00  0.00     0.000 A 
ENDBRANCH   6   7
ENDBRANCH   1   6
TORSDOF 4
ENDMDL
MODEL 2
REMARK VINA RESULT:      -7.3      0.189      1.736
REMARK SMILES O=C(O)CCc1ccccc1
REMARK SMILES IDX 4 1 2 2 1 3 3 4 5 6 6 7 7 8 11 9 8 10 10 11 9 12
REMARK H PARENT 3 5
REMARK Flexibility Score: inf
ROOT
ATOM      1  C   UNL     1       8.413  -0.585  -2.171  1.00  0.00     0.127 C 
ENDROOT
BRANCH   1   2
ATOM      2  C   UNL     1       8.380  -1.876  -2.898  1.00  0.00     0.303 C 
ATOM      3  O   UNL     1       7.292  -2.405  -3.234  1.00  0.00    -0.252 OA
BRANCH   2   4
ATOM      4  O   UNL     1       9.553  -2.535  -3.228  1.00  0.00    -0.481 OA
ATOM      5  H   UNL     1       9.844  -3.346  -2.675  1.00  0.00     0.296 HD
ENDBRANCH   2   4
ENDBRANCH   1   2
BRANCH   1   6
ATOM      6  C   UNL     1       7.020  -0.036  -2.121  1.00  0.00     0.047 C 
BRANCH   6   7
ATOM      7  C   UNL     1       6.478   0.090  -0.769  1.00  0.00    -0.047 A 
ATOM      8  C   UNL     1       6.609  -0.935   0.139  1.00  0.00     0.004 A 
ATOM      9  C   UNL     1       5.834   1.251  -0.410  1.00  0.00     0.004 A 
ATOM     10  C   UNL     1       6.068  -0.745   1.413  1.00  0.00     0.000 A 
ATOM     11  C   UNL     1       5.299   1.437   0.850  1.00  0.00     0.000 A 
ATOM     12  C   UNL     1       5.426   0.415   1.766  1.00  0.00     0.000 A 
ENDBRANCH   6   7
ENDBRANCH   1   6
TORSDOF 4
ENDMDL
MODEL 3
REMARK VINA RESULT:      -6.7      3.364      5.081
REMARK SMILES O=C(O)CCc1ccccc1
REMARK SMILES IDX 4 1 2 2 1 3 3 4 5 6 6 7 7 8 11 9 8 10 10 11 9 12
REMARK H PARENT 3 5
REMARK Flexibility Score: inf
ROOT
ATOM      1  C   UNL     1       5.030   1.746   0.718  1.00  0.00     0.127 C 
ENDROOT
BRANCH   1   2
ATOM      2  C   UNL     1       4.583   1.040   1.942  1.00  0.00     0.303 C 
ATOM      3  O   UNL     1       5.311   0.182   2.501  1.00  0.00    -0.252 OA
BRANCH   2   4
ATOM      4  O   UNL     1       3.346   1.309   2.504  1.00  0.00    -0.481 OA
ATOM      5  H   UNL     1       3.129   2.263   2.805  1.00  0.00     0.296 HD
ENDBRANCH   2   4
ENDBRANCH   1   2
BRANCH   1   6
ATOM      6  C   UNL     1       6.528   1.790   0.720  1.00  0.00     0.047 C 
BRANCH   6   7
ATOM      7  C   UNL     1       7.147   1.033  -0.366  1.00  0.00    -0.047 A 
ATOM      8  C   UNL     1       6.406   0.152  -1.120  1.00  0.00     0.004 A 
ATOM      9  C   UNL     1       8.485   1.210  -0.631  1.00  0.00     0.004 A 
ATOM     10  C   UNL     1       7.063  -0.537  -2.143  1.00  0.00     0.000 A 
ATOM     11  C   UNL     1       9.133   0.528  -1.642  1.00  0.00     0.000 A 
ATOM     12  C   UNL     1       8.398  -0.357  -2.402  1.00  0.00     0.000 A 
ENDBRANCH   6   7
ENDBRANCH   1   6
TORSDOF 4
ENDMDL
MODEL 4
REMARK VINA RESULT:      -6.7      1.980      2.261
REMARK SMILES O=C(O)CCc1ccccc1
REMARK SMILES IDX 4 1 2 2 1 3 3 4 5 6 6 7 7 8 11 9 8 10 10 11 9 12
REMARK H PARENT 3 5
REMARK Flexibility Score: inf
ROOT
ATOM      1  C   UNL     1       8.226   0.344  -2.067  1.00  0.00     0.127 C 
ENDROOT
BRANCH   1   2
ATOM      2  C   UNL     1       9.415   0.411  -1.185  1.00  0.00     0.303 C 
ATOM      3  O   UNL     1       9.531  -0.346  -0.190  1.00  0.00    -0.252 OA
BRANCH   2   4
ATOM      4  O   UNL     1      10.435   1.315  -1.435  1.00  0.00    -0.481 OA
ATOM      5  H   UNL     1      10.202   2.251  -1.778  1.00  0.00     0.296 HD
ENDBRANCH   2   4
ENDBRANCH   1   2
BRANCH   1   6
ATOM      6  C   UNL     1       7.197  -0.520  -1.405  1.00  0.00     0.047 C 
BRANCH   6   7
ATOM      7  C   UNL     1       6.384   0.179  -0.411  1.00  0.00    -0.047 A 
ATOM      8  C   UNL     1       5.822   1.402  -0.696  1.00  0.00     0.004 A 
ATOM      9  C   UNL     1       6.183  -0.401   0.820  1.00  0.00     0.004 A 
ATOM     10  C   UNL     1       5.056   2.012   0.300  1.00  0.00     0.000 A 
ATOM     11  C   UNL     1       5.426   0.203   1.804  1.00  0.00     0.000 A 
ATOM     12  C   UNL     1       4.860   1.429   1.527  1.00  0.00     0.000 A 
ENDBRANCH   6   7
ENDBRANCH   1   6
TORSDOF 4
ENDMDL
MODEL 5
REMARK VINA RESULT:      -6.6      2.032      2.430
REMARK SMILES O=C(O)CCc1ccccc1
REMARK SMILES IDX 4 1 2 2 1 3 3 4 5 6 6 7 7 8 11 9 8 10 10 11 9 12
REMARK H PARENT 3 5
REMARK Flexibility Score: inf
ROOT
ATOM      1  C   UNL     1       8.004  -2.201   0.821  1.00  0.00     0.127 C 
ENDROOT
BRANCH   1   2
ATOM      2  C   UNL     1       8.787  -3.353   0.316  1.00  0.00     0.303 C 
ATOM      3  O   UNL     1       9.645  -3.922   1.036  1.00  0.00    -0.252 OA
BRANCH   2   4
ATOM      4  O   UNL     1       8.594  -3.835  -0.968  1.00  0.00    -0.481 OA
ATOM      5  H   UNL     1       9.073  -4.692  -1.259  1.00  0.00     0.296 HD
ENDBRANCH   2   4
ENDBRANCH   1   2
BRANCH   1   6
ATOM      6  C   UNL     1       7.449  -1.457  -0.356  1.00  0.00     0.047 C 
BRANCH   6   7
ATOM      7  C   UNL     1       6.598  -0.324   0.004  1.00  0.00    -0.047 A 
ATOM      8  C   UNL     1       6.330   0.671  -0.907  1.00  0.00     0.004 A 
ATOM      9  C   UNL     1       6.063  -0.262   1.270  1.00  0.00     0.004 A 
ATOM     10  C   UNL     1       5.508   1.723  -0.494  1.00  0.00     0.000 A 
ATOM     11  C   UNL     1       5.251   0.778   1.676  1.00  0.00     0.000 A 
ATOM     12  C   UNL     1       4.978   1.780   0.770  1.00  0.00     0.000 A 
ENDBRANCH   6   7
ENDBRANCH   1   6
TORSDOF 4
ENDMDL
