@<TRIPOS>MOLECULE
/home/cewinharhar/GITHUB/reincatalyze/data/processed/docking_pred/2023_Apr_20-15:07/00fabcb6e86abbd64330e8a307762c5d347247e8_ligand_2.pdbqt
 12 12 0 0 0
SMALL
GASTEIGER

@<TRIPOS>ATOM
      1  C          8.4130   -0.5850   -2.1710 C.3     1  UNL1        0.1270
      2  C          8.3800   -1.8760   -2.8980 C.2     1  UNL1        0.3030
      3  O          7.2920   -2.4050   -3.2340 O.2     1  UNL1       -0.2520
      4  O          9.5530   -2.5350   -3.2280 O.3     1  UNL1       -0.4810
      5  H          9.8440   -3.3460   -2.6750 H       1  UNL1        0.2960
      6  C          7.0200   -0.0360   -2.1210 C.3     1  UNL1        0.0470
      7  C          6.4780    0.0900   -0.7690 C.2     1  UNL1       -0.0470
      8  C          6.6090   -0.9350    0.1390 C.2     1  UNL1        0.0040
      9  C          5.8340    1.2510   -0.4100 C.2     1  UNL1        0.0040
     10  C          6.0680   -0.7450    1.4130 C.2     1  UNL1        0.0000
     11  C          5.2990    1.4370    0.8500 C.2     1  UNL1        0.0000
     12  C          5.4260    0.4150    1.7660 C.2     1  UNL1        0.0000
@<TRIPOS>BOND
     1     3     2    2
     2     4     2    1
     3     4     5    1
     4     2     1    1
     5     1     6    1
     6     6     7    1
     7     7     9    2
     8     7     8    1
     9     9    11    1
    10     8    10    2
    11    11    12    2
    12    10    12    1
