@<TRIPOS>MOLECULE
/home/cewinharhar/GITHUB/reincatalyze/data/processed/docking_pred/2023_Apr_20-15:07/00fabcb6e86abbd64330e8a307762c5d347247e8_ligand_2.pdbqt
 12 12 0 0 0
SMALL
GASTEIGER

@<TRIPOS>ATOM
      1  C          5.0300    1.7460    0.7180 C.3     1  UNL1        0.1270
      2  C          4.5830    1.0400    1.9420 C.2     1  UNL1        0.3030
      3  O          5.3110    0.1820    2.5010 O.2     1  UNL1       -0.2520
      4  O          3.3460    1.3090    2.5040 O.3     1  UNL1       -0.4810
      5  H          3.1290    2.2630    2.8050 H       1  UNL1        0.2960
      6  C          6.5280    1.7900    0.7200 C.3     1  UNL1        0.0470
      7  C          7.1470    1.0330   -0.3660 C.2     1  UNL1       -0.0470
      8  C          6.4060    0.1520   -1.1200 C.2     1  UNL1        0.0040
      9  C          8.4850    1.2100   -0.6310 C.2     1  UNL1        0.0040
     10  C          7.0630   -0.5370   -2.1430 C.2     1  UNL1        0.0000
     11  C          9.1330    0.5280   -1.6420 C.2     1  UNL1        0.0000
     12  C          8.3980   -0.3570   -2.4020 C.2     1  UNL1        0.0000
@<TRIPOS>BOND
     1    12    10    2
     2    12    11    1
     3    10     8    1
     4    11     9    2
     5     8     7    2
     6     9     7    1
     7     7     6    1
     8     1     6    1
     9     1     2    1
    10     2     3    2
    11     2     4    1
    12     4     5    1
