@<TRIPOS>MOLECULE
/home/cewinharhar/GITHUB/reincatalyze/data/processed/docking_pred/2023_Apr_20-15:07/02381cbfeedb5f98de7c9f38a4017f955763d16c_ligand_2.pdbqt
 12 12 0 0 0
SMALL
GASTEIGER

@<TRIPOS>ATOM
      1  C          8.3450   -0.8860   -1.8550 C.3     1  UNL1        0.1270
      2  C          8.3640   -1.9990   -2.8340 C.2     1  UNL1        0.3030
      3  O          7.2990   -2.4610   -3.3150 O.2     1  UNL1       -0.2520
      4  O          9.5600   -2.5640   -3.2450 O.3     1  UNL1       -0.4810
      5  H         10.0780   -3.1660   -2.5990 H       1  UNL1        0.2960
      6  C          7.5580   -1.3250   -0.6580 C.3     1  UNL1        0.0470
      7  C          6.6710   -0.2950   -0.1200 C.2     1  UNL1       -0.0470
      8  C          6.3260    0.8010   -0.8770 C.2     1  UNL1        0.0040
      9  C          6.1790   -0.4320    1.1570 C.2     1  UNL1        0.0040
     10  C          5.4730    1.7450   -0.2990 C.2     1  UNL1        0.0000
     11  C          5.3370    0.5020    1.7260 C.2     1  UNL1        0.0000
     12  C          4.9870    1.6030    0.9760 C.2     1  UNL1        0.0000
@<TRIPOS>BOND
     1     3     2    2
     2     4     2    1
     3     4     5    1
     4     2     1    1
     5     1     6    1
     6     8    10    1
     7     8     7    2
     8     6     7    1
     9    10    12    2
    10     7     9    1
    11    12    11    1
    12     9    11    2
