@<TRIPOS>MOLECULE
/home/cewinharhar/GITHUB/reincatalyze/data/processed/docking_pred/2023_Apr_20-15:07/02381cbfeedb5f98de7c9f38a4017f955763d16c_ligand_2.pdbqt
 12 12 0 0 0
SMALL
GASTEIGER

@<TRIPOS>ATOM
      1  C          8.2220    0.0480   -2.1540 C.3     1  UNL1        0.1270
      2  C          9.3360    0.2870   -1.2060 C.2     1  UNL1        0.3030
      3  O          9.4690   -0.4100   -0.1690 O.2     1  UNL1       -0.2520
      4  O         10.2640    1.2890   -1.4380 O.3     1  UNL1       -0.4810
      5  H         10.4720    1.9610   -0.6940 H       1  UNL1        0.2960
      6  C          7.1330   -0.6800   -1.4270 C.3     1  UNL1        0.0470
      7  C          6.3580    0.1630   -0.5190 C.2     1  UNL1       -0.0470
      8  C          6.1300   -0.2270    0.7810 C.2     1  UNL1        0.0040
      9  C          5.8560    1.3590   -0.9770 C.2     1  UNL1        0.0040
     10  C          5.3820    0.6280    1.5930 C.2     1  UNL1        0.0000
     11  C          5.1160    2.2030   -0.1730 C.2     1  UNL1        0.0000
     12  C          4.8830    1.8200    1.1300 C.2     1  UNL1        0.0000
@<TRIPOS>BOND
     1     1     6    1
     2     1     2    1
     3     4     2    1
     4     4     5    1
     5     6     7    1
     6     2     3    2
     7     9     7    2
     8     9    11    1
     9     7     8    1
    10    11    12    2
    11     8    10    2
    12    12    10    1
