@<TRIPOS>MOLECULE
/home/cewinharhar/GITHUB/reincatalyze/data/processed/docking_pred/2023_Apr_20-15:07/02381cbfeedb5f98de7c9f38a4017f955763d16c_ligand_2.pdbqt
 12 12 0 0 0
SMALL
GASTEIGER

@<TRIPOS>ATOM
      1  C          5.0250    1.7480    0.6590 C.3     1  UNL1        0.1270
      2  C          4.5710    1.0760    1.9000 C.2     1  UNL1        0.3030
      3  O          3.4550    1.3410    2.4120 O.2     1  UNL1       -0.2520
      4  O          5.3680    0.1340    2.5300 O.3     1  UNL1       -0.4810
      5  H          5.7530    0.3420    3.4550 H       1  UNL1        0.2960
      6  C          6.5210    1.8180    0.6830 C.3     1  UNL1        0.0470
      7  C          7.1690    1.0470   -0.3770 C.2     1  UNL1       -0.0470
      8  C          8.5050    1.2190   -0.6560 C.2     1  UNL1        0.0040
      9  C          6.4270    0.1390   -1.0970 C.2     1  UNL1        0.0040
     10  C          9.0580    0.4470   -1.6810 C.2     1  UNL1        0.0000
     11  C          6.9750   -0.6220   -2.1100 C.2     1  UNL1        0.0000
     12  C          8.3120   -0.4550   -2.3960 C.2     1  UNL1        0.0000
@<TRIPOS>BOND
     1    12    11    2
     2    12    10    1
     3    11     9    1
     4    10     8    2
     5     9     7    2
     6     8     7    1
     7     7     6    1
     8     1     6    1
     9     1     2    1
    10     2     3    2
    11     2     4    1
    12     4     5    1
