@<TRIPOS>MOLECULE
/home/cewinharhar/GITHUB/reincatalyze/data/processed/docking_pred/2023_Apr_20-15:07/02381cbfeedb5f98de7c9f38a4017f955763d16c_ligand_2.pdbqt
 12 12 0 0 0
SMALL
GASTEIGER

@<TRIPOS>ATOM
      1  C          8.2850   -0.9500   -1.7830 C.3     1  UNL1        0.1270
      2  C          8.3340   -2.0010   -2.8270 C.2     1  UNL1        0.3030
      3  O          7.2830   -2.4560   -3.3420 O.2     1  UNL1       -0.2520
      4  O          9.5460   -2.5120   -3.2630 O.3     1  UNL1       -0.4810
      5  H         10.3380   -2.5450   -2.6160 H       1  UNL1        0.2960
      6  C          7.3730   -1.4150   -0.6890 C.3     1  UNL1        0.0470
      7  C          6.5560   -0.3530   -0.1050 C.2     1  UNL1       -0.0470
      8  C          6.1050   -0.4450    1.1920 C.2     1  UNL1        0.0040
      9  C          6.2410    0.7480   -0.8670 C.2     1  UNL1        0.0040
     10  C          5.3310    0.6070    1.6850 C.2     1  UNL1        0.0000
     11  C          5.4750    1.7870   -0.3780 C.2     1  UNL1        0.0000
     12  C          5.0190    1.7030    0.9200 C.2     1  UNL1        0.0000
@<TRIPOS>BOND
     1     3     2    2
     2     4     2    1
     3     4     5    1
     4     2     1    1
     5     1     6    1
     6     9    11    1
     7     9     7    2
     8     6     7    1
     9    11    12    2
    10     7     8    1
    11    12    10    1
    12     8    10    2
