MODEL 1
REMARK VINA RESULT:      -7.3      0.000      0.000
REMARK SMILES O=C(O)CCc1ccccc1
REMARK SMILES IDX 4 1 2 2 1 3 3 4 5 6 6 7 7 8 11 9 8 10 10 11 9 12
REMARK H PARENT 3 5
REMARK Flexibility Score: inf
ROOT
ATOM      1  C   UNL     1       8.408  -0.554  -2.211  1.00  0.00     0.127 C 
ENDROOT
BRANCH   1   2
ATOM      2  C   UNL     1       8.461  -1.857  -2.915  1.00  0.00     0.303 C 
ATOM      3  O   UNL     1       9.547  -2.469  -3.073  1.00  0.00    -0.252 OA
BRANCH   2   4
ATOM      4  O   UNL     1       7.309  -2.438  -3.421  1.00  0.00    -0.481 OA
ATOM      5  H   UNL     1       6.401  -2.016  -3.209  1.00  0.00     0.296 HD
ENDBRANCH   2   4
ENDBRANCH   1   2
BRANCH   1   6
ATOM      6  C   UNL     1       6.980  -0.105  -2.158  1.00  0.00     0.047 C 
BRANCH   6   7
ATOM      7  C   UNL     1       6.459   0.062  -0.802  1.00  0.00    -0.047 A 
ATOM      8  C   UNL     1       5.852   1.237  -0.422  1.00  0.00     0.004 A 
ATOM      9  C   UNL     1       6.580  -0.973   0.096  1.00  0.00     0.004 A 
ATOM     10  C   UNL     1       5.377   1.326   0.888  1.00  0.00     0.000 A 
ATOM     11  C   UNL     1       6.110  -0.882   1.391  1.00  0.00     0.000 A 
ATOM     12  C   UNL     1       5.501   0.291   1.780  1.00  0.00     0.000 A 
ENDBRANCH   6   7
ENDBRANCH   1   6
TORSDOF 4
ENDMDL
MODEL 2
REMARK VINA RESULT:      -7.1      0.677      1.897
REMARK SMILES O=C(O)CCc1ccccc1
REMARK SMILES IDX 4 1 2 2 1 3 3 4 5 6 6 7 7 8 11 9 8 10 10 11 9 12
REMARK H PARENT 3 5
REMARK Flexibility Score: inf
ROOT
ATOM      1  C   UNL     1       8.285  -0.950  -1.783  1.00  0.00     0.127 C 
ENDROOT
BRANCH   1   2
ATOM      2  C   UNL     1       8.334  -2.001  -2.827  1.00  0.00     0.303 C 
ATOM      3  O   UNL     1       7.283  -2.456  -3.342  1.00  0.00    -0.252 OA
BRANCH   2   4
ATOM      4  O   UNL     1       9.546  -2.512  -3.263  1.00  0.00    -0.481 OA
ATOM      5  H   UNL     1      10.338  -2.545  -2.616  1.00  0.00     0.296 HD
ENDBRANCH   2   4
ENDBRANCH   1   2
BRANCH   1   6
ATOM      6  C   UNL     1       7.373  -1.415  -0.689  1.00  0.00     0.047 C 
BRANCH   6   7
ATOM      7  C   UNL     1       6.556  -0.353  -0.105  1.00  0.00    -0.047 A 
ATOM      8  C   UNL     1       6.105  -0.445   1.192  1.00  0.00     0.004 A 
ATOM      9  C   UNL     1       6.241   0.748  -0.867  1.00  0.00     0.004 A 
ATOM     10  C   UNL     1       5.331   0.607   1.685  1.00  0.00     0.000 A 
ATOM     11  C   UNL     1       5.475   1.787  -0.378  1.00  0.00     0.000 A 
ATOM     12  C   UNL     1       5.019   1.703   0.920  1.00  0.00     0.000 A 
ENDBRANCH   6   7
ENDBRANCH   1   6
TORSDOF 4
ENDMDL
MODEL 3
REMARK VINA RESULT:      -7.1      0.672      1.485
REMARK SMILES O=C(O)CCc1ccccc1
REMARK SMILES IDX 4 1 2 2 1 3 3 4 5 6 6 7 7 8 11 9 8 10 10 11 9 12
REMARK H PARENT 3 5
REMARK Flexibility Score: inf
ROOT
ATOM      1  C   UNL     1       8.345  -0.886  -1.855  1.00  0.00     0.127 C 
ENDROOT
BRANCH   1   2
ATOM      2  C   UNL     1       8.364  -1.999  -2.834  1.00  0.00     0.303 C 
ATOM      3  O   UNL     1       7.299  -2.461  -3.315  1.00  0.00    -0.252 OA
BRANCH   2   4
ATOM      4  O   UNL     1       9.560  -2.564  -3.245  1.00  0.00    -0.481 OA
ATOM      5  H   UNL     1      10.078  -3.166  -2.599  1.00  0.00     0.296 HD
ENDBRANCH   2   4
ENDBRANCH   1   2
BRANCH   1   6
ATOM      6  C   UNL     1       7.558  -1.325  -0.658  1.00  0.00     0.047 C 
BRANCH   6   7
ATOM      7  C   UNL     1       6.671  -0.295  -0.120  1.00  0.00    -0.047 A 
ATOM      8  C   UNL     1       6.326   0.801  -0.877  1.00  0.00     0.004 A 
ATOM      9  C   UNL     1       6.179  -0.432   1.157  1.00  0.00     0.004 A 
ATOM     10  C   UNL     1       5.473   1.745  -0.299  1.00  0.00     0.000 A 
ATOM     11  C   UNL     1       5.337   0.502   1.726  1.00  0.00     0.000 A 
ATOM     12  C   UNL     1       4.987   1.603   0.976  1.00  0.00     0.000 A 
ENDBRANCH   6   7
ENDBRANCH   1   6
TORSDOF 4
ENDMDL
MODEL 4
REMARK VINA RESULT:      -6.6      1.925      2.642
REMARK SMILES O=C(O)CCc1ccccc1
REMARK SMILES IDX 4 1 2 2 1 3 3 4 5 6 6 7 7 8 11 9 8 10 10 11 9 12
REMARK H PARENT 3 5
REMARK Flexibility Score: inf
ROOT
ATOM      1  C   UNL     1       8.222   0.048  -2.154  1.00  0.00     0.127 C 
ENDROOT
BRANCH   1   2
ATOM      2  C   UNL     1       9.336   0.287  -1.206  1.00  0.00     0.303 C 
ATOM      3  O   UNL     1       9.469  -0.410  -0.169  1.00  0.00    -0.252 OA
BRANCH   2   4
ATOM      4  O   UNL     1      10.264   1.289  -1.438  1.00  0.00    -0.481 OA
ATOM      5  H   UNL     1      10.472   1.961  -0.694  1.00  0.00     0.296 HD
ENDBRANCH   2   4
ENDBRANCH   1   2
BRANCH   1   6
ATOM      6  C   UNL     1       7.133  -0.680  -1.427  1.00  0.00     0.047 C 
BRANCH   6   7
ATOM      7  C   UNL     1       6.358   0.163  -0.519  1.00  0.00    -0.047 A 
ATOM      8  C   UNL     1       6.130  -0.227   0.781  1.00  0.00     0.004 A 
ATOM      9  C   UNL     1       5.856   1.359  -0.977  1.00  0.00     0.004 A 
ATOM     10  C   UNL     1       5.382   0.628   1.593  1.00  0.00     0.000 A 
ATOM     11  C   UNL     1       5.116   2.203  -0.173  1.00  0.00     0.000 A 
ATOM     12  C   UNL     1       4.883   1.820   1.130  1.00  0.00     0.000 A 
ENDBRANCH   6   7
ENDBRANCH   1   6
TORSDOF 4
ENDMDL
MODEL 5
REMARK VINA RESULT:      -6.6      3.326      5.070
REMARK SMILES O=C(O)CCc1ccccc1
REMARK SMILES IDX 4 1 2 2 1 3 3 4 5 6 6 7 7 8 11 9 8 10 10 11 9 12
REMARK H PARENT 3 5
REMARK Flexibility Score: inf
ROOT
ATOM      1  C   UNL     1       5.025   1.748   0.659  1.00  0.00     0.127 C 
ENDROOT
BRANCH   1   2
ATOM      2  C   UNL     1       4.571   1.076   1.900  1.00  0.00     0.303 C 
ATOM      3  O   UNL     1       3.455   1.341   2.412  1.00  0.00    -0.252 OA
BRANCH   2   4
ATOM      4  O   UNL     1       5.368   0.134   2.530  1.00  0.00    -0.481 OA
ATOM      5  H   UNL     1       5.753   0.342   3.455  1.00  0.00     0.296 HD
ENDBRANCH   2   4
ENDBRANCH   1   2
BRANCH   1   6
ATOM      6  C   UNL     1       6.521   1.818   0.683  1.00  0.00     0.047 C 
BRANCH   6   7
ATOM      7  C   UNL     1       7.169   1.047  -0.377  1.00  0.00    -0.047 A 
ATOM      8  C   UNL     1       8.505   1.219  -0.656  1.00  0.00     0.004 A 
ATOM      9  C   UNL     1       6.427   0.139  -1.097  1.00  0.00     0.004 A 
ATOM     10  C   UNL     1       9.058   0.447  -1.681  1.00  0.00     0.000 A 
ATOM     11  C   UNL     1       6.975  -0.622  -2.110  1.00  0.00     0.000 A 
ATOM     12  C   UNL     1       8.312  -0.455  -2.396  1.00  0.00     0.000 A 
ENDBRANCH   6   7
ENDBRANCH   1   6
TORSDOF 4
ENDMDL
