@<TRIPOS>MOLECULE
/home/cewinharhar/GITHUB/reincatalyze/data/processed/docking_pred/2023_Apr_20-15:07/02381cbfeedb5f98de7c9f38a4017f955763d16c_ligand_2.pdbqt
 12 12 0 0 0
SMALL
GASTEIGER

@<TRIPOS>ATOM
      1  C          8.4080   -0.5540   -2.2110 C.3     1  UNL1        0.1270
      2  C          8.4610   -1.8570   -2.9150 C.2     1  UNL1        0.3030
      3  O          9.5470   -2.4690   -3.0730 O.2     1  UNL1       -0.2520
      4  O          7.3090   -2.4380   -3.4210 O.3     1  UNL1       -0.4810
      5  H          6.4010   -2.0160   -3.2090 H       1  UNL1        0.2960
      6  C          6.9800   -0.1050   -2.1580 C.3     1  UNL1        0.0470
      7  C          6.4590    0.0620   -0.8020 C.2     1  UNL1       -0.0470
      8  C          5.8520    1.2370   -0.4220 C.2     1  UNL1        0.0040
      9  C          6.5800   -0.9730    0.0960 C.2     1  UNL1        0.0040
     10  C          5.3770    1.3260    0.8880 C.2     1  UNL1        0.0000
     11  C          6.1100   -0.8820    1.3910 C.2     1  UNL1        0.0000
     12  C          5.5010    0.2910    1.7800 C.2     1  UNL1        0.0000
@<TRIPOS>BOND
     1     4     5    1
     2     4     2    1
     3     3     2    2
     4     2     1    1
     5     1     6    1
     6     6     7    1
     7     7     8    2
     8     7     9    1
     9     8    10    1
    10     9    11    2
    11    10    12    2
    12    11    12    1
