@<TRIPOS>MOLECULE
/home/cewinharhar/GITHUB/reincatalyze/data/processed/docking_pred/2023_Apr_20-15:07/035d1107efb5fe3e99d2a33353f0da4e413613a6_ligand_2.pdbqt
 12 12 0 0 0
SMALL
GASTEIGER

@<TRIPOS>ATOM
      1  C          8.3000   -0.6770   -2.1700 C.3     1  UNL1        0.1270
      2  C          8.4250   -1.9410   -2.9320 C.2     1  UNL1        0.3030
      3  O          9.5410   -2.4910   -3.1030 O.2     1  UNL1       -0.2520
      4  O          7.3090   -2.5540   -3.4790 O.3     1  UNL1       -0.4810
      5  H          6.4000   -2.4380   -3.0230 H       1  UNL1        0.2960
      6  C          6.8690   -0.5140   -1.7590 C.3     1  UNL1        0.0470
      7  C          6.6440   -0.6460   -0.3200 C.2     1  UNL1       -0.0470
      8  C          5.8430    0.2480    0.3520 C.2     1  UNL1        0.0040
      9  C          7.2440   -1.6810    0.3600 C.2     1  UNL1        0.0040
     10  C          5.6730    0.0600    1.7250 C.2     1  UNL1        0.0000
     11  C          7.0740   -1.8650    1.7180 C.2     1  UNL1        0.0000
     12  C          6.2740   -0.9730    2.3990 C.2     1  UNL1        0.0000
@<TRIPOS>BOND
     1     4     5    1
     2     4     2    1
     3     3     2    2
     4     2     1    1
     5     1     6    1
     6     6     7    1
     7     7     8    2
     8     7     9    1
     9     8    10    1
    10     9    11    2
    11    11    12    1
    12    10    12    2
