@<TRIPOS>MOLECULE
/home/cewinharhar/GITHUB/reincatalyze/data/processed/docking_pred/2023_Apr_20-15:07/035d1107efb5fe3e99d2a33353f0da4e413613a6_ligand_2.pdbqt
 12 12 0 0 0
SMALL
GASTEIGER

@<TRIPOS>ATOM
      1  C          8.3110   -0.6840   -2.1510 C.3     1  UNL1        0.1270
      2  C          8.3660   -1.9370   -2.9390 C.2     1  UNL1        0.3030
      3  O          7.3180   -2.5010   -3.3400 O.2     1  UNL1       -0.2520
      4  O          9.5820   -2.5230   -3.2560 O.3     1  UNL1       -0.4810
      5  H          9.8920   -2.5360   -4.2310 H       1  UNL1        0.2960
      6  C          6.8950   -0.4690   -1.7080 C.3     1  UNL1        0.0470
      7  C          6.6850   -0.6620   -0.2750 C.2     1  UNL1       -0.0470
      8  C          7.2980   -1.6960    0.3930 C.2     1  UNL1        0.0040
      9  C          5.8640    0.2070    0.4060 C.2     1  UNL1        0.0040
     10  C          7.0530   -1.8190    1.7630 C.2     1  UNL1        0.0000
     11  C          5.6220    0.0840    1.7600 C.2     1  UNL1        0.0000
     12  C          6.2320   -0.9500    2.4370 C.2     1  UNL1        0.0000
@<TRIPOS>BOND
     1     5     4    1
     2     3     2    2
     3     4     2    1
     4     2     1    1
     5     1     6    1
     6     6     7    1
     7     7     8    2
     8     7     9    1
     9     8    10    1
    10     9    11    2
    11    11    12    1
    12    10    12    2
