@<TRIPOS>MOLECULE
/home/cewinharhar/GITHUB/reincatalyze/data/processed/docking_pred/2023_Apr_20-15:07/035d1107efb5fe3e99d2a33353f0da4e413613a6_ligand_2.pdbqt
 12 12 0 0 0
SMALL
GASTEIGER

@<TRIPOS>ATOM
      1  C          5.2900   -0.2340    1.9740 C.3     1  UNL1        0.1270
      2  C          4.5790    1.0670    1.9770 C.2     1  UNL1        0.3030
      3  O          5.0730    2.0800    1.4260 O.2     1  UNL1       -0.2520
      4  O          3.3440    1.1990    2.5920 O.3     1  UNL1       -0.4810
      5  H          3.3000    1.3020    3.6100 H       1  UNL1        0.2960
      6  C          6.7110    0.0080    1.5630 C.3     1  UNL1        0.0470
      7  C          7.1300   -0.7610    0.3930 C.2     1  UNL1       -0.0470
      8  C          7.9410   -1.8640    0.5300 C.2     1  UNL1        0.0040
      9  C          6.7030   -0.3720   -0.8550 C.2     1  UNL1        0.0040
     10  C          8.3020   -2.5510   -0.6310 C.2     1  UNL1        0.0000
     11  C          7.0600   -1.0530   -2.0020 C.2     1  UNL1        0.0000
     12  C          7.8730   -2.1580   -1.8730 C.2     1  UNL1        0.0000
@<TRIPOS>BOND
     1    11    12    2
     2    11     9    1
     3    12    10    1
     4     9     7    2
     5    10     8    2
     6     7     8    1
     7     7     6    1
     8     3     2    2
     9     6     1    1
    10     1     2    1
    11     2     4    1
    12     4     5    1
