@<TRIPOS>MOLECULE
/home/cewinharhar/GITHUB/reincatalyze/data/processed/docking_pred/2023_Apr_20-15:07/035d1107efb5fe3e99d2a33353f0da4e413613a6_ligand_2.pdbqt
 12 12 0 0 0
SMALL
GASTEIGER

@<TRIPOS>ATOM
      1  C          8.1770   -1.3050   -2.0800 C.3     1  UNL1        0.1270
      2  C          8.8900   -0.0050   -2.0840 C.2     1  UNL1        0.3030
      3  O          8.4420    0.9800   -2.7200 O.2     1  UNL1       -0.2520
      4  O         10.0740    0.1570   -1.3830 O.3     1  UNL1       -0.4810
      5  H         10.5170   -0.6590   -0.9520 H       1  UNL1        0.2960
      6  C          6.7610   -1.0640   -1.6560 C.3     1  UNL1        0.0470
      7  C          6.5860   -0.9400   -0.2100 C.2     1  UNL1       -0.0470
      8  C          7.1440   -1.8600    0.6480 C.2     1  UNL1        0.0040
      9  C          5.8550    0.1130    0.2900 C.2     1  UNL1        0.0040
     10  C          6.9380   -1.6780    2.0170 C.2     1  UNL1        0.0000
     11  C          5.6510    0.2900    1.6440 C.2     1  UNL1        0.0000
     12  C          6.2070   -0.6270    2.5100 C.2     1  UNL1        0.0000
@<TRIPOS>BOND
     1     3     2    2
     2     2     1    1
     3     2     4    1
     4     1     6    1
     5     6     7    1
     6     4     5    1
     7     7     9    2
     8     7     8    1
     9     9    11    1
    10     8    10    2
    11    11    12    2
    12    10    12    1
