MODEL 1
REMARK VINA RESULT:      -6.4      0.000      0.000
REMARK SMILES O=C(O)CCc1ccccc1
REMARK SMILES IDX 4 1 2 2 1 3 3 4 5 6 6 7 7 8 11 9 8 10 10 11 9 12
REMARK H PARENT 3 5
REMARK Flexibility Score: inf
ROOT
ATOM      1  C   UNL     1       8.300  -0.677  -2.170  1.00  0.00     0.127 C 
ENDROOT
BRANCH   1   2
ATOM      2  C   UNL     1       8.425  -1.941  -2.932  1.00  0.00     0.303 C 
ATOM      3  O   UNL     1       9.541  -2.491  -3.103  1.00  0.00    -0.252 OA
BRANCH   2   4
ATOM      4  O   UNL     1       7.309  -2.554  -3.479  1.00  0.00    -0.481 OA
ATOM      5  H   UNL     1       6.400  -2.438  -3.023  1.00  0.00     0.296 HD
ENDBRANCH   2   4
ENDBRANCH   1   2
BRANCH   1   6
ATOM      6  C   UNL     1       6.869  -0.514  -1.759  1.00  0.00     0.047 C 
BRANCH   6   7
ATOM      7  C   UNL     1       6.644  -0.646  -0.320  1.00  0.00    -0.047 A 
ATOM      8  C   UNL     1       5.843   0.248   0.352  1.00  0.00     0.004 A 
ATOM      9  C   UNL     1       7.244  -1.681   0.360  1.00  0.00     0.004 A 
ATOM     10  C   UNL     1       5.673   0.060   1.725  1.00  0.00     0.000 A 
ATOM     11  C   UNL     1       7.074  -1.865   1.718  1.00  0.00     0.000 A 
ATOM     12  C   UNL     1       6.274  -0.973   2.399  1.00  0.00     0.000 A 
ENDBRANCH   6   7
ENDBRANCH   1   6
TORSDOF 4
ENDMDL
MODEL 2
REMARK VINA RESULT:      -6.3      0.087      1.730
REMARK SMILES O=C(O)CCc1ccccc1
REMARK SMILES IDX 4 1 2 2 1 3 3 4 5 6 6 7 7 8 11 9 8 10 10 11 9 12
REMARK H PARENT 3 5
REMARK Flexibility Score: inf
ROOT
ATOM      1  C   UNL     1       8.311  -0.684  -2.151  1.00  0.00     0.127 C 
ENDROOT
BRANCH   1   2
ATOM      2  C   UNL     1       8.366  -1.937  -2.939  1.00  0.00     0.303 C 
ATOM      3  O   UNL     1       7.318  -2.501  -3.340  1.00  0.00    -0.252 OA
BRANCH   2   4
ATOM      4  O   UNL     1       9.582  -2.523  -3.256  1.00  0.00    -0.481 OA
ATOM      5  H   UNL     1       9.892  -2.536  -4.231  1.00  0.00     0.296 HD
ENDBRANCH   2   4
ENDBRANCH   1   2
BRANCH   1   6
ATOM      6  C   UNL     1       6.895  -0.469  -1.708  1.00  0.00     0.047 C 
BRANCH   6   7
ATOM      7  C   UNL     1       6.685  -0.662  -0.275  1.00  0.00    -0.047 A 
ATOM      8  C   UNL     1       7.298  -1.696   0.393  1.00  0.00     0.004 A 
ATOM      9  C   UNL     1       5.864   0.207   0.406  1.00  0.00     0.004 A 
ATOM     10  C   UNL     1       7.053  -1.819   1.763  1.00  0.00     0.000 A 
ATOM     11  C   UNL     1       5.622   0.084   1.760  1.00  0.00     0.000 A 
ATOM     12  C   UNL     1       6.232  -0.950   2.437  1.00  0.00     0.000 A 
ENDBRANCH   6   7
ENDBRANCH   1   6
TORSDOF 4
ENDMDL
MODEL 3
REMARK VINA RESULT:      -6.3      3.202      4.958
REMARK SMILES O=C(O)CCc1ccccc1
REMARK SMILES IDX 4 1 2 2 1 3 3 4 5 6 6 7 7 8 11 9 8 10 10 11 9 12
REMARK H PARENT 3 5
REMARK Flexibility Score: inf
ROOT
ATOM      1  C   UNL     1       5.894  -0.909   1.704  1.00  0.00     0.127 C 
ENDROOT
BRANCH   1   2
ATOM      2  C   UNL     1       5.353   0.429   2.038  1.00  0.00     0.303 C 
ATOM      3  O   UNL     1       4.193   0.566   2.498  1.00  0.00    -0.252 OA
BRANCH   2   4
ATOM      4  O   UNL     1       6.116   1.571   1.850  1.00  0.00    -0.481 OA
ATOM      5  H   UNL     1       7.132   1.484   1.757  1.00  0.00     0.296 HD
ENDBRANCH   2   4
ENDBRANCH   1   2
BRANCH   1   6
ATOM      6  C   UNL     1       7.364  -0.772   1.446  1.00  0.00     0.047 C 
BRANCH   6   7
ATOM      7  C   UNL     1       7.710  -0.662   0.030  1.00  0.00    -0.047 A 
ATOM      8  C   UNL     1       8.856  -0.011  -0.366  1.00  0.00     0.004 A 
ATOM      9  C   UNL     1       6.876  -1.221  -0.911  1.00  0.00     0.004 A 
ATOM     10  C   UNL     1       9.125   0.054  -1.735  1.00  0.00     0.000 A 
ATOM     11  C   UNL     1       7.143  -1.155  -2.264  1.00  0.00     0.000 A 
ATOM     12  C   UNL     1       8.289  -0.504  -2.668  1.00  0.00     0.000 A 
ENDBRANCH   6   7
ENDBRANCH   1   6
TORSDOF 4
ENDMDL
MODEL 4
REMARK VINA RESULT:      -6.1      3.401      5.071
REMARK SMILES O=C(O)CCc1ccccc1
REMARK SMILES IDX 4 1 2 2 1 3 3 4 5 6 6 7 7 8 11 9 8 10 10 11 9 12
REMARK H PARENT 3 5
REMARK Flexibility Score: inf
ROOT
ATOM      1  C   UNL     1       5.290  -0.234   1.974  1.00  0.00     0.127 C 
ENDROOT
BRANCH   1   2
ATOM      2  C   UNL     1       4.579   1.067   1.977  1.00  0.00     0.303 C 
ATOM      3  O   UNL     1       5.073   2.080   1.426  1.00  0.00    -0.252 OA
BRANCH   2   4
ATOM      4  O   UNL     1       3.344   1.199   2.592  1.00  0.00    -0.481 OA
ATOM      5  H   UNL     1       3.300   1.302   3.610  1.00  0.00     0.296 HD
ENDBRANCH   2   4
ENDBRANCH   1   2
BRANCH   1   6
ATOM      6  C   UNL     1       6.711   0.008   1.563  1.00  0.00     0.047 C 
BRANCH   6   7
ATOM      7  C   UNL     1       7.130  -0.761   0.393  1.00  0.00    -0.047 A 
ATOM      8  C   UNL     1       7.941  -1.864   0.530  1.00  0.00     0.004 A 
ATOM      9  C   UNL     1       6.703  -0.372  -0.855  1.00  0.00     0.004 A 
ATOM     10  C   UNL     1       8.302  -2.551  -0.631  1.00  0.00     0.000 A 
ATOM     11  C   UNL     1       7.060  -1.053  -2.002  1.00  0.00     0.000 A 
ATOM     12  C   UNL     1       7.873  -2.158  -1.873  1.00  0.00     0.000 A 
ENDBRANCH   6   7
ENDBRANCH   1   6
TORSDOF 4
ENDMDL
MODEL 5
REMARK VINA RESULT:      -5.9      1.570      2.359
REMARK SMILES O=C(O)CCc1ccccc1
REMARK SMILES IDX 4 1 2 2 1 3 3 4 5 6 6 7 7 8 11 9 8 10 10 11 9 12
REMARK H PARENT 3 5
REMARK Flexibility Score: inf
ROOT
ATOM      1  C   UNL     1       8.177  -1.305  -2.080  1.00  0.00     0.127 C 
ENDROOT
BRANCH   1   2
ATOM      2  C   UNL     1       8.890  -0.005  -2.084  1.00  0.00     0.303 C 
ATOM      3  O   UNL     1       8.442   0.980  -2.720  1.00  0.00    -0.252 OA
BRANCH   2   4
ATOM      4  O   UNL     1      10.074   0.157  -1.383  1.00  0.00    -0.481 OA
ATOM      5  H   UNL     1      10.517  -0.659  -0.952  1.00  0.00     0.296 HD
ENDBRANCH   2   4
ENDBRANCH   1   2
BRANCH   1   6
ATOM      6  C   UNL     1       6.761  -1.064  -1.656  1.00  0.00     0.047 C 
BRANCH   6   7
ATOM      7  C   UNL     1       6.586  -0.940  -0.210  1.00  0.00    -0.047 A 
ATOM      8  C   UNL     1       7.144  -1.860   0.648  1.00  0.00     0.004 A 
ATOM      9  C   UNL     1       5.855   0.113   0.290  1.00  0.00     0.004 A 
ATOM     10  C   UNL     1       6.938  -1.678   2.017  1.00  0.00     0.000 A 
ATOM     11  C   UNL     1       5.651   0.290   1.644  1.00  0.00     0.000 A 
ATOM     12  C   UNL     1       6.207  -0.627   2.510  1.00  0.00     0.000 A 
ENDBRANCH   6   7
ENDBRANCH   1   6
TORSDOF 4
ENDMDL
