@<TRIPOS>MOLECULE
/home/cewinharhar/GITHUB/reincatalyze/data/processed/docking_pred/2023_Apr_20-15:07/035d1107efb5fe3e99d2a33353f0da4e413613a6_ligand_2.pdbqt
 12 12 0 0 0
SMALL
GASTEIGER

@<TRIPOS>ATOM
      1  C          5.8940   -0.9090    1.7040 C.3     1  UNL1        0.1270
      2  C          5.3530    0.4290    2.0380 C.2     1  UNL1        0.3030
      3  O          4.1930    0.5660    2.4980 O.2     1  UNL1       -0.2520
      4  O          6.1160    1.5710    1.8500 O.3     1  UNL1       -0.4810
      5  H          7.1320    1.4840    1.7570 H       1  UNL1        0.2960
      6  C          7.3640   -0.7720    1.4460 C.3     1  UNL1        0.0470
      7  C          7.7100   -0.6620    0.0300 C.2     1  UNL1       -0.0470
      8  C          8.8560   -0.0110   -0.3660 C.2     1  UNL1        0.0040
      9  C          6.8760   -1.2210   -0.9110 C.2     1  UNL1        0.0040
     10  C          9.1250    0.0540   -1.7350 C.2     1  UNL1        0.0000
     11  C          7.1430   -1.1550   -2.2640 C.2     1  UNL1        0.0000
     12  C          8.2890   -0.5040   -2.6680 C.2     1  UNL1        0.0000
@<TRIPOS>BOND
     1    12    11    2
     2    12    10    1
     3    11     9    1
     4    10     8    2
     5     9     7    2
     6     8     7    1
     7     7     6    1
     8     6     1    1
     9     1     2    1
    10     5     4    1
    11     4     2    1
    12     2     3    2
