@<TRIPOS>MOLECULE
/home/cewinharhar/GITHUB/reincatalyze/data/processed/docking_pred/2023_Apr_20-15:07/04093ca98f76925b46d8e425639cb467aa73d951_ligand_2.pdbqt
 12 12 0 0 0
SMALL
GASTEIGER

@<TRIPOS>ATOM
      1  C          7.4140   -2.0280    1.2260 C.3     1  UNL1        0.1270
      2  C          8.2670   -2.8880    0.3720 C.2     1  UNL1        0.3030
      3  O          9.1390   -3.6410    0.8720 O.2     1  UNL1       -0.2520
      4  O          8.1230   -2.8850   -1.0060 O.3     1  UNL1       -0.4810
      5  H          8.8510   -3.3120   -1.5860 H       1  UNL1        0.2960
      6  C          7.9210   -0.6210    1.1320 C.3     1  UNL1        0.0470
      7  C          6.9480    0.3270    0.5910 C.2     1  UNL1       -0.0470
      8  C          6.6550    0.3430   -0.7530 C.2     1  UNL1        0.0040
      9  C          6.3230    1.2070    1.4430 C.2     1  UNL1        0.0040
     10  C          5.7150    1.2740   -1.2000 C.2     1  UNL1        0.0000
     11  C          5.3940    2.1270    0.9990 C.2     1  UNL1        0.0000
     12  C          5.0950    2.1500   -0.3460 C.2     1  UNL1        0.0000
@<TRIPOS>BOND
     1     5     4    1
     2    10     8    1
     3    10    12    2
     4     4     2    1
     5     8     7    2
     6    12    11    1
     7     2     3    2
     8     2     1    1
     9     7     6    1
    10     7     9    1
    11    11     9    2
    12     6     1    1
