@<TRIPOS>MOLECULE
/home/cewinharhar/GITHUB/reincatalyze/data/processed/docking_pred/2023_Apr_20-15:07/04093ca98f76925b46d8e425639cb467aa73d951_ligand_2.pdbqt
 12 12 0 0 0
SMALL
GASTEIGER

@<TRIPOS>ATOM
      1  C          5.4180    2.7670    0.2930 C.3     1  UNL1        0.1270
      2  C          6.2010    3.8310    0.9640 C.2     1  UNL1        0.3030
      3  O          6.2520    3.9100    2.2160 O.2     1  UNL1       -0.2520
      4  O          6.8990    4.7720    0.2240 O.3     1  UNL1       -0.4810
      5  H          7.0040    5.7220    0.5920 H       1  UNL1        0.2960
      6  C          6.0170    1.4420    0.6570 C.3     1  UNL1        0.0470
      7  C          6.8810    0.8760   -0.3780 C.2     1  UNL1       -0.0470
      8  C          8.2030    1.2430   -0.4680 C.2     1  UNL1        0.0040
      9  C          6.3560   -0.0360   -1.2650 C.2     1  UNL1        0.0040
     10  C          8.9700    0.6610   -1.4810 C.2     1  UNL1        0.0000
     11  C          7.1150   -0.6100   -2.2660 C.2     1  UNL1        0.0000
     12  C          8.4410   -0.2470   -2.3640 C.2     1  UNL1        0.0000
@<TRIPOS>BOND
     1    12    11    2
     2    12    10    1
     3    11     9    1
     4    10     8    2
     5     9     7    2
     6     8     7    1
     7     7     6    1
     8     4     5    1
     9     4     2    1
    10     1     6    1
    11     1     2    1
    12     2     3    2
