@<TRIPOS>MOLECULE
/home/cewinharhar/GITHUB/reincatalyze/data/processed/docking_pred/2023_Apr_20-15:07/04093ca98f76925b46d8e425639cb467aa73d951_ligand_2.pdbqt
 12 12 0 0 0
SMALL
GASTEIGER

@<TRIPOS>ATOM
      1  C          8.3430   -0.5440   -2.2880 C.3     1  UNL1        0.1270
      2  C          8.4450   -1.8690   -2.9450 C.2     1  UNL1        0.3030
      3  O          9.5540   -2.4380   -3.0940 O.2     1  UNL1       -0.2520
      4  O          7.3130   -2.5160   -3.4150 O.3     1  UNL1       -0.4810
      5  H          6.4680   -1.9720   -3.6070 H       1  UNL1        0.2960
      6  C          6.8920   -0.2160   -2.1110 C.3     1  UNL1        0.0470
      7  C          6.4890   -0.0340   -0.7170 C.2     1  UNL1       -0.0470
      8  C          5.9390    1.1530   -0.2940 C.2     1  UNL1        0.0040
      9  C          6.6650   -1.0690    0.1730 C.2     1  UNL1        0.0040
     10  C          5.5760    1.2560    1.0510 C.2     1  UNL1        0.0000
     11  C          6.3060   -0.9650    1.5020 C.2     1  UNL1        0.0000
     12  C          5.7540    0.2210    1.9350 C.2     1  UNL1        0.0000
@<TRIPOS>BOND
     1     5     4    1
     2     4     2    1
     3     3     2    2
     4     2     1    1
     5     1     6    1
     6     6     7    1
     7     7     8    2
     8     7     9    1
     9     8    10    1
    10     9    11    2
    11    10    12    2
    12    11    12    1
