@<TRIPOS>MOLECULE
/home/cewinharhar/GITHUB/reincatalyze/data/processed/docking_pred/2023_Apr_20-15:07/04093ca98f76925b46d8e425639cb467aa73d951_ligand_2.pdbqt
 12 12 0 0 0
SMALL
GASTEIGER

@<TRIPOS>ATOM
      1  C          8.3510   -0.5270   -2.3020 C.3     1  UNL1        0.1270
      2  C          8.4330   -1.8660   -2.9320 C.2     1  UNL1        0.3030
      3  O          9.5320   -2.4640   -3.0490 O.2     1  UNL1       -0.2520
      4  O          7.2960   -2.4970   -3.4100 O.3     1  UNL1       -0.4810
      5  H          7.1750   -2.6130   -4.4200 H       1  UNL1        0.2960
      6  C          6.9060   -0.1880   -2.1030 C.3     1  UNL1        0.0470
      7  C          6.5120   -0.0620   -0.7010 C.2     1  UNL1       -0.0470
      8  C          6.7160   -1.0960    0.1830 C.2     1  UNL1        0.0040
      9  C          5.9330    1.1090   -0.2690 C.2     1  UNL1        0.0040
     10  C          6.3170   -0.9050    1.5070 C.2     1  UNL1        0.0000
     11  C          5.5380    1.2960    1.0410 C.2     1  UNL1        0.0000
     12  C          5.7390    0.2640    1.9320 C.2     1  UNL1        0.0000
@<TRIPOS>BOND
     1     5     4    1
     2     4     2    1
     3     3     2    2
     4     2     1    1
     5     1     6    1
     6     6     7    1
     7     7     9    2
     8     7     8    1
     9     9    11    1
    10     8    10    2
    11    11    12    2
    12    10    12    1
