MODEL 1
REMARK VINA RESULT:      -7.2      0.000      0.000
REMARK SMILES O=C(O)CCc1ccccc1
REMARK SMILES IDX 4 1 2 2 1 3 3 4 5 6 6 7 7 8 11 9 8 10 10 11 9 12
REMARK H PARENT 3 5
REMARK Flexibility Score: inf
ROOT
ATOM      1  C   UNL     1       8.343  -0.544  -2.288  1.00  0.00     0.127 C 
ENDROOT
BRANCH   1   2
ATOM      2  C   UNL     1       8.445  -1.869  -2.945  1.00  0.00     0.303 C 
ATOM      3  O   UNL     1       9.554  -2.438  -3.094  1.00  0.00    -0.252 OA
BRANCH   2   4
ATOM      4  O   UNL     1       7.313  -2.516  -3.415  1.00  0.00    -0.481 OA
ATOM      5  H   UNL     1       6.468  -1.972  -3.607  1.00  0.00     0.296 HD
ENDBRANCH   2   4
ENDBRANCH   1   2
BRANCH   1   6
ATOM      6  C   UNL     1       6.892  -0.216  -2.111  1.00  0.00     0.047 C 
BRANCH   6   7
ATOM      7  C   UNL     1       6.489  -0.034  -0.717  1.00  0.00    -0.047 A 
ATOM      8  C   UNL     1       5.939   1.153  -0.294  1.00  0.00     0.004 A 
ATOM      9  C   UNL     1       6.665  -1.069   0.173  1.00  0.00     0.004 A 
ATOM     10  C   UNL     1       5.576   1.256   1.051  1.00  0.00     0.000 A 
ATOM     11  C   UNL     1       6.306  -0.965   1.502  1.00  0.00     0.000 A 
ATOM     12  C   UNL     1       5.754   0.221   1.935  1.00  0.00     0.000 A 
ENDBRANCH   6   7
ENDBRANCH   1   6
TORSDOF 4
ENDMDL
MODEL 2
REMARK VINA RESULT:      -7.2      0.045      1.437
REMARK SMILES O=C(O)CCc1ccccc1
REMARK SMILES IDX 4 1 2 2 1 3 3 4 5 6 6 7 7 8 11 9 8 10 10 11 9 12
REMARK H PARENT 3 5
REMARK Flexibility Score: inf
ROOT
ATOM      1  C   UNL     1       8.351  -0.527  -2.302  1.00  0.00     0.127 C 
ENDROOT
BRANCH   1   2
ATOM      2  C   UNL     1       8.433  -1.866  -2.932  1.00  0.00     0.303 C 
ATOM      3  O   UNL     1       9.532  -2.464  -3.049  1.00  0.00    -0.252 OA
BRANCH   2   4
ATOM      4  O   UNL     1       7.296  -2.497  -3.410  1.00  0.00    -0.481 OA
ATOM      5  H   UNL     1       7.175  -2.613  -4.420  1.00  0.00     0.296 HD
ENDBRANCH   2   4
ENDBRANCH   1   2
BRANCH   1   6
ATOM      6  C   UNL     1       6.906  -0.188  -2.103  1.00  0.00     0.047 C 
BRANCH   6   7
ATOM      7  C   UNL     1       6.512  -0.062  -0.701  1.00  0.00    -0.047 A 
ATOM      8  C   UNL     1       6.716  -1.096   0.183  1.00  0.00     0.004 A 
ATOM      9  C   UNL     1       5.933   1.109  -0.269  1.00  0.00     0.004 A 
ATOM     10  C   UNL     1       6.317  -0.905   1.507  1.00  0.00     0.000 A 
ATOM     11  C   UNL     1       5.538   1.296   1.041  1.00  0.00     0.000 A 
ATOM     12  C   UNL     1       5.739   0.264   1.932  1.00  0.00     0.000 A 
ENDBRANCH   6   7
ENDBRANCH   1   6
TORSDOF 4
ENDMDL
MODEL 3
REMARK VINA RESULT:      -6.5      1.941      2.994
REMARK SMILES O=C(O)CCc1ccccc1
REMARK SMILES IDX 4 1 2 2 1 3 3 4 5 6 6 7 7 8 11 9 8 10 10 11 9 12
REMARK H PARENT 3 5
REMARK Flexibility Score: inf
ROOT
ATOM      1  C   UNL     1       7.414  -2.028   1.226  1.00  0.00     0.127 C 
ENDROOT
BRANCH   1   2
ATOM      2  C   UNL     1       8.267  -2.888   0.372  1.00  0.00     0.303 C 
ATOM      3  O   UNL     1       9.139  -3.641   0.872  1.00  0.00    -0.252 OA
BRANCH   2   4
ATOM      4  O   UNL     1       8.123  -2.885  -1.006  1.00  0.00    -0.481 OA
ATOM      5  H   UNL     1       8.851  -3.312  -1.586  1.00  0.00     0.296 HD
ENDBRANCH   2   4
ENDBRANCH   1   2
BRANCH   1   6
ATOM      6  C   UNL     1       7.921  -0.621   1.132  1.00  0.00     0.047 C 
BRANCH   6   7
ATOM      7  C   UNL     1       6.948   0.327   0.591  1.00  0.00    -0.047 A 
ATOM      8  C   UNL     1       6.655   0.343  -0.753  1.00  0.00     0.004 A 
ATOM      9  C   UNL     1       6.323   1.207   1.443  1.00  0.00     0.004 A 
ATOM     10  C   UNL     1       5.715   1.274  -1.200  1.00  0.00     0.000 A 
ATOM     11  C   UNL     1       5.394   2.127   0.999  1.00  0.00     0.000 A 
ATOM     12  C   UNL     1       5.095   2.150  -0.346  1.00  0.00     0.000 A 
ENDBRANCH   6   7
ENDBRANCH   1   6
TORSDOF 4
ENDMDL
MODEL 4
REMARK VINA RESULT:      -6.5      3.810      5.264
REMARK SMILES O=C(O)CCc1ccccc1
REMARK SMILES IDX 4 1 2 2 1 3 3 4 5 6 6 7 7 8 11 9 8 10 10 11 9 12
REMARK H PARENT 3 5
REMARK Flexibility Score: inf
ROOT
ATOM      1  C   UNL     1       5.418   2.767   0.293  1.00  0.00     0.127 C 
ENDROOT
BRANCH   1   2
ATOM      2  C   UNL     1       6.201   3.831   0.964  1.00  0.00     0.303 C 
ATOM      3  O   UNL     1       6.252   3.910   2.216  1.00  0.00    -0.252 OA
BRANCH   2   4
ATOM      4  O   UNL     1       6.899   4.772   0.224  1.00  0.00    -0.481 OA
ATOM      5  H   UNL     1       7.004   5.722   0.592  1.00  0.00     0.296 HD
ENDBRANCH   2   4
ENDBRANCH   1   2
BRANCH   1   6
ATOM      6  C   UNL     1       6.017   1.442   0.657  1.00  0.00     0.047 C 
BRANCH   6   7
ATOM      7  C   UNL     1       6.881   0.876  -0.378  1.00  0.00    -0.047 A 
ATOM      8  C   UNL     1       8.203   1.243  -0.468  1.00  0.00     0.004 A 
ATOM      9  C   UNL     1       6.356  -0.036  -1.265  1.00  0.00     0.004 A 
ATOM     10  C   UNL     1       8.970   0.661  -1.481  1.00  0.00     0.000 A 
ATOM     11  C   UNL     1       7.115  -0.610  -2.266  1.00  0.00     0.000 A 
ATOM     12  C   UNL     1       8.441  -0.247  -2.364  1.00  0.00     0.000 A 
ENDBRANCH   6   7
ENDBRANCH   1   6
TORSDOF 4
ENDMDL
