@<TRIPOS>MOLECULE
/home/cewinharhar/GITHUB/reincatalyze/data/processed/docking_pred/2023_Apr_20-15:07/04093ca98f76925b46d8e425639cb467aa73d951_ligand_2.pdbqt
 12 12 0 0 0
SMALL
GASTEIGER

@<TRIPOS>ATOM
      1  C          5.3960    2.8340    0.0660 C.3     1  UNL1        0.1270
      2  C          6.1850    3.8130    0.8490 C.2     1  UNL1        0.3030
      3  O          6.1780    3.7990    2.1050 O.2     1  UNL1       -0.2520
      4  O          6.9550    4.7750    0.2150 O.3     1  UNL1       -0.4810
      5  H          7.7140    5.2290    0.7300 H       1  UNL1        0.2960
      6  C          4.9230    1.7580    0.9960 C.3     1  UNL1        0.0470
      7  C          5.7400    0.5460    0.9680 C.2     1  UNL1       -0.0470
      8  C          5.8070   -0.2820    2.0640 C.2     1  UNL1        0.0040
      9  C          6.4440    0.2380   -0.1730 C.2     1  UNL1        0.0040
     10  C          6.6060   -1.4230    1.9650 C.2     1  UNL1        0.0000
     11  C          7.2340   -0.8900   -0.2680 C.2     1  UNL1        0.0000
     12  C          7.3070   -1.7250    0.8250 C.2     1  UNL1        0.0000
@<TRIPOS>BOND
     1    11     9    1
     2    11    12    2
     3     9     7    2
     4     1     2    1
     5     1     6    1
     6     4     5    1
     7     4     2    1
     8    12    10    1
     9     2     3    2
    10     7     6    1
    11     7     8    1
    12    10     8    2
