@<TRIPOS>MOLECULE
/home/cewinharhar/GITHUB/reincatalyze/data/processed/docking_pred/2023_Apr_20-15:07/0493ae4577fb245076a56c9e7bbbfc493763ce5a_ligand_2.pdbqt
 12 12 0 0 0
SMALL
GASTEIGER

@<TRIPOS>ATOM
      1  C          7.2760   -1.3510   -2.3830 C.3     1  UNL1        0.1270
      2  C          8.7410   -1.4150   -2.5970 C.2     1  UNL1        0.3030
      3  O          9.5040   -0.5250   -2.1470 O.2     1  UNL1       -0.2520
      4  O          9.3100   -2.4620   -3.3040 O.3     1  UNL1       -0.4810
      5  H         10.1150   -2.9540   -2.9070 H       1  UNL1        0.2960
      6  C          6.9370    0.0060   -1.8450 C.3     1  UNL1        0.0470
      7  C          6.4270   -0.0080   -0.4750 C.2     1  UNL1       -0.0470
      8  C          5.7440    1.0730    0.0320 C.2     1  UNL1        0.0040
      9  C          6.6350   -1.1190    0.3080 C.2     1  UNL1        0.0040
     10  C          5.2840    0.9900    1.3480 C.2     1  UNL1        0.0000
     11  C          6.1810   -1.2000    1.6090 C.2     1  UNL1        0.0000
     12  C          5.4960   -0.1210    2.1250 C.2     1  UNL1        0.0000
@<TRIPOS>BOND
     1     4     5    1
     2     4     2    1
     3     2     1    1
     4     2     3    2
     5     1     6    1
     6     6     7    1
     7     7     8    2
     8     7     9    1
     9     8    10    1
    10     9    11    2
    11    10    12    2
    12    11    12    1
