@<TRIPOS>MOLECULE
/home/cewinharhar/GITHUB/reincatalyze/data/processed/docking_pred/2023_Apr_20-15:07/0493ae4577fb245076a56c9e7bbbfc493763ce5a_ligand_2.pdbqt
 12 12 0 0 0
SMALL
GASTEIGER

@<TRIPOS>ATOM
      1  C          5.8710   -0.7250    1.6120 C.3     1  UNL1        0.1270
      2  C          5.2460    0.5780    1.9390 C.2     1  UNL1        0.3030
      3  O          4.1170    0.6390    2.4860 O.2     1  UNL1       -0.2520
      4  O          5.8920    1.7690    1.6490 O.3     1  UNL1       -0.4810
      5  H          6.5310    2.1730    2.3390 H       1  UNL1        0.2960
      6  C          7.3270   -0.4930    1.3410 C.3     1  UNL1        0.0470
      7  C          7.6630   -0.4180   -0.0790 C.2     1  UNL1       -0.0470
      8  C          8.5430    0.5320   -0.5450 C.2     1  UNL1        0.0040
      9  C          7.0900   -1.3130   -0.9530 C.2     1  UNL1        0.0040
     10  C          8.8180    0.5440   -1.9140 C.2     1  UNL1        0.0000
     11  C          7.3640   -1.2990   -2.3060 C.2     1  UNL1        0.0000
     12  C          8.2430   -0.3500   -2.7810 C.2     1  UNL1        0.0000
@<TRIPOS>BOND
     1    12    11    2
     2    12    10    1
     3    11     9    1
     4    10     8    2
     5     9     7    2
     6     8     7    1
     7     7     6    1
     8     6     1    1
     9     1     2    1
    10     4     2    1
    11     4     5    1
    12     2     3    2
