@<TRIPOS>MOLECULE
/home/cewinharhar/GITHUB/reincatalyze/data/processed/docking_pred/2023_Apr_20-15:07/0493ae4577fb245076a56c9e7bbbfc493763ce5a_ligand_2.pdbqt
 12 12 0 0 0
SMALL
GASTEIGER

@<TRIPOS>ATOM
      1  C          6.0760    1.4290    1.2290 C.3     1  UNL1        0.1270
      2  C          5.2040    0.5270    2.0180 C.2     1  UNL1        0.3030
      3  O          5.5790   -0.6300    2.3310 O.2     1  UNL1       -0.2520
      4  O          3.9480    0.9380    2.4330 O.3     1  UNL1       -0.4810
      5  H          3.2100    1.0720    1.7360 H       1  UNL1        0.2960
      6  C          5.7900    1.2070   -0.2250 C.3     1  UNL1        0.0470
      7  C          6.8860    0.5740   -0.9570 C.2     1  UNL1       -0.0470
      8  C          8.1710    1.0530   -0.8520 C.2     1  UNL1        0.0040
      9  C          6.6200   -0.5150   -1.7540 C.2     1  UNL1        0.0040
     10  C          9.1680    0.3980   -1.5780 C.2     1  UNL1        0.0000
     11  C          7.6070   -1.1610   -2.4720 C.2     1  UNL1        0.0000
     12  C          8.8970   -0.6870   -2.3730 C.2     1  UNL1        0.0000
@<TRIPOS>BOND
     1    11    12    2
     2    11     9    1
     3    12    10    1
     4     9     7    2
     5    10     8    2
     6     7     8    1
     7     7     6    1
     8     6     1    1
     9     1     2    1
    10     5     4    1
    11     2     3    2
    12     2     4    1
