@<TRIPOS>MOLECULE
/home/cewinharhar/GITHUB/reincatalyze/data/processed/docking_pred/2023_Apr_20-15:07/0493ae4577fb245076a56c9e7bbbfc493763ce5a_ligand_2.pdbqt
 12 12 0 0 0
SMALL
GASTEIGER

@<TRIPOS>ATOM
      1  C          8.5110   -0.6080   -2.1990 C.3     1  UNL1        0.1270
      2  C          8.5210   -1.8950   -2.9340 C.2     1  UNL1        0.3030
      3  O          9.5890   -2.5240   -3.1300 O.2     1  UNL1       -0.2520
      4  O          7.3460   -2.4400   -3.4270 O.3     1  UNL1       -0.4810
      5  H          6.4880   -2.3640   -2.8730 H       1  UNL1        0.2960
      6  C          7.0860   -0.1830   -2.0120 C.3     1  UNL1        0.0470
      7  C          6.6420   -0.1890   -0.6200 C.2     1  UNL1       -0.0470
      8  C          6.9460   -1.2430    0.2110 C.2     1  UNL1        0.0040
      9  C          5.9140    0.8760   -0.1420 C.2     1  UNL1        0.0040
     10  C          6.4900   -1.1820    1.5300 C.2     1  UNL1        0.0000
     11  C          5.4640    0.9350    1.1620 C.2     1  UNL1        0.0000
     12  C          5.7640   -0.1170    2.0000 C.2     1  UNL1        0.0000
@<TRIPOS>BOND
     1     4     2    1
     2     4     5    1
     3     3     2    2
     4     2     1    1
     5     1     6    1
     6     6     7    1
     7     7     9    2
     8     7     8    1
     9     9    11    1
    10     8    10    2
    11    11    12    2
    12    10    12    1
