@<TRIPOS>MOLECULE
/home/cewinharhar/GITHUB/reincatalyze/data/processed/docking_pred/2023_Apr_20-15:07/0493ae4577fb245076a56c9e7bbbfc493763ce5a_ligand_2.pdbqt
 12 12 0 0 0
SMALL
GASTEIGER

@<TRIPOS>ATOM
      1  C          8.3980   -0.5630   -2.2300 C.3     1  UNL1        0.1270
      2  C          8.4600   -1.8670   -2.9310 C.2     1  UNL1        0.3030
      3  O          9.5520   -2.4620   -3.1050 O.2     1  UNL1       -0.2520
      4  O          7.3090   -2.4680   -3.4160 O.3     1  UNL1       -0.4810
      5  H          7.1760   -3.4740   -3.2860 H       1  UNL1        0.2960
      6  C          6.9580   -0.1790   -2.0750 C.3     1  UNL1        0.0470
      7  C          6.5050   -0.1180   -0.6870 C.2     1  UNL1       -0.0470
      8  C          5.8740    1.0040   -0.2020 C.2     1  UNL1        0.0040
      9  C          6.7140   -1.2010    0.1360 C.2     1  UNL1        0.0040
     10  C          5.4670    0.9920    1.1350 C.2     1  UNL1        0.0000
     11  C          6.3110   -1.2100    1.4570 C.2     1  UNL1        0.0000
     12  C          5.6790   -0.0900    1.9510 C.2     1  UNL1        0.0000
@<TRIPOS>BOND
     1     4     5    1
     2     4     2    1
     3     3     2    2
     4     2     1    1
     5     1     6    1
     6     6     7    1
     7     7     8    2
     8     7     9    1
     9     8    10    1
    10     9    11    2
    11    10    12    2
    12    11    12    1
