MODEL 1
REMARK VINA RESULT:      -7.3      0.000      0.000
REMARK SMILES O=C(O)CCc1ccccc1
REMARK SMILES IDX 4 1 2 2 1 3 3 4 5 6 6 7 7 8 11 9 8 10 10 11 9 12
REMARK H PARENT 3 5
REMARK Flexibility Score: inf
ROOT
ATOM      1  C   UNL     1       8.398  -0.563  -2.230  1.00  0.00     0.127 C 
ENDROOT
BRANCH   1   2
ATOM      2  C   UNL     1       8.460  -1.867  -2.931  1.00  0.00     0.303 C 
ATOM      3  O   UNL     1       9.552  -2.462  -3.105  1.00  0.00    -0.252 OA
BRANCH   2   4
ATOM      4  O   UNL     1       7.309  -2.468  -3.416  1.00  0.00    -0.481 OA
ATOM      5  H   UNL     1       7.176  -3.474  -3.286  1.00  0.00     0.296 HD
ENDBRANCH   2   4
ENDBRANCH   1   2
BRANCH   1   6
ATOM      6  C   UNL     1       6.958  -0.179  -2.075  1.00  0.00     0.047 C 
BRANCH   6   7
ATOM      7  C   UNL     1       6.505  -0.118  -0.687  1.00  0.00    -0.047 A 
ATOM      8  C   UNL     1       5.874   1.004  -0.202  1.00  0.00     0.004 A 
ATOM      9  C   UNL     1       6.714  -1.201   0.136  1.00  0.00     0.004 A 
ATOM     10  C   UNL     1       5.467   0.992   1.135  1.00  0.00     0.000 A 
ATOM     11  C   UNL     1       6.311  -1.210   1.457  1.00  0.00     0.000 A 
ATOM     12  C   UNL     1       5.679  -0.090   1.951  1.00  0.00     0.000 A 
ENDBRANCH   6   7
ENDBRANCH   1   6
TORSDOF 4
ENDMDL
MODEL 2
REMARK VINA RESULT:      -7.2      0.139      1.440
REMARK SMILES O=C(O)CCc1ccccc1
REMARK SMILES IDX 4 1 2 2 1 3 3 4 5 6 6 7 7 8 11 9 8 10 10 11 9 12
REMARK H PARENT 3 5
REMARK Flexibility Score: inf
ROOT
ATOM      1  C   UNL     1       8.511  -0.608  -2.199  1.00  0.00     0.127 C 
ENDROOT
BRANCH   1   2
ATOM      2  C   UNL     1       8.521  -1.895  -2.934  1.00  0.00     0.303 C 
ATOM      3  O   UNL     1       9.589  -2.524  -3.130  1.00  0.00    -0.252 OA
BRANCH   2   4
ATOM      4  O   UNL     1       7.346  -2.440  -3.427  1.00  0.00    -0.481 OA
ATOM      5  H   UNL     1       6.488  -2.364  -2.873  1.00  0.00     0.296 HD
ENDBRANCH   2   4
ENDBRANCH   1   2
BRANCH   1   6
ATOM      6  C   UNL     1       7.086  -0.183  -2.012  1.00  0.00     0.047 C 
BRANCH   6   7
ATOM      7  C   UNL     1       6.642  -0.189  -0.620  1.00  0.00    -0.047 A 
ATOM      8  C   UNL     1       6.946  -1.243   0.211  1.00  0.00     0.004 A 
ATOM      9  C   UNL     1       5.914   0.876  -0.142  1.00  0.00     0.004 A 
ATOM     10  C   UNL     1       6.490  -1.182   1.530  1.00  0.00     0.000 A 
ATOM     11  C   UNL     1       5.464   0.935   1.162  1.00  0.00     0.000 A 
ATOM     12  C   UNL     1       5.764  -0.117   2.000  1.00  0.00     0.000 A 
ENDBRANCH   6   7
ENDBRANCH   1   6
TORSDOF 4
ENDMDL
MODEL 3
REMARK VINA RESULT:      -7.0      0.808      1.020
REMARK SMILES O=C(O)CCc1ccccc1
REMARK SMILES IDX 4 1 2 2 1 3 3 4 5 6 6 7 7 8 11 9 8 10 10 11 9 12
REMARK H PARENT 3 5
REMARK Flexibility Score: inf
ROOT
ATOM      1  C   UNL     1       7.276  -1.351  -2.383  1.00  0.00     0.127 C 
ENDROOT
BRANCH   1   2
ATOM      2  C   UNL     1       8.741  -1.415  -2.597  1.00  0.00     0.303 C 
ATOM      3  O   UNL     1       9.504  -0.525  -2.147  1.00  0.00    -0.252 OA
BRANCH   2   4
ATOM      4  O   UNL     1       9.310  -2.462  -3.304  1.00  0.00    -0.481 OA
ATOM      5  H   UNL     1      10.115  -2.954  -2.907  1.00  0.00     0.296 HD
ENDBRANCH   2   4
ENDBRANCH   1   2
BRANCH   1   6
ATOM      6  C   UNL     1       6.937   0.006  -1.845  1.00  0.00     0.047 C 
BRANCH   6   7
ATOM      7  C   UNL     1       6.427  -0.008  -0.475  1.00  0.00    -0.047 A 
ATOM      8  C   UNL     1       5.744   1.073   0.032  1.00  0.00     0.004 A 
ATOM      9  C   UNL     1       6.635  -1.119   0.308  1.00  0.00     0.004 A 
ATOM     10  C   UNL     1       5.284   0.990   1.348  1.00  0.00     0.000 A 
ATOM     11  C   UNL     1       6.181  -1.200   1.609  1.00  0.00     0.000 A 
ATOM     12  C   UNL     1       5.496  -0.121   2.125  1.00  0.00     0.000 A 
ENDBRANCH   6   7
ENDBRANCH   1   6
TORSDOF 4
ENDMDL
MODEL 4
REMARK VINA RESULT:      -6.5      3.211      4.906
REMARK SMILES O=C(O)CCc1ccccc1
REMARK SMILES IDX 4 1 2 2 1 3 3 4 5 6 6 7 7 8 11 9 8 10 10 11 9 12
REMARK H PARENT 3 5
REMARK Flexibility Score: inf
ROOT
ATOM      1  C   UNL     1       5.871  -0.725   1.612  1.00  0.00     0.127 C 
ENDROOT
BRANCH   1   2
ATOM      2  C   UNL     1       5.246   0.578   1.939  1.00  0.00     0.303 C 
ATOM      3  O   UNL     1       4.117   0.639   2.486  1.00  0.00    -0.252 OA
BRANCH   2   4
ATOM      4  O   UNL     1       5.892   1.769   1.649  1.00  0.00    -0.481 OA
ATOM      5  H   UNL     1       6.531   2.173   2.339  1.00  0.00     0.296 HD
ENDBRANCH   2   4
ENDBRANCH   1   2
BRANCH   1   6
ATOM      6  C   UNL     1       7.327  -0.493   1.341  1.00  0.00     0.047 C 
BRANCH   6   7
ATOM      7  C   UNL     1       7.663  -0.418  -0.079  1.00  0.00    -0.047 A 
ATOM      8  C   UNL     1       8.543   0.532  -0.545  1.00  0.00     0.004 A 
ATOM      9  C   UNL     1       7.090  -1.313  -0.953  1.00  0.00     0.004 A 
ATOM     10  C   UNL     1       8.818   0.544  -1.914  1.00  0.00     0.000 A 
ATOM     11  C   UNL     1       7.364  -1.299  -2.306  1.00  0.00     0.000 A 
ATOM     12  C   UNL     1       8.243  -0.350  -2.781  1.00  0.00     0.000 A 
ENDBRANCH   6   7
ENDBRANCH   1   6
TORSDOF 4
ENDMDL
MODEL 5
REMARK VINA RESULT:      -6.5      3.107      4.796
REMARK SMILES O=C(O)CCc1ccccc1
REMARK SMILES IDX 4 1 2 2 1 3 3 4 5 6 6 7 7 8 11 9 8 10 10 11 9 12
REMARK H PARENT 3 5
REMARK Flexibility Score: inf
ROOT
ATOM      1  C   UNL     1       6.076   1.429   1.229  1.00  0.00     0.127 C 
ENDROOT
BRANCH   1   2
ATOM      2  C   UNL     1       5.204   0.527   2.018  1.00  0.00     0.303 C 
ATOM      3  O   UNL     1       5.579  -0.630   2.331  1.00  0.00    -0.252 OA
BRANCH   2   4
ATOM      4  O   UNL     1       3.948   0.938   2.433  1.00  0.00    -0.481 OA
ATOM      5  H   UNL     1       3.210   1.072   1.736  1.00  0.00     0.296 HD
ENDBRANCH   2   4
ENDBRANCH   1   2
BRANCH   1   6
ATOM      6  C   UNL     1       5.790   1.207  -0.225  1.00  0.00     0.047 C 
BRANCH   6   7
ATOM      7  C   UNL     1       6.886   0.574  -0.957  1.00  0.00    -0.047 A 
ATOM      8  C   UNL     1       8.171   1.053  -0.852  1.00  0.00     0.004 A 
ATOM      9  C   UNL     1       6.620  -0.515  -1.754  1.00  0.00     0.004 A 
ATOM     10  C   UNL     1       9.168   0.398  -1.578  1.00  0.00     0.000 A 
ATOM     11  C   UNL     1       7.607  -1.161  -2.472  1.00  0.00     0.000 A 
ATOM     12  C   UNL     1       8.897  -0.687  -2.373  1.00  0.00     0.000 A 
ENDBRANCH   6   7
ENDBRANCH   1   6
TORSDOF 4
ENDMDL
