@<TRIPOS>MOLECULE
/home/cewinharhar/GITHUB/reincatalyze/data/processed/docking_pred/2023_Apr_20-15:07/051d9442833557c4466992e4bdada3c2de553c76_ligand_2.pdbqt
 12 12 0 0 0
SMALL
GASTEIGER

@<TRIPOS>ATOM
      1  C          7.3580   -1.0590   -2.3160 C.3     1  UNL1        0.1270
      2  C          8.7970   -1.3320   -2.5440 C.2     1  UNL1        0.3030
      3  O          9.1750   -2.3600   -3.1590 O.2     1  UNL1       -0.2520
      4  O          9.7680   -0.4580   -2.0820 O.3     1  UNL1       -0.4810
      5  H         10.3530   -0.7330   -1.2890 H       1  UNL1        0.2960
      6  C          7.0540   -1.3130   -0.8710 C.3     1  UNL1        0.0470
      7  C          6.3440   -0.2180   -0.2110 C.2     1  UNL1       -0.0470
      8  C          5.9850   -0.3110    1.1130 C.2     1  UNL1        0.0040
      9  C          6.0400    0.9140   -0.9300 C.2     1  UNL1        0.0040
     10  C          5.3100    0.7740    1.6790 C.2     1  UNL1        0.0000
     11  C          5.3720    1.9850   -0.3700 C.2     1  UNL1        0.0000
     12  C          5.0070    1.9000    0.9560 C.2     1  UNL1        0.0000
@<TRIPOS>BOND
     1     3     2    2
     2     2     1    1
     3     2     4    1
     4     1     6    1
     5     4     5    1
     6     9    11    1
     7     9     7    2
     8     6     7    1
     9    11    12    2
    10     7     8    1
    11    12    10    1
    12     8    10    2
