@<TRIPOS>MOLECULE
/home/cewinharhar/GITHUB/reincatalyze/data/processed/docking_pred/2023_Apr_20-15:07/051d9442833557c4466992e4bdada3c2de553c76_ligand_2.pdbqt
 12 12 0 0 0
SMALL
GASTEIGER

@<TRIPOS>ATOM
      1  C          8.4610   -0.5650   -2.1930 C.3     1  UNL1        0.1270
      2  C          8.5070   -1.8630   -2.9070 C.2     1  UNL1        0.3030
      3  O          9.5950   -2.4600   -3.1010 O.2     1  UNL1       -0.2520
      4  O          7.3470   -2.4550   -3.3800 O.3     1  UNL1       -0.4810
      5  H          6.7040   -1.9060   -3.9560 H       1  UNL1        0.2960
      6  C          7.0370   -0.0990   -2.1560 C.3     1  UNL1        0.0470
      7  C          6.4950    0.0480   -0.8060 C.2     1  UNL1       -0.0470
      8  C          6.6020   -0.9720    0.1100 C.2     1  UNL1        0.0040
      9  C          5.8750    1.2250   -0.4570 C.2     1  UNL1        0.0040
     10  C          6.0620   -0.7620    1.3810 C.2     1  UNL1        0.0000
     11  C          5.3410    1.4320    0.8000 C.2     1  UNL1        0.0000
     12  C          5.4440    0.4140    1.7240 C.2     1  UNL1        0.0000
@<TRIPOS>BOND
     1     5     4    1
     2     4     2    1
     3     3     2    2
     4     2     1    1
     5     1     6    1
     6     6     7    1
     7     7     9    2
     8     7     8    1
     9     9    11    1
    10     8    10    2
    11    11    12    2
    12    10    12    1
