@<TRIPOS>MOLECULE
/home/cewinharhar/GITHUB/reincatalyze/data/processed/docking_pred/2023_Apr_20-15:07/051d9442833557c4466992e4bdada3c2de553c76_ligand_2.pdbqt
 12 12 0 0 0
SMALL
GASTEIGER

@<TRIPOS>ATOM
      1  C          8.4720   -0.6390   -2.1120 C.3     1  UNL1        0.1270
      2  C          8.4980   -1.8950   -2.8980 C.2     1  UNL1        0.3030
      3  O          9.5760   -2.4980   -3.1250 O.2     1  UNL1       -0.2520
      4  O          7.3300   -2.4390   -3.4060 O.3     1  UNL1       -0.4810
      5  H          6.4610   -2.3450   -2.8730 H       1  UNL1        0.2960
      6  C          7.0740   -0.1010   -2.1300 C.3     1  UNL1        0.0470
      7  C          6.4960    0.0970   -0.8020 C.2     1  UNL1       -0.0470
      8  C          5.8170    1.2540   -0.4950 C.2     1  UNL1        0.0040
      9  C          6.6350   -0.8910    0.1450 C.2     1  UNL1        0.0040
     10  C          5.2900    1.3750    0.7920 C.2     1  UNL1        0.0000
     11  C          6.1140   -0.7700    1.4180 C.2     1  UNL1        0.0000
     12  C          5.4330    0.3860    1.7330 C.2     1  UNL1        0.0000
@<TRIPOS>BOND
     1     4     2    1
     2     4     5    1
     3     3     2    2
     4     2     1    1
     5     6     1    1
     6     6     7    1
     7     7     8    2
     8     7     9    1
     9     8    10    1
    10     9    11    2
    11    10    12    2
    12    11    12    1
