@<TRIPOS>MOLECULE
/home/cewinharhar/GITHUB/reincatalyze/data/processed/docking_pred/2023_Apr_20-15:07/051d9442833557c4466992e4bdada3c2de553c76_ligand_2.pdbqt
 12 12 0 0 0
SMALL
GASTEIGER

@<TRIPOS>ATOM
      1  C          7.3310   -1.4450   -2.1970 C.3     1  UNL1        0.1270
      2  C          8.7750   -1.4190   -2.5310 C.2     1  UNL1        0.3030
      3  O          9.5170   -0.4860   -2.1380 O.2     1  UNL1       -0.2520
      4  O          9.3460   -2.4280   -3.2900 O.3     1  UNL1       -0.4810
      5  H          9.3520   -2.3460   -4.3100 H       1  UNL1        0.2960
      6  C          7.1930   -1.4650   -0.7050 C.3     1  UNL1        0.0470
      7  C          6.4500   -0.3300   -0.1610 C.2     1  UNL1       -0.0470
      8  C          6.1870    0.7750   -0.9370 C.2     1  UNL1        0.0040
      9  C          6.0120   -0.3770    1.1420 C.2     1  UNL1        0.0040
     10  C          5.4710    1.8220   -0.3520 C.2     1  UNL1        0.0000
     11  C          5.3050    0.6590    1.7190 C.2     1  UNL1        0.0000
     12  C          5.0370    1.7700    0.9480 C.2     1  UNL1        0.0000
@<TRIPOS>BOND
     1     5     4    1
     2     4     2    1
     3     2     1    1
     4     2     3    2
     5     1     6    1
     6     8    10    1
     7     8     7    2
     8     6     7    1
     9    10    12    2
    10     7     9    1
    11    12    11    1
    12     9    11    2
