@<TRIPOS>MOLECULE
/home/cewinharhar/GITHUB/reincatalyze/data/processed/docking_pred/2023_Apr_20-15:07/051d9442833557c4466992e4bdada3c2de553c76_ligand_2.pdbqt
 12 12 0 0 0
SMALL
GASTEIGER

@<TRIPOS>ATOM
      1  C          5.0840    1.7430    0.7050 C.3     1  UNL1        0.1270
      2  C          4.5930    1.0520    1.9210 C.2     1  UNL1        0.3030
      3  O          5.2850    0.1730    2.4930 O.2     1  UNL1       -0.2520
      4  O          3.3540    1.3570    2.4600 O.3     1  UNL1       -0.4810
      5  H          2.8030    2.1170    2.0510 H       1  UNL1        0.2960
      6  C          6.5820    1.7410    0.7340 C.3     1  UNL1        0.0470
      7  C          7.1960    0.9890   -0.3590 C.2     1  UNL1       -0.0470
      8  C          8.5080    1.2060   -0.7110 C.2     1  UNL1        0.0040
      9  C          6.4470    0.0550   -1.0350 C.2     1  UNL1        0.0040
     10  C          9.0300    0.4510   -1.7640 C.2     1  UNL1        0.0000
     11  C          6.9640   -0.6910   -2.0760 C.2     1  UNL1        0.0000
     12  C          8.2770   -0.4790   -2.4360 C.2     1  UNL1        0.0000
@<TRIPOS>BOND
     1    12    11    2
     2    12    10    1
     3    11     9    1
     4    10     8    2
     5     9     7    2
     6     8     7    1
     7     7     6    1
     8     1     6    1
     9     1     2    1
    10     2     4    1
    11     2     3    2
    12     5     4    1
