@<TRIPOS>MOLECULE
/home/cewinharhar/GITHUB/reincatalyze/data/processed/docking_pred/2023_Apr_20-15:07/05fc2472135fbee8f2c0d268145bdd055e68f396_ligand_2.pdbqt
 12 12 0 0 0
SMALL
GASTEIGER

@<TRIPOS>ATOM
      1  C          7.9650   -2.3160    0.7870 C.3     1  UNL1        0.1270
      2  C          8.8190   -3.4010    0.2490 C.2     1  UNL1        0.3030
      3  O          8.7030   -3.7910   -0.9390 O.2     1  UNL1       -0.2520
      4  O          9.7710   -4.0170    1.0450 O.3     1  UNL1       -0.4810
      5  H         10.7630   -3.8870    0.8310 H       1  UNL1        0.2960
      6  C          7.4600   -1.5000   -0.3630 C.3     1  UNL1        0.0470
      7  C          6.6090   -0.3780    0.0320 C.2     1  UNL1       -0.0470
      8  C          6.3470    0.6490   -0.8450 C.2     1  UNL1        0.0040
      9  C          6.0670   -0.3600    1.2960 C.2     1  UNL1        0.0040
     10  C          5.5250    1.6870   -0.4000 C.2     1  UNL1        0.0000
     11  C          5.2550    0.6670    1.7340 C.2     1  UNL1        0.0000
     12  C          4.9880    1.7000    0.8620 C.2     1  UNL1        0.0000
@<TRIPOS>BOND
     1     3     2    2
     2     8    10    1
     3     8     7    2
     4    10    12    2
     5     6     7    1
     6     6     1    1
     7     7     9    1
     8     2     1    1
     9     2     4    1
    10     5     4    1
    11    12    11    1
    12     9    11    2
