@<TRIPOS>MOLECULE
/home/cewinharhar/GITHUB/reincatalyze/data/processed/docking_pred/2023_Apr_20-15:07/05fc2472135fbee8f2c0d268145bdd055e68f396_ligand_2.pdbqt
 12 12 0 0 0
SMALL
GASTEIGER

@<TRIPOS>ATOM
      1  C          5.0050    1.7930    0.7120 C.3     1  UNL1        0.1270
      2  C          4.4850    1.1110    1.9210 C.2     1  UNL1        0.3030
      3  O          5.1410    0.2040    2.4900 O.2     1  UNL1       -0.2520
      4  O          3.2550    1.4560    2.4570 O.3     1  UNL1       -0.4810
      5  H          2.9870    2.4440    2.5010 H       1  UNL1        0.2960
      6  C          6.5020    1.7620    0.7620 C.3     1  UNL1        0.0470
      7  C          7.1180    1.0140   -0.3320 C.2     1  UNL1       -0.0470
      8  C          6.3900    0.0990   -1.0560 C.2     1  UNL1        0.0040
      9  C          8.4420    1.2360   -0.6360 C.2     1  UNL1        0.0040
     10  C          7.0430   -0.5790   -2.0890 C.2     1  UNL1        0.0000
     11  C          9.0860    0.5650   -1.6570 C.2     1  UNL1        0.0000
     12  C          8.3630   -0.3540   -2.3860 C.2     1  UNL1        0.0000
@<TRIPOS>BOND
     1    12    10    2
     2    12    11    1
     3    10     8    1
     4    11     9    2
     5     8     7    2
     6     9     7    1
     7     7     6    1
     8     1     6    1
     9     1     2    1
    10     2     4    1
    11     2     3    2
    12     4     5    1
