@<TRIPOS>MOLECULE
/home/cewinharhar/GITHUB/reincatalyze/data/processed/docking_pred/2023_Apr_20-15:07/05fc2472135fbee8f2c0d268145bdd055e68f396_ligand_2.pdbqt
 12 12 0 0 0
SMALL
GASTEIGER

@<TRIPOS>ATOM
      1  C          8.4750   -0.6540   -2.0680 C.3     1  UNL1        0.1270
      2  C          8.4070   -1.9000   -2.8670 C.2     1  UNL1        0.3030
      3  O          7.3040   -2.4030   -3.1970 O.2     1  UNL1       -0.2520
      4  O          9.5630   -2.5470   -3.2730 O.3     1  UNL1       -0.4810
      5  H          9.5470   -3.1140   -4.1250 H       1  UNL1        0.2960
      6  C          7.1180   -0.0170   -2.0730 C.3     1  UNL1        0.0470
      7  C          6.5180    0.1150   -0.7470 C.2     1  UNL1       -0.0470
      8  C          6.6520   -0.8850    0.1880 C.2     1  UNL1        0.0040
      9  C          5.8140    1.2560   -0.4390 C.2     1  UNL1        0.0040
     10  C          6.0530   -0.6920    1.4350 C.2     1  UNL1        0.0000
     11  C          5.2220    1.4460    0.7940 C.2     1  UNL1        0.0000
     12  C          5.3510    0.4480    1.7360 C.2     1  UNL1        0.0000
@<TRIPOS>BOND
     1     5     4    1
     2     4     2    1
     3     3     2    2
     4     2     1    1
     5     6     1    1
     6     6     7    1
     7     7     9    2
     8     7     8    1
     9     9    11    1
    10     8    10    2
    11    11    12    2
    12    10    12    1
