@<TRIPOS>MOLECULE
/home/cewinharhar/GITHUB/reincatalyze/data/processed/docking_pred/2023_Apr_20-15:07/05fc2472135fbee8f2c0d268145bdd055e68f396_ligand_2.pdbqt
 12 12 0 0 0
SMALL
GASTEIGER

@<TRIPOS>ATOM
      1  C          8.2560    0.1390   -2.1330 C.3     1  UNL1        0.1270
      2  C          9.3970    0.3290   -1.2070 C.2     1  UNL1        0.3030
      3  O          9.5070   -0.3570   -0.1610 O.2     1  UNL1       -0.2520
      4  O         10.3760    1.2730   -1.4710 O.3     1  UNL1       -0.4810
      5  H         10.4260    2.1180   -0.8950 H       1  UNL1        0.2960
      6  C          7.1890   -0.6300   -1.4150 C.3     1  UNL1        0.0470
      7  C          6.3850    0.1790   -0.5010 C.2     1  UNL1       -0.0470
      8  C          6.1420   -0.2430    0.7850 C.2     1  UNL1        0.0040
      9  C          5.8710    1.3770   -0.9410 C.2     1  UNL1        0.0040
     10  C          5.3660    0.5810    1.6030 C.2     1  UNL1        0.0000
     11  C          5.1040    2.1910   -0.1320 C.2     1  UNL1        0.0000
     12  C          4.8550    1.7750    1.1580 C.2     1  UNL1        0.0000
@<TRIPOS>BOND
     1     1     6    1
     2     1     2    1
     3     4     2    1
     4     4     5    1
     5     6     7    1
     6     2     3    2
     7     9     7    2
     8     9    11    1
     9     7     8    1
    10    11    12    2
    11     8    10    2
    12    12    10    1
