@<TRIPOS>MOLECULE
/home/cewinharhar/GITHUB/reincatalyze/data/processed/docking_pred/2023_Apr_20-15:07/05fc2472135fbee8f2c0d268145bdd055e68f396_ligand_2.pdbqt
 12 12 0 0 0
SMALL
GASTEIGER

@<TRIPOS>ATOM
      1  C          8.4790   -0.6800   -2.0710 C.3     1  UNL1        0.1270
      2  C          8.4890   -1.9160   -2.8880 C.2     1  UNL1        0.3030
      3  O          9.5560   -2.5410   -3.1100 O.2     1  UNL1       -0.2520
      4  O          7.3180   -2.4180   -3.4310 O.3     1  UNL1       -0.4810
      5  H          6.5030   -1.8040   -3.5180 H       1  UNL1        0.2960
      6  C          7.0860   -0.1280   -2.0690 C.3     1  UNL1        0.0470
      7  C          6.5150    0.0390   -0.7340 C.2     1  UNL1       -0.0470
      8  C          5.8120    1.1760   -0.4070 C.2     1  UNL1        0.0040
      9  C          6.6840   -0.9580    0.1990 C.2     1  UNL1        0.0040
     10  C          5.2930    1.2680    0.8860 C.2     1  UNL1        0.0000
     11  C          6.1710   -0.8650    1.4770 C.2     1  UNL1        0.0000
     12  C          5.4670    0.2710    1.8130 C.2     1  UNL1        0.0000
@<TRIPOS>BOND
     1     5     4    1
     2     4     2    1
     3     3     2    2
     4     2     1    1
     5     1     6    1
     6     6     7    1
     7     7     8    2
     8     7     9    1
     9     8    10    1
    10     9    11    2
    11    10    12    2
    12    11    12    1
