MODEL 1
REMARK VINA RESULT:      -7.3      0.000      0.000
REMARK SMILES O=C(O)CCc1ccccc1
REMARK SMILES IDX 4 1 2 2 1 3 3 4 5 6 6 7 7 8 11 9 8 10 10 11 9 12
REMARK H PARENT 3 5
REMARK Flexibility Score: inf
ROOT
ATOM      1  C   UNL     1       8.479  -0.680  -2.071  1.00  0.00     0.127 C 
ENDROOT
BRANCH   1   2
ATOM      2  C   UNL     1       8.489  -1.916  -2.888  1.00  0.00     0.303 C 
ATOM      3  O   UNL     1       9.556  -2.541  -3.110  1.00  0.00    -0.252 OA
BRANCH   2   4
ATOM      4  O   UNL     1       7.318  -2.418  -3.431  1.00  0.00    -0.481 OA
ATOM      5  H   UNL     1       6.503  -1.804  -3.518  1.00  0.00     0.296 HD
ENDBRANCH   2   4
ENDBRANCH   1   2
BRANCH   1   6
ATOM      6  C   UNL     1       7.086  -0.128  -2.069  1.00  0.00     0.047 C 
BRANCH   6   7
ATOM      7  C   UNL     1       6.515   0.039  -0.734  1.00  0.00    -0.047 A 
ATOM      8  C   UNL     1       5.812   1.176  -0.407  1.00  0.00     0.004 A 
ATOM      9  C   UNL     1       6.684  -0.958   0.199  1.00  0.00     0.004 A 
ATOM     10  C   UNL     1       5.293   1.268   0.886  1.00  0.00     0.000 A 
ATOM     11  C   UNL     1       6.171  -0.865   1.477  1.00  0.00     0.000 A 
ATOM     12  C   UNL     1       5.467   0.271   1.813  1.00  0.00     0.000 A 
ENDBRANCH   6   7
ENDBRANCH   1   6
TORSDOF 4
ENDMDL
MODEL 2
REMARK VINA RESULT:      -7.3      0.155      1.733
REMARK SMILES O=C(O)CCc1ccccc1
REMARK SMILES IDX 4 1 2 2 1 3 3 4 5 6 6 7 7 8 11 9 8 10 10 11 9 12
REMARK H PARENT 3 5
REMARK Flexibility Score: inf
ROOT
ATOM      1  C   UNL     1       8.475  -0.654  -2.068  1.00  0.00     0.127 C 
ENDROOT
BRANCH   1   2
ATOM      2  C   UNL     1       8.407  -1.900  -2.867  1.00  0.00     0.303 C 
ATOM      3  O   UNL     1       7.304  -2.403  -3.197  1.00  0.00    -0.252 OA
BRANCH   2   4
ATOM      4  O   UNL     1       9.563  -2.547  -3.273  1.00  0.00    -0.481 OA
ATOM      5  H   UNL     1       9.547  -3.114  -4.125  1.00  0.00     0.296 HD
ENDBRANCH   2   4
ENDBRANCH   1   2
BRANCH   1   6
ATOM      6  C   UNL     1       7.118  -0.017  -2.073  1.00  0.00     0.047 C 
BRANCH   6   7
ATOM      7  C   UNL     1       6.518   0.115  -0.747  1.00  0.00    -0.047 A 
ATOM      8  C   UNL     1       6.652  -0.885   0.188  1.00  0.00     0.004 A 
ATOM      9  C   UNL     1       5.814   1.256  -0.439  1.00  0.00     0.004 A 
ATOM     10  C   UNL     1       6.053  -0.692   1.435  1.00  0.00     0.000 A 
ATOM     11  C   UNL     1       5.222   1.446   0.794  1.00  0.00     0.000 A 
ATOM     12  C   UNL     1       5.351   0.448   1.736  1.00  0.00     0.000 A 
ENDBRANCH   6   7
ENDBRANCH   1   6
TORSDOF 4
ENDMDL
MODEL 3
REMARK VINA RESULT:      -6.8      3.383      5.089
REMARK SMILES O=C(O)CCc1ccccc1
REMARK SMILES IDX 4 1 2 2 1 3 3 4 5 6 6 7 7 8 11 9 8 10 10 11 9 12
REMARK H PARENT 3 5
REMARK Flexibility Score: inf
ROOT
ATOM      1  C   UNL     1       5.005   1.793   0.712  1.00  0.00     0.127 C 
ENDROOT
BRANCH   1   2
ATOM      2  C   UNL     1       4.485   1.111   1.921  1.00  0.00     0.303 C 
ATOM      3  O   UNL     1       5.141   0.204   2.490  1.00  0.00    -0.252 OA
BRANCH   2   4
ATOM      4  O   UNL     1       3.255   1.456   2.457  1.00  0.00    -0.481 OA
ATOM      5  H   UNL     1       2.987   2.444   2.501  1.00  0.00     0.296 HD
ENDBRANCH   2   4
ENDBRANCH   1   2
BRANCH   1   6
ATOM      6  C   UNL     1       6.502   1.762   0.762  1.00  0.00     0.047 C 
BRANCH   6   7
ATOM      7  C   UNL     1       7.118   1.014  -0.332  1.00  0.00    -0.047 A 
ATOM      8  C   UNL     1       6.390   0.099  -1.056  1.00  0.00     0.004 A 
ATOM      9  C   UNL     1       8.442   1.236  -0.636  1.00  0.00     0.004 A 
ATOM     10  C   UNL     1       7.043  -0.579  -2.089  1.00  0.00     0.000 A 
ATOM     11  C   UNL     1       9.086   0.565  -1.657  1.00  0.00     0.000 A 
ATOM     12  C   UNL     1       8.363  -0.354  -2.386  1.00  0.00     0.000 A 
ENDBRANCH   6   7
ENDBRANCH   1   6
TORSDOF 4
ENDMDL
MODEL 4
REMARK VINA RESULT:      -6.6      1.967      2.673
REMARK SMILES O=C(O)CCc1ccccc1
REMARK SMILES IDX 4 1 2 2 1 3 3 4 5 6 6 7 7 8 11 9 8 10 10 11 9 12
REMARK H PARENT 3 5
REMARK Flexibility Score: inf
ROOT
ATOM      1  C   UNL     1       8.256   0.139  -2.133  1.00  0.00     0.127 C 
ENDROOT
BRANCH   1   2
ATOM      2  C   UNL     1       9.397   0.329  -1.207  1.00  0.00     0.303 C 
ATOM      3  O   UNL     1       9.507  -0.357  -0.161  1.00  0.00    -0.252 OA
BRANCH   2   4
ATOM      4  O   UNL     1      10.376   1.273  -1.471  1.00  0.00    -0.481 OA
ATOM      5  H   UNL     1      10.426   2.118  -0.895  1.00  0.00     0.296 HD
ENDBRANCH   2   4
ENDBRANCH   1   2
BRANCH   1   6
ATOM      6  C   UNL     1       7.189  -0.630  -1.415  1.00  0.00     0.047 C 
BRANCH   6   7
ATOM      7  C   UNL     1       6.385   0.179  -0.501  1.00  0.00    -0.047 A 
ATOM      8  C   UNL     1       6.142  -0.243   0.785  1.00  0.00     0.004 A 
ATOM      9  C   UNL     1       5.871   1.377  -0.941  1.00  0.00     0.004 A 
ATOM     10  C   UNL     1       5.366   0.581   1.603  1.00  0.00     0.000 A 
ATOM     11  C   UNL     1       5.104   2.191  -0.132  1.00  0.00     0.000 A 
ATOM     12  C   UNL     1       4.855   1.775   1.158  1.00  0.00     0.000 A 
ENDBRANCH   6   7
ENDBRANCH   1   6
TORSDOF 4
ENDMDL
MODEL 5
REMARK VINA RESULT:      -6.6      2.000      2.621
REMARK SMILES O=C(O)CCc1ccccc1
REMARK SMILES IDX 4 1 2 2 1 3 3 4 5 6 6 7 7 8 11 9 8 10 10 11 9 12
REMARK H PARENT 3 5
REMARK Flexibility Score: inf
ROOT
ATOM      1  C   UNL     1       7.965  -2.316   0.787  1.00  0.00     0.127 C 
ENDROOT
BRANCH   1   2
ATOM      2  C   UNL     1       8.819  -3.401   0.249  1.00  0.00     0.303 C 
ATOM      3  O   UNL     1       8.703  -3.791  -0.939  1.00  0.00    -0.252 OA
BRANCH   2   4
ATOM      4  O   UNL     1       9.771  -4.017   1.045  1.00  0.00    -0.481 OA
ATOM      5  H   UNL     1      10.763  -3.887   0.831  1.00  0.00     0.296 HD
ENDBRANCH   2   4
ENDBRANCH   1   2
BRANCH   1   6
ATOM      6  C   UNL     1       7.460  -1.500  -0.363  1.00  0.00     0.047 C 
BRANCH   6   7
ATOM      7  C   UNL     1       6.609  -0.378   0.032  1.00  0.00    -0.047 A 
ATOM      8  C   UNL     1       6.347   0.649  -0.845  1.00  0.00     0.004 A 
ATOM      9  C   UNL     1       6.067  -0.360   1.296  1.00  0.00     0.004 A 
ATOM     10  C   UNL     1       5.525   1.687  -0.400  1.00  0.00     0.000 A 
ATOM     11  C   UNL     1       5.255   0.667   1.734  1.00  0.00     0.000 A 
ATOM     12  C   UNL     1       4.988   1.700   0.862  1.00  0.00     0.000 A 
ENDBRANCH   6   7
ENDBRANCH   1   6
TORSDOF 4
ENDMDL
