@<TRIPOS>MOLECULE
/home/cewinharhar/GITHUB/reincatalyze/data/processed/docking_pred/2023_Apr_20-15:07/074f71e156faecc69724e62cc987f5104d3c940c_ligand_2.pdbqt
 12 12 0 0 0
SMALL
GASTEIGER

@<TRIPOS>ATOM
      1  C          8.4580   -0.5670   -2.1500 C.3     1  UNL1        0.1270
      2  C          8.5110   -1.8220   -2.9370 C.2     1  UNL1        0.3030
      3  O          9.6060   -2.3670   -3.2210 O.2     1  UNL1       -0.2520
      4  O          7.3480   -2.4290   -3.3830 O.3     1  UNL1       -0.4810
      5  H          7.2210   -3.4340   -3.2400 H       1  UNL1        0.2960
      6  C          7.0410   -0.0830   -2.1290 C.3     1  UNL1        0.0470
      7  C          6.4860    0.0770   -0.7860 C.2     1  UNL1       -0.0470
      8  C          6.6160   -0.9200    0.1520 C.2     1  UNL1        0.0040
      9  C          5.8310    1.2430   -0.4650 C.2     1  UNL1        0.0040
     10  C          6.0630   -0.6980    1.4150 C.2     1  UNL1        0.0000
     11  C          5.2840    1.4610    0.7840 C.2     1  UNL1        0.0000
     12  C          5.4100    0.4670    1.7290 C.2     1  UNL1        0.0000
@<TRIPOS>BOND
     1     4     5    1
     2     4     2    1
     3     3     2    2
     4     2     1    1
     5     1     6    1
     6     6     7    1
     7     7     9    2
     8     7     8    1
     9     9    11    1
    10     8    10    2
    11    11    12    2
    12    10    12    1
