MODEL 1
REMARK VINA RESULT:      -7.2      0.000      0.000
REMARK SMILES O=C(O)CCc1ccccc1
REMARK SMILES IDX 4 1 2 2 1 3 3 4 5 6 6 7 7 8 11 9 8 10 10 11 9 12
REMARK H PARENT 3 5
REMARK Flexibility Score: inf
ROOT
ATOM      1  C   UNL     1       8.458  -0.567  -2.150  1.00  0.00     0.127 C 
ENDROOT
BRANCH   1   2
ATOM      2  C   UNL     1       8.511  -1.822  -2.937  1.00  0.00     0.303 C 
ATOM      3  O   UNL     1       9.606  -2.367  -3.221  1.00  0.00    -0.252 OA
BRANCH   2   4
ATOM      4  O   UNL     1       7.348  -2.429  -3.383  1.00  0.00    -0.481 OA
ATOM      5  H   UNL     1       7.221  -3.434  -3.240  1.00  0.00     0.296 HD
ENDBRANCH   2   4
ENDBRANCH   1   2
BRANCH   1   6
ATOM      6  C   UNL     1       7.041  -0.083  -2.129  1.00  0.00     0.047 C 
BRANCH   6   7
ATOM      7  C   UNL     1       6.486   0.077  -0.786  1.00  0.00    -0.047 A 
ATOM      8  C   UNL     1       6.616  -0.920   0.152  1.00  0.00     0.004 A 
ATOM      9  C   UNL     1       5.831   1.243  -0.465  1.00  0.00     0.004 A 
ATOM     10  C   UNL     1       6.063  -0.698   1.415  1.00  0.00     0.000 A 
ATOM     11  C   UNL     1       5.284   1.461   0.784  1.00  0.00     0.000 A 
ATOM     12  C   UNL     1       5.410   0.467   1.729  1.00  0.00     0.000 A 
ENDBRANCH   6   7
ENDBRANCH   1   6
TORSDOF 4
ENDMDL
MODEL 2
REMARK VINA RESULT:      -7.2      0.163      1.737
REMARK SMILES O=C(O)CCc1ccccc1
REMARK SMILES IDX 4 1 2 2 1 3 3 4 5 6 6 7 7 8 11 9 8 10 10 11 9 12
REMARK H PARENT 3 5
REMARK Flexibility Score: inf
ROOT
ATOM      1  C   UNL     1       8.367  -0.731  -1.973  1.00  0.00     0.127 C 
ENDROOT
BRANCH   1   2
ATOM      2  C   UNL     1       8.356  -1.909  -2.873  1.00  0.00     0.303 C 
ATOM      3  O   UNL     1       7.278  -2.408  -3.278  1.00  0.00    -0.252 OA
BRANCH   2   4
ATOM      4  O   UNL     1       9.541  -2.493  -3.293  1.00  0.00    -0.481 OA
ATOM      5  H   UNL     1       9.648  -2.758  -4.276  1.00  0.00     0.296 HD
ENDBRANCH   2   4
ENDBRANCH   1   2
BRANCH   1   6
ATOM      6  C   UNL     1       7.006  -0.107  -1.999  1.00  0.00     0.047 C 
BRANCH   6   7
ATOM      7  C   UNL     1       6.420   0.096  -0.675  1.00  0.00    -0.047 A 
ATOM      8  C   UNL     1       5.762   1.265  -0.368  1.00  0.00     0.004 A 
ATOM      9  C   UNL     1       6.531  -0.900   0.268  1.00  0.00     0.004 A 
ATOM     10  C   UNL     1       5.226   1.389   0.915  1.00  0.00     0.000 A 
ATOM     11  C   UNL     1       6.001  -0.774   1.537  1.00  0.00     0.000 A 
ATOM     12  C   UNL     1       5.341   0.393   1.852  1.00  0.00     0.000 A 
ENDBRANCH   6   7
ENDBRANCH   1   6
TORSDOF 4
ENDMDL
MODEL 3
REMARK VINA RESULT:      -6.8      1.079      1.862
REMARK SMILES O=C(O)CCc1ccccc1
REMARK SMILES IDX 4 1 2 2 1 3 3 4 5 6 6 7 7 8 11 9 8 10 10 11 9 12
REMARK H PARENT 3 5
REMARK Flexibility Score: inf
ROOT
ATOM      1  C   UNL     1       8.536   0.226  -1.961  1.00  0.00     0.127 C 
ENDROOT
BRANCH   1   2
ATOM      2  C   UNL     1       9.033  -0.340  -3.238  1.00  0.00     0.303 C 
ATOM      3  O   UNL     1       9.624  -1.447  -3.272  1.00  0.00    -0.252 OA
BRANCH   2   4
ATOM      4  O   UNL     1       8.858   0.340  -4.432  1.00  0.00    -0.481 OA
ATOM      5  H   UNL     1       8.978  -0.161  -5.316  1.00  0.00     0.296 HD
ENDBRANCH   2   4
ENDBRANCH   1   2
BRANCH   1   6
ATOM      6  C   UNL     1       7.038   0.184  -1.979  1.00  0.00     0.047 C 
BRANCH   6   7
ATOM      7  C   UNL     1       6.425   0.265  -0.655  1.00  0.00    -0.047 A 
ATOM      8  C   UNL     1       5.703   1.374  -0.280  1.00  0.00     0.004 A 
ATOM      9  C   UNL     1       6.576  -0.786   0.220  1.00  0.00     0.004 A 
ATOM     10  C   UNL     1       5.145   1.382   1.000  1.00  0.00     0.000 A 
ATOM     11  C   UNL     1       6.023  -0.777   1.485  1.00  0.00     0.000 A 
ATOM     12  C   UNL     1       5.299   0.331   1.868  1.00  0.00     0.000 A 
ENDBRANCH   6   7
ENDBRANCH   1   6
TORSDOF 4
ENDMDL
MODEL 4
REMARK VINA RESULT:      -6.7      3.320      5.098
REMARK SMILES O=C(O)CCc1ccccc1
REMARK SMILES IDX 4 1 2 2 1 3 3 4 5 6 6 7 7 8 11 9 8 10 10 11 9 12
REMARK H PARENT 3 5
REMARK Flexibility Score: inf
ROOT
ATOM      1  C   UNL     1       5.521   1.474  -0.304  1.00  0.00     0.127 C 
ENDROOT
BRANCH   1   2
ATOM      2  C   UNL     1       5.372   1.832   1.126  1.00  0.00     0.303 C 
ATOM      3  O   UNL     1       5.659   2.981   1.543  1.00  0.00    -0.252 OA
BRANCH   2   4
ATOM      4  O   UNL     1       4.909   0.904   2.046  1.00  0.00    -0.481 OA
ATOM      5  H   UNL     1       4.674  -0.041   1.729  1.00  0.00     0.296 HD
ENDBRANCH   2   4
ENDBRANCH   1   2
BRANCH   1   6
ATOM      6  C   UNL     1       6.335   0.219  -0.393  1.00  0.00     0.047 C 
BRANCH   6   7
ATOM      7  C   UNL     1       7.554   0.357  -1.189  1.00  0.00    -0.047 A 
ATOM      8  C   UNL     1       8.710   0.844  -0.626  1.00  0.00     0.004 A 
ATOM      9  C   UNL     1       7.535  -0.011  -2.514  1.00  0.00     0.004 A 
ATOM     10  C   UNL     1       9.837   0.947  -1.445  1.00  0.00     0.000 A 
ATOM     11  C   UNL     1       8.650   0.092  -3.323  1.00  0.00     0.000 A 
ATOM     12  C   UNL     1       9.812   0.581  -2.767  1.00  0.00     0.000 A 
ENDBRANCH   6   7
ENDBRANCH   1   6
TORSDOF 4
ENDMDL
MODEL 5
REMARK VINA RESULT:      -6.7      3.358      5.107
REMARK SMILES O=C(O)CCc1ccccc1
REMARK SMILES IDX 4 1 2 2 1 3 3 4 5 6 6 7 7 8 11 9 8 10 10 11 9 12
REMARK H PARENT 3 5
REMARK Flexibility Score: inf
ROOT
ATOM      1  C   UNL     1       6.550   0.735   0.941  1.00  0.00     0.127 C 
ENDROOT
BRANCH   1   2
ATOM      2  C   UNL     1       5.234   1.081   1.527  1.00  0.00     0.303 C 
ATOM      3  O   UNL     1       4.703   0.359   2.407  1.00  0.00    -0.252 OA
BRANCH   2   4
ATOM      4  O   UNL     1       4.550   2.214   1.117  1.00  0.00    -0.481 OA
ATOM      5  H   UNL     1       4.717   2.588   0.178  1.00  0.00     0.296 HD
ENDBRANCH   2   4
ENDBRANCH   1   2
BRANCH   1   6
ATOM      6  C   UNL     1       6.342   0.351  -0.492  1.00  0.00     0.047 C 
BRANCH   6   7
ATOM      7  C   UNL     1       7.559   0.393  -1.302  1.00  0.00    -0.047 A 
ATOM      8  C   UNL     1       7.542  -0.010  -2.617  1.00  0.00     0.004 A 
ATOM      9  C   UNL     1       8.728   0.844  -0.734  1.00  0.00     0.004 A 
ATOM     10  C   UNL     1       8.741   0.058  -3.330  1.00  0.00     0.000 A 
ATOM     11  C   UNL     1       9.912   0.910  -1.441  1.00  0.00     0.000 A 
ATOM     12  C   UNL     1       9.904   0.508  -2.759  1.00  0.00     0.000 A 
ENDBRANCH   6   7
ENDBRANCH   1   6
TORSDOF 4
ENDMDL
