@<TRIPOS>MOLECULE
/home/cewinharhar/GITHUB/reincatalyze/data/processed/docking_pred/2023_Apr_20-15:07/074f71e156faecc69724e62cc987f5104d3c940c_ligand_2.pdbqt
 12 12 0 0 0
SMALL
GASTEIGER

@<TRIPOS>ATOM
      1  C          8.5360    0.2260   -1.9610 C.3     1  UNL1        0.1270
      2  C          9.0330   -0.3400   -3.2380 C.2     1  UNL1        0.3030
      3  O          9.6240   -1.4470   -3.2720 O.2     1  UNL1       -0.2520
      4  O          8.8580    0.3400   -4.4320 O.3     1  UNL1       -0.4810
      5  H          8.9780   -0.1610   -5.3160 H       1  UNL1        0.2960
      6  C          7.0380    0.1840   -1.9790 C.3     1  UNL1        0.0470
      7  C          6.4250    0.2650   -0.6550 C.2     1  UNL1       -0.0470
      8  C          5.7030    1.3740   -0.2800 C.2     1  UNL1        0.0040
      9  C          6.5760   -0.7860    0.2200 C.2     1  UNL1        0.0040
     10  C          5.1450    1.3820    1.0000 C.2     1  UNL1        0.0000
     11  C          6.0230   -0.7770    1.4850 C.2     1  UNL1        0.0000
     12  C          5.2990    0.3310    1.8680 C.2     1  UNL1        0.0000
@<TRIPOS>BOND
     1     5     4    1
     2     4     2    1
     3     3     2    2
     4     2     1    1
     5     6     1    1
     6     6     7    1
     7     7     8    2
     8     7     9    1
     9     8    10    1
    10     9    11    2
    11    10    12    2
    12    11    12    1
