@<TRIPOS>MOLECULE
/home/cewinharhar/GITHUB/reincatalyze/data/processed/docking_pred/2023_Apr_20-15:07/074f71e156faecc69724e62cc987f5104d3c940c_ligand_2.pdbqt
 12 12 0 0 0
SMALL
GASTEIGER

@<TRIPOS>ATOM
      1  C          5.5210    1.4740   -0.3040 C.3     1  UNL1        0.1270
      2  C          5.3720    1.8320    1.1260 C.2     1  UNL1        0.3030
      3  O          5.6590    2.9810    1.5430 O.2     1  UNL1       -0.2520
      4  O          4.9090    0.9040    2.0460 O.3     1  UNL1       -0.4810
      5  H          4.6740   -0.0410    1.7290 H       1  UNL1        0.2960
      6  C          6.3350    0.2190   -0.3930 C.3     1  UNL1        0.0470
      7  C          7.5540    0.3570   -1.1890 C.2     1  UNL1       -0.0470
      8  C          8.7100    0.8440   -0.6260 C.2     1  UNL1        0.0040
      9  C          7.5350   -0.0110   -2.5140 C.2     1  UNL1        0.0040
     10  C          9.8370    0.9470   -1.4450 C.2     1  UNL1        0.0000
     11  C          8.6500    0.0920   -3.3230 C.2     1  UNL1        0.0000
     12  C          9.8120    0.5810   -2.7670 C.2     1  UNL1        0.0000
@<TRIPOS>BOND
     1    11    12    2
     2    11     9    1
     3    12    10    1
     4     9     7    2
     5    10     8    2
     6     7     8    1
     7     7     6    1
     8     6     1    1
     9     1     2    1
    10     2     3    2
    11     2     4    1
    12     5     4    1
