@<TRIPOS>MOLECULE
/home/cewinharhar/GITHUB/reincatalyze/data/processed/docking_pred/2023_Apr_20-15:07/074f71e156faecc69724e62cc987f5104d3c940c_ligand_2.pdbqt
 12 12 0 0 0
SMALL
GASTEIGER

@<TRIPOS>ATOM
      1  C          6.5500    0.7350    0.9410 C.3     1  UNL1        0.1270
      2  C          5.2340    1.0810    1.5270 C.2     1  UNL1        0.3030
      3  O          4.7030    0.3590    2.4070 O.2     1  UNL1       -0.2520
      4  O          4.5500    2.2140    1.1170 O.3     1  UNL1       -0.4810
      5  H          4.7170    2.5880    0.1780 H       1  UNL1        0.2960
      6  C          6.3420    0.3510   -0.4920 C.3     1  UNL1        0.0470
      7  C          7.5590    0.3930   -1.3020 C.2     1  UNL1       -0.0470
      8  C          7.5420   -0.0100   -2.6170 C.2     1  UNL1        0.0040
      9  C          8.7280    0.8440   -0.7340 C.2     1  UNL1        0.0040
     10  C          8.7410    0.0580   -3.3300 C.2     1  UNL1        0.0000
     11  C          9.9120    0.9100   -1.4410 C.2     1  UNL1        0.0000
     12  C          9.9040    0.5080   -2.7590 C.2     1  UNL1        0.0000
@<TRIPOS>BOND
     1    10    12    2
     2    10     8    1
     3    12    11    1
     4     8     7    2
     5    11     9    2
     6     7     9    1
     7     7     6    1
     8     6     1    1
     9     5     4    1
    10     1     2    1
    11     4     2    1
    12     2     3    2
