@<TRIPOS>MOLECULE
/home/cewinharhar/GITHUB/reincatalyze/data/processed/docking_pred/2023_Apr_20-15:07/074f71e156faecc69724e62cc987f5104d3c940c_ligand_2.pdbqt
 12 12 0 0 0
SMALL
GASTEIGER

@<TRIPOS>ATOM
      1  C          8.3670   -0.7310   -1.9730 C.3     1  UNL1        0.1270
      2  C          8.3560   -1.9090   -2.8730 C.2     1  UNL1        0.3030
      3  O          7.2780   -2.4080   -3.2780 O.2     1  UNL1       -0.2520
      4  O          9.5410   -2.4930   -3.2930 O.3     1  UNL1       -0.4810
      5  H          9.6480   -2.7580   -4.2760 H       1  UNL1        0.2960
      6  C          7.0060   -0.1070   -1.9990 C.3     1  UNL1        0.0470
      7  C          6.4200    0.0960   -0.6750 C.2     1  UNL1       -0.0470
      8  C          5.7620    1.2650   -0.3680 C.2     1  UNL1        0.0040
      9  C          6.5310   -0.9000    0.2680 C.2     1  UNL1        0.0040
     10  C          5.2260    1.3890    0.9150 C.2     1  UNL1        0.0000
     11  C          6.0010   -0.7740    1.5370 C.2     1  UNL1        0.0000
     12  C          5.3410    0.3930    1.8520 C.2     1  UNL1        0.0000
@<TRIPOS>BOND
     1     5     4    1
     2     4     2    1
     3     3     2    2
     4     2     1    1
     5     6     1    1
     6     6     7    1
     7     7     8    2
     8     7     9    1
     9     8    10    1
    10     9    11    2
    11    10    12    2
    12    11    12    1
