MODEL 1
REMARK VINA RESULT:      -7.3      0.000      0.000
REMARK SMILES O=C(O)CCc1ccccc1
REMARK SMILES IDX 4 1 2 2 1 3 3 4 5 6 6 7 7 8 11 9 8 10 10 11 9 12
REMARK H PARENT 3 5
REMARK Flexibility Score: inf
ROOT
ATOM      1  C   UNL     1       8.425  -0.564  -2.234  1.00  0.00     0.127 C 
ENDROOT
BRANCH   1   2
ATOM      2  C   UNL     1       8.467  -1.874  -2.925  1.00  0.00     0.303 C 
ATOM      3  O   UNL     1       9.549  -2.487  -3.093  1.00  0.00    -0.252 OA
BRANCH   2   4
ATOM      4  O   UNL     1       7.307  -2.460  -3.406  1.00  0.00    -0.481 OA
ATOM      5  H   UNL     1       7.039  -2.312  -4.383  1.00  0.00     0.296 HD
ENDBRANCH   2   4
ENDBRANCH   1   2
BRANCH   1   6
ATOM      6  C   UNL     1       6.999  -0.108  -2.174  1.00  0.00     0.047 C 
BRANCH   6   7
ATOM      7  C   UNL     1       6.479   0.040  -0.816  1.00  0.00    -0.047 A 
ATOM      8  C   UNL     1       6.621  -0.971   0.105  1.00  0.00     0.004 A 
ATOM      9  C   UNL     1       5.842   1.208  -0.465  1.00  0.00     0.004 A 
ATOM     10  C   UNL     1       6.100  -0.760   1.384  1.00  0.00     0.000 A 
ATOM     11  C   UNL     1       5.328   1.415   0.800  1.00  0.00     0.000 A 
ATOM     12  C   UNL     1       5.466   0.407   1.729  1.00  0.00     0.000 A 
ENDBRANCH   6   7
ENDBRANCH   1   6
TORSDOF 4
ENDMDL
MODEL 2
REMARK VINA RESULT:      -7.2      0.149      1.732
REMARK SMILES O=C(O)CCc1ccccc1
REMARK SMILES IDX 4 1 2 2 1 3 3 4 5 6 6 7 7 8 11 9 8 10 10 11 9 12
REMARK H PARENT 3 5
REMARK Flexibility Score: inf
ROOT
ATOM      1  C   UNL     1       8.428  -0.564  -2.207  1.00  0.00     0.127 C 
ENDROOT
BRANCH   1   2
ATOM      2  C   UNL     1       8.446  -1.866  -2.913  1.00  0.00     0.303 C 
ATOM      3  O   UNL     1       7.380  -2.474  -3.184  1.00  0.00    -0.252 OA
BRANCH   2   4
ATOM      4  O   UNL     1       9.642  -2.451  -3.296  1.00  0.00    -0.481 OA
ATOM      5  H   UNL     1       9.908  -3.355  -2.896  1.00  0.00     0.296 HD
ENDBRANCH   2   4
ENDBRANCH   1   2
BRANCH   1   6
ATOM      6  C   UNL     1       7.012  -0.080  -2.146  1.00  0.00     0.047 C 
BRANCH   6   7
ATOM      7  C   UNL     1       6.486   0.051  -0.788  1.00  0.00    -0.047 A 
ATOM      8  C   UNL     1       5.869   1.211  -0.382  1.00  0.00     0.004 A 
ATOM      9  C   UNL     1       6.612  -1.004   0.085  1.00  0.00     0.004 A 
ATOM     10  C   UNL     1       5.390   1.266   0.929  1.00  0.00     0.000 A 
ATOM     11  C   UNL     1       6.137  -0.949   1.381  1.00  0.00     0.000 A 
ATOM     12  C   UNL     1       5.519   0.210   1.796  1.00  0.00     0.000 A 
ENDBRANCH   6   7
ENDBRANCH   1   6
TORSDOF 4
ENDMDL
MODEL 3
REMARK VINA RESULT:      -6.8      3.371      5.060
REMARK SMILES O=C(O)CCc1ccccc1
REMARK SMILES IDX 4 1 2 2 1 3 3 4 5 6 6 7 7 8 11 9 8 10 10 11 9 12
REMARK H PARENT 3 5
REMARK Flexibility Score: inf
ROOT
ATOM      1  C   UNL     1       4.989   1.797   0.674  1.00  0.00     0.127 C 
ENDROOT
BRANCH   1   2
ATOM      2  C   UNL     1       4.491   1.125   1.897  1.00  0.00     0.303 C 
ATOM      3  O   UNL     1       5.165   0.233   2.470  1.00  0.00    -0.252 OA
BRANCH   2   4
ATOM      4  O   UNL     1       3.264   1.464   2.444  1.00  0.00    -0.481 OA
ATOM      5  H   UNL     1       2.427   0.953   2.151  1.00  0.00     0.296 HD
ENDBRANCH   2   4
ENDBRANCH   1   2
BRANCH   1   6
ATOM      6  C   UNL     1       6.487   1.806   0.718  1.00  0.00     0.047 C 
BRANCH   6   7
ATOM      7  C   UNL     1       7.118   1.049  -0.361  1.00  0.00    -0.047 A 
ATOM      8  C   UNL     1       6.382   0.185  -1.139  1.00  0.00     0.004 A 
ATOM      9  C   UNL     1       8.464   1.209  -0.596  1.00  0.00     0.004 A 
ATOM     10  C   UNL     1       7.050  -0.505  -2.153  1.00  0.00     0.000 A 
ATOM     11  C   UNL     1       9.123   0.526  -1.598  1.00  0.00     0.000 A 
ATOM     12  C   UNL     1       8.393  -0.342  -2.381  1.00  0.00     0.000 A 
ENDBRANCH   6   7
ENDBRANCH   1   6
TORSDOF 4
ENDMDL
MODEL 4
REMARK VINA RESULT:      -6.5      3.691      4.975
REMARK SMILES O=C(O)CCc1ccccc1
REMARK SMILES IDX 4 1 2 2 1 3 3 4 5 6 6 7 7 8 11 9 8 10 10 11 9 12
REMARK H PARENT 3 5
REMARK Flexibility Score: inf
ROOT
ATOM      1  C   UNL     1       5.331   2.825   0.105  1.00  0.00     0.127 C 
ENDROOT
BRANCH   1   2
ATOM      2  C   UNL     1       6.160   3.776   0.882  1.00  0.00     0.303 C 
ATOM      3  O   UNL     1       6.233   3.705   2.134  1.00  0.00    -0.252 OA
BRANCH   2   4
ATOM      4  O   UNL     1       6.880   4.775   0.245  1.00  0.00    -0.481 OA
ATOM      5  H   UNL     1       7.021   4.723  -0.767  1.00  0.00     0.296 HD
ENDBRANCH   2   4
ENDBRANCH   1   2
BRANCH   1   6
ATOM      6  C   UNL     1       5.347   1.503   0.810  1.00  0.00     0.047 C 
BRANCH   6   7
ATOM      7  C   UNL     1       6.109   0.467   0.115  1.00  0.00    -0.047 A 
ATOM      8  C   UNL     1       6.555  -0.648   0.786  1.00  0.00     0.004 A 
ATOM      9  C   UNL     1       6.376   0.616  -1.226  1.00  0.00     0.004 A 
ATOM     10  C   UNL     1       7.276  -1.597   0.058  1.00  0.00     0.000 A 
ATOM     11  C   UNL     1       7.089  -0.323  -1.944  1.00  0.00     0.000 A 
ATOM     12  C   UNL     1       7.540  -1.442  -1.279  1.00  0.00     0.000 A 
ENDBRANCH   6   7
ENDBRANCH   1   6
TORSDOF 4
ENDMDL
MODEL 5
REMARK VINA RESULT:      -6.5      3.736      5.111
REMARK SMILES O=C(O)CCc1ccccc1
REMARK SMILES IDX 4 1 2 2 1 3 3 4 5 6 6 7 7 8 11 9 8 10 10 11 9 12
REMARK H PARENT 3 5
REMARK Flexibility Score: inf
ROOT
ATOM      1  C   UNL     1       5.375   2.886   0.079  1.00  0.00     0.127 C 
ENDROOT
BRANCH   1   2
ATOM      2  C   UNL     1       6.179   3.883   0.824  1.00  0.00     0.303 C 
ATOM      3  O   UNL     1       6.870   4.742   0.223  1.00  0.00    -0.252 OA
BRANCH   2   4
ATOM      4  O   UNL     1       6.189   3.895   2.210  1.00  0.00    -0.481 OA
ATOM      5  H   UNL     1       6.792   4.561   2.701  1.00  0.00     0.296 HD
ENDBRANCH   2   4
ENDBRANCH   1   2
BRANCH   1   6
ATOM      6  C   UNL     1       5.390   1.600   0.847  1.00  0.00     0.047 C 
BRANCH   6   7
ATOM      7  C   UNL     1       6.162   0.535   0.209  1.00  0.00    -0.047 A 
ATOM      8  C   UNL     1       6.493   0.609  -1.124  1.00  0.00     0.004 A 
ATOM      9  C   UNL     1       6.560  -0.548   0.958  1.00  0.00     0.004 A 
ATOM     10  C   UNL     1       7.233  -0.444  -1.668  1.00  0.00     0.000 A 
ATOM     11  C   UNL     1       7.291  -1.588   0.419  1.00  0.00     0.000 A 
ATOM     12  C   UNL     1       7.626  -1.522  -0.916  1.00  0.00     0.000 A 
ENDBRANCH   6   7
ENDBRANCH   1   6
TORSDOF 4
ENDMDL
