@<TRIPOS>MOLECULE
/home/cewinharhar/GITHUB/reincatalyze/data/processed/docking_pred/2023_Apr_20-15:07/088b63c47bd4d7a6949fea46fb2e227d24226938_ligand_2.pdbqt
 12 12 0 0 0
SMALL
GASTEIGER

@<TRIPOS>ATOM
      1  C          5.3310    2.8250    0.1050 C.3     1  UNL1        0.1270
      2  C          6.1600    3.7760    0.8820 C.2     1  UNL1        0.3030
      3  O          6.2330    3.7050    2.1340 O.2     1  UNL1       -0.2520
      4  O          6.8800    4.7750    0.2450 O.3     1  UNL1       -0.4810
      5  H          7.0210    4.7230   -0.7670 H       1  UNL1        0.2960
      6  C          5.3470    1.5030    0.8100 C.3     1  UNL1        0.0470
      7  C          6.1090    0.4670    0.1150 C.2     1  UNL1       -0.0470
      8  C          6.5550   -0.6480    0.7860 C.2     1  UNL1        0.0040
      9  C          6.3760    0.6160   -1.2260 C.2     1  UNL1        0.0040
     10  C          7.2760   -1.5970    0.0580 C.2     1  UNL1        0.0000
     11  C          7.0890   -0.3230   -1.9440 C.2     1  UNL1        0.0000
     12  C          7.5400   -1.4420   -1.2790 C.2     1  UNL1        0.0000
@<TRIPOS>BOND
     1    11    12    2
     2    11     9    1
     3    12    10    1
     4     9     7    2
     5     5     4    1
     6    10     8    2
     7     1     6    1
     8     1     2    1
     9     7     8    1
    10     7     6    1
    11     4     2    1
    12     2     3    2
