@<TRIPOS>MOLECULE
/home/cewinharhar/GITHUB/reincatalyze/data/processed/docking_pred/2023_Apr_20-15:07/088b63c47bd4d7a6949fea46fb2e227d24226938_ligand_2.pdbqt
 12 12 0 0 0
SMALL
GASTEIGER

@<TRIPOS>ATOM
      1  C          8.4280   -0.5640   -2.2070 C.3     1  UNL1        0.1270
      2  C          8.4460   -1.8660   -2.9130 C.2     1  UNL1        0.3030
      3  O          7.3800   -2.4740   -3.1840 O.2     1  UNL1       -0.2520
      4  O          9.6420   -2.4510   -3.2960 O.3     1  UNL1       -0.4810
      5  H          9.9080   -3.3550   -2.8960 H       1  UNL1        0.2960
      6  C          7.0120   -0.0800   -2.1460 C.3     1  UNL1        0.0470
      7  C          6.4860    0.0510   -0.7880 C.2     1  UNL1       -0.0470
      8  C          5.8690    1.2110   -0.3820 C.2     1  UNL1        0.0040
      9  C          6.6120   -1.0040    0.0850 C.2     1  UNL1        0.0040
     10  C          5.3900    1.2660    0.9290 C.2     1  UNL1        0.0000
     11  C          6.1370   -0.9490    1.3810 C.2     1  UNL1        0.0000
     12  C          5.5190    0.2100    1.7960 C.2     1  UNL1        0.0000
@<TRIPOS>BOND
     1     4     2    1
     2     4     5    1
     3     3     2    2
     4     2     1    1
     5     1     6    1
     6     6     7    1
     7     7     8    2
     8     7     9    1
     9     8    10    1
    10     9    11    2
    11    10    12    2
    12    11    12    1
