@<TRIPOS>MOLECULE
/home/cewinharhar/GITHUB/reincatalyze/data/processed/docking_pred/2023_Apr_20-15:07/088b63c47bd4d7a6949fea46fb2e227d24226938_ligand_2.pdbqt
 12 12 0 0 0
SMALL
GASTEIGER

@<TRIPOS>ATOM
      1  C          4.9890    1.7970    0.6740 C.3     1  UNL1        0.1270
      2  C          4.4910    1.1250    1.8970 C.2     1  UNL1        0.3030
      3  O          5.1650    0.2330    2.4700 O.2     1  UNL1       -0.2520
      4  O          3.2640    1.4640    2.4440 O.3     1  UNL1       -0.4810
      5  H          2.4270    0.9530    2.1510 H       1  UNL1        0.2960
      6  C          6.4870    1.8060    0.7180 C.3     1  UNL1        0.0470
      7  C          7.1180    1.0490   -0.3610 C.2     1  UNL1       -0.0470
      8  C          6.3820    0.1850   -1.1390 C.2     1  UNL1        0.0040
      9  C          8.4640    1.2090   -0.5960 C.2     1  UNL1        0.0040
     10  C          7.0500   -0.5050   -2.1530 C.2     1  UNL1        0.0000
     11  C          9.1230    0.5260   -1.5980 C.2     1  UNL1        0.0000
     12  C          8.3930   -0.3420   -2.3810 C.2     1  UNL1        0.0000
@<TRIPOS>BOND
     1    12    10    2
     2    12    11    1
     3    10     8    1
     4    11     9    2
     5     8     7    2
     6     9     7    1
     7     7     6    1
     8     1     6    1
     9     1     2    1
    10     2     4    1
    11     2     3    2
    12     5     4    1
