@<TRIPOS>MOLECULE
/home/cewinharhar/GITHUB/reincatalyze/data/processed/docking_pred/2023_Apr_20-15:07/088b63c47bd4d7a6949fea46fb2e227d24226938_ligand_2.pdbqt
 12 12 0 0 0
SMALL
GASTEIGER

@<TRIPOS>ATOM
      1  C          8.4250   -0.5640   -2.2340 C.3     1  UNL1        0.1270
      2  C          8.4670   -1.8740   -2.9250 C.2     1  UNL1        0.3030
      3  O          9.5490   -2.4870   -3.0930 O.2     1  UNL1       -0.2520
      4  O          7.3070   -2.4600   -3.4060 O.3     1  UNL1       -0.4810
      5  H          7.0390   -2.3120   -4.3830 H       1  UNL1        0.2960
      6  C          6.9990   -0.1080   -2.1740 C.3     1  UNL1        0.0470
      7  C          6.4790    0.0400   -0.8160 C.2     1  UNL1       -0.0470
      8  C          6.6210   -0.9710    0.1050 C.2     1  UNL1        0.0040
      9  C          5.8420    1.2080   -0.4650 C.2     1  UNL1        0.0040
     10  C          6.1000   -0.7600    1.3840 C.2     1  UNL1        0.0000
     11  C          5.3280    1.4150    0.8000 C.2     1  UNL1        0.0000
     12  C          5.4660    0.4070    1.7290 C.2     1  UNL1        0.0000
@<TRIPOS>BOND
     1     5     4    1
     2     4     2    1
     3     3     2    2
     4     2     1    1
     5     1     6    1
     6     6     7    1
     7     7     9    2
     8     7     8    1
     9     9    11    1
    10     8    10    2
    11    11    12    2
    12    10    12    1
