@<TRIPOS>MOLECULE
/home/cewinharhar/GITHUB/reincatalyze/data/processed/docking_pred/2023_Apr_20-15:07/088b63c47bd4d7a6949fea46fb2e227d24226938_ligand_2.pdbqt
 12 12 0 0 0
SMALL
GASTEIGER

@<TRIPOS>ATOM
      1  C          5.3750    2.8860    0.0790 C.3     1  UNL1        0.1270
      2  C          6.1790    3.8830    0.8240 C.2     1  UNL1        0.3030
      3  O          6.8700    4.7420    0.2230 O.2     1  UNL1       -0.2520
      4  O          6.1890    3.8950    2.2100 O.3     1  UNL1       -0.4810
      5  H          6.7920    4.5610    2.7010 H       1  UNL1        0.2960
      6  C          5.3900    1.6000    0.8470 C.3     1  UNL1        0.0470
      7  C          6.1620    0.5350    0.2090 C.2     1  UNL1       -0.0470
      8  C          6.4930    0.6090   -1.1240 C.2     1  UNL1        0.0040
      9  C          6.5600   -0.5480    0.9580 C.2     1  UNL1        0.0040
     10  C          7.2330   -0.4440   -1.6680 C.2     1  UNL1        0.0000
     11  C          7.2910   -1.5880    0.4190 C.2     1  UNL1        0.0000
     12  C          7.6260   -1.5220   -0.9160 C.2     1  UNL1        0.0000
@<TRIPOS>BOND
     1    10     8    1
     2    10    12    2
     3     8     7    2
     4    12    11    1
     5     1     2    1
     6     1     6    1
     7     7     6    1
     8     7     9    1
     9     3     2    2
    10    11     9    2
    11     2     4    1
    12     4     5    1
