@<TRIPOS>MOLECULE
/home/cewinharhar/GITHUB/reincatalyze/data/processed/docking_pred/2023_Apr_20-15:07/08a74a7e320cd1ecb560e86b752820c061dfae11_ligand_2.pdbqt
 12 12 0 0 0
SMALL
GASTEIGER

@<TRIPOS>ATOM
      1  C          8.4430   -0.6580   -2.0810 C.3     1  UNL1        0.1270
      2  C          8.4640   -1.9000   -2.8890 C.2     1  UNL1        0.3030
      3  O          9.5370   -2.5150   -3.1090 O.2     1  UNL1       -0.2520
      4  O          7.2970   -2.4180   -3.4270 O.3     1  UNL1       -0.4810
      5  H          7.3490   -3.2290   -4.0500 H       1  UNL1        0.2960
      6  C          7.0450   -0.1180   -2.0860 C.3     1  UNL1        0.0470
      7  C          6.4810    0.0840   -0.7530 C.2     1  UNL1       -0.0470
      8  C          5.8370    1.2560   -0.4320 C.2     1  UNL1        0.0040
      9  C          6.5990   -0.9160    0.1850 C.2     1  UNL1        0.0040
     10  C          5.3210    1.3800    0.8610 C.2     1  UNL1        0.0000
     11  C          6.0900   -0.7920    1.4620 C.2     1  UNL1        0.0000
     12  C          5.4430    0.3790    1.7920 C.2     1  UNL1        0.0000
@<TRIPOS>BOND
     1     5     4    1
     2     4     2    1
     3     3     2    2
     4     2     1    1
     5     6     1    1
     6     6     7    1
     7     7     8    2
     8     7     9    1
     9     8    10    1
    10     9    11    2
    11    10    12    2
    12    11    12    1
