@<TRIPOS>MOLECULE
/home/cewinharhar/GITHUB/reincatalyze/data/processed/docking_pred/2023_Apr_20-15:07/08a74a7e320cd1ecb560e86b752820c061dfae11_ligand_2.pdbqt
 12 12 0 0 0
SMALL
GASTEIGER

@<TRIPOS>ATOM
      1  C          5.5250    2.9140   -0.0050 C.3     1  UNL1        0.1270
      2  C          6.2650    3.8600    0.8630 C.2     1  UNL1        0.3030
      3  O          6.1070    3.8600    2.1090 O.2     1  UNL1       -0.2520
      4  O          7.1530    4.7750    0.3200 O.3     1  UNL1       -0.4810
      5  H          7.5100    5.5340    0.9070 H       1  UNL1        0.2960
      6  C          4.9380    1.8410    0.8620 C.3     1  UNL1        0.0470
      7  C          5.7180    0.6050    0.8890 C.2     1  UNL1       -0.0470
      8  C          6.4240    0.1950   -0.2180 C.2     1  UNL1        0.0040
      9  C          5.7420   -0.1480    2.0400 C.2     1  UNL1        0.0040
     10  C          7.1480   -0.9960   -0.1200 C.2     1  UNL1        0.0000
     11  C          6.4580   -1.3250    2.1350 C.2     1  UNL1        0.0000
     12  C          7.1670   -1.7440    1.0300 C.2     1  UNL1        0.0000
@<TRIPOS>BOND
     1     8    10    1
     2     8     7    2
     3    10    12    2
     4     1     6    1
     5     1     2    1
     6     4     2    1
     7     4     5    1
     8     6     7    1
     9     2     3    2
    10     7     9    1
    11    12    11    1
    12     9    11    2
