@<TRIPOS>MOLECULE
/home/cewinharhar/GITHUB/reincatalyze/data/processed/docking_pred/2023_Apr_20-15:07/08a74a7e320cd1ecb560e86b752820c061dfae11_ligand_2.pdbqt
 12 12 0 0 0
SMALL
GASTEIGER

@<TRIPOS>ATOM
      1  C          8.1800    0.9690   -1.8840 C.3     1  UNL1        0.1270
      2  C          9.3910    0.1210   -1.7730 C.2     1  UNL1        0.3030
      3  O          9.4310   -1.0260   -2.2830 O.2     1  UNL1       -0.2520
      4  O         10.5150    0.5730   -1.1010 O.3     1  UNL1       -0.4810
      5  H         10.4310    1.3720   -0.4660 H       1  UNL1        0.2960
      6  C          6.9750    0.0860   -1.7630 C.3     1  UNL1        0.0470
      7  C          6.3940    0.0540   -0.4220 C.2     1  UNL1       -0.0470
      8  C          6.5410   -1.0520    0.3820 C.2     1  UNL1        0.0040
      9  C          5.6960    1.1490    0.0340 C.2     1  UNL1        0.0040
     10  C          5.9600   -1.0120    1.6520 C.2     1  UNL1        0.0000
     11  C          5.1230    1.1870    1.2890 C.2     1  UNL1        0.0000
     12  C          5.2640    0.0820    2.1010 C.2     1  UNL1        0.0000
@<TRIPOS>BOND
     1     3     2    2
     2     1     2    1
     3     1     6    1
     4     2     4    1
     5     6     7    1
     6     4     5    1
     7     7     9    2
     8     7     8    1
     9     9    11    1
    10     8    10    2
    11    11    12    2
    12    10    12    1
