@<TRIPOS>MOLECULE
/home/cewinharhar/GITHUB/reincatalyze/data/processed/docking_pred/2023_Apr_20-15:07/08a74a7e320cd1ecb560e86b752820c061dfae11_ligand_2.pdbqt
 12 12 0 0 0
SMALL
GASTEIGER

@<TRIPOS>ATOM
      1  C          8.3920   -0.6220   -2.1350 C.3     1  UNL1        0.1270
      2  C          8.3700   -1.8870   -2.9060 C.2     1  UNL1        0.3030
      3  O          7.2870   -2.4180   -3.2560 O.2     1  UNL1       -0.2520
      4  O          9.5490   -2.5220   -3.2620 O.3     1  UNL1       -0.4810
      5  H          9.5690   -3.1090   -4.1000 H       1  UNL1        0.2960
      6  C          6.9990   -0.0730   -2.0920 C.3     1  UNL1        0.0470
      7  C          6.4560    0.0670   -0.7420 C.2     1  UNL1       -0.0470
      8  C          6.5840   -0.9500    0.1760 C.2     1  UNL1        0.0040
      9  C          5.8140    1.2330   -0.3940 C.2     1  UNL1        0.0040
     10  C          6.0430   -0.7470    1.4480 C.2     1  UNL1        0.0000
     11  C          5.2790    1.4320    0.8640 C.2     1  UNL1        0.0000
     12  C          5.4020    0.4180    1.7890 C.2     1  UNL1        0.0000
@<TRIPOS>BOND
     1     5     4    1
     2     4     2    1
     3     3     2    2
     4     2     1    1
     5     1     6    1
     6     6     7    1
     7     7     9    2
     8     7     8    1
     9     9    11    1
    10     8    10    2
    11    11    12    2
    12    10    12    1
