MODEL 1
REMARK VINA RESULT:      -7.3      0.000      0.000
REMARK SMILES O=C(O)CCc1ccccc1
REMARK SMILES IDX 4 1 2 2 1 3 3 4 5 6 6 7 7 8 11 9 8 10 10 11 9 12
REMARK H PARENT 3 5
REMARK Flexibility Score: inf
ROOT
ATOM      1  C   UNL     1       8.443  -0.658  -2.081  1.00  0.00     0.127 C 
ENDROOT
BRANCH   1   2
ATOM      2  C   UNL     1       8.464  -1.900  -2.889  1.00  0.00     0.303 C 
ATOM      3  O   UNL     1       9.537  -2.515  -3.109  1.00  0.00    -0.252 OA
BRANCH   2   4
ATOM      4  O   UNL     1       7.297  -2.418  -3.427  1.00  0.00    -0.481 OA
ATOM      5  H   UNL     1       7.349  -3.229  -4.050  1.00  0.00     0.296 HD
ENDBRANCH   2   4
ENDBRANCH   1   2
BRANCH   1   6
ATOM      6  C   UNL     1       7.045  -0.118  -2.086  1.00  0.00     0.047 C 
BRANCH   6   7
ATOM      7  C   UNL     1       6.481   0.084  -0.753  1.00  0.00    -0.047 A 
ATOM      8  C   UNL     1       5.837   1.256  -0.432  1.00  0.00     0.004 A 
ATOM      9  C   UNL     1       6.599  -0.916   0.185  1.00  0.00     0.004 A 
ATOM     10  C   UNL     1       5.321   1.380   0.861  1.00  0.00     0.000 A 
ATOM     11  C   UNL     1       6.090  -0.792   1.462  1.00  0.00     0.000 A 
ATOM     12  C   UNL     1       5.443   0.379   1.792  1.00  0.00     0.000 A 
ENDBRANCH   6   7
ENDBRANCH   1   6
TORSDOF 4
ENDMDL
MODEL 2
REMARK VINA RESULT:      -7.3      0.091      1.730
REMARK SMILES O=C(O)CCc1ccccc1
REMARK SMILES IDX 4 1 2 2 1 3 3 4 5 6 6 7 7 8 11 9 8 10 10 11 9 12
REMARK H PARENT 3 5
REMARK Flexibility Score: inf
ROOT
ATOM      1  C   UNL     1       8.392  -0.622  -2.135  1.00  0.00     0.127 C 
ENDROOT
BRANCH   1   2
ATOM      2  C   UNL     1       8.370  -1.887  -2.906  1.00  0.00     0.303 C 
ATOM      3  O   UNL     1       7.287  -2.418  -3.256  1.00  0.00    -0.252 OA
BRANCH   2   4
ATOM      4  O   UNL     1       9.549  -2.522  -3.262  1.00  0.00    -0.481 OA
ATOM      5  H   UNL     1       9.569  -3.109  -4.100  1.00  0.00     0.296 HD
ENDBRANCH   2   4
ENDBRANCH   1   2
BRANCH   1   6
ATOM      6  C   UNL     1       6.999  -0.073  -2.092  1.00  0.00     0.047 C 
BRANCH   6   7
ATOM      7  C   UNL     1       6.456   0.067  -0.742  1.00  0.00    -0.047 A 
ATOM      8  C   UNL     1       6.584  -0.950   0.176  1.00  0.00     0.004 A 
ATOM      9  C   UNL     1       5.814   1.233  -0.394  1.00  0.00     0.004 A 
ATOM     10  C   UNL     1       6.043  -0.747   1.448  1.00  0.00     0.000 A 
ATOM     11  C   UNL     1       5.279   1.432   0.864  1.00  0.00     0.000 A 
ATOM     12  C   UNL     1       5.402   0.418   1.789  1.00  0.00     0.000 A 
ENDBRANCH   6   7
ENDBRANCH   1   6
TORSDOF 4
ENDMDL
MODEL 3
REMARK VINA RESULT:      -6.8      3.369      5.081
REMARK SMILES O=C(O)CCc1ccccc1
REMARK SMILES IDX 4 1 2 2 1 3 3 4 5 6 6 7 7 8 11 9 8 10 10 11 9 12
REMARK H PARENT 3 5
REMARK Flexibility Score: inf
ROOT
ATOM      1  C   UNL     1       5.002   1.791   0.708  1.00  0.00     0.127 C 
ENDROOT
BRANCH   1   2
ATOM      2  C   UNL     1       4.485   1.108   1.918  1.00  0.00     0.303 C 
ATOM      3  O   UNL     1       5.142   0.200   2.483  1.00  0.00    -0.252 OA
BRANCH   2   4
ATOM      4  O   UNL     1       3.257   1.455   2.458  1.00  0.00    -0.481 OA
ATOM      5  H   UNL     1       3.225   2.077   3.271  1.00  0.00     0.296 HD
ENDBRANCH   2   4
ENDBRANCH   1   2
BRANCH   1   6
ATOM      6  C   UNL     1       6.500   1.764   0.757  1.00  0.00     0.047 C 
BRANCH   6   7
ATOM      7  C   UNL     1       7.116   1.009  -0.334  1.00  0.00    -0.047 A 
ATOM      8  C   UNL     1       6.386   0.095  -1.056  1.00  0.00     0.004 A 
ATOM      9  C   UNL     1       8.441   1.225  -0.635  1.00  0.00     0.004 A 
ATOM     10  C   UNL     1       7.039  -0.589  -2.085  1.00  0.00     0.000 A 
ATOM     11  C   UNL     1       9.085   0.549  -1.651  1.00  0.00     0.000 A 
ATOM     12  C   UNL     1       8.361  -0.370  -2.380  1.00  0.00     0.000 A 
ENDBRANCH   6   7
ENDBRANCH   1   6
TORSDOF 4
ENDMDL
MODEL 4
REMARK VINA RESULT:      -6.6      3.815      4.943
REMARK SMILES O=C(O)CCc1ccccc1
REMARK SMILES IDX 4 1 2 2 1 3 3 4 5 6 6 7 7 8 11 9 8 10 10 11 9 12
REMARK H PARENT 3 5
REMARK Flexibility Score: inf
ROOT
ATOM      1  C   UNL     1       5.525   2.914  -0.005  1.00  0.00     0.127 C 
ENDROOT
BRANCH   1   2
ATOM      2  C   UNL     1       6.265   3.860   0.863  1.00  0.00     0.303 C 
ATOM      3  O   UNL     1       6.107   3.860   2.109  1.00  0.00    -0.252 OA
BRANCH   2   4
ATOM      4  O   UNL     1       7.153   4.775   0.320  1.00  0.00    -0.481 OA
ATOM      5  H   UNL     1       7.510   5.534   0.907  1.00  0.00     0.296 HD
ENDBRANCH   2   4
ENDBRANCH   1   2
BRANCH   1   6
ATOM      6  C   UNL     1       4.938   1.841   0.862  1.00  0.00     0.047 C 
BRANCH   6   7
ATOM      7  C   UNL     1       5.718   0.605   0.889  1.00  0.00    -0.047 A 
ATOM      8  C   UNL     1       6.424   0.195  -0.218  1.00  0.00     0.004 A 
ATOM      9  C   UNL     1       5.742  -0.148   2.040  1.00  0.00     0.004 A 
ATOM     10  C   UNL     1       7.148  -0.996  -0.120  1.00  0.00     0.000 A 
ATOM     11  C   UNL     1       6.458  -1.325   2.135  1.00  0.00     0.000 A 
ATOM     12  C   UNL     1       7.167  -1.744   1.030  1.00  0.00     0.000 A 
ENDBRANCH   6   7
ENDBRANCH   1   6
TORSDOF 4
ENDMDL
MODEL 5
REMARK VINA RESULT:      -6.5      1.437      2.341
REMARK SMILES O=C(O)CCc1ccccc1
REMARK SMILES IDX 4 1 2 2 1 3 3 4 5 6 6 7 7 8 11 9 8 10 10 11 9 12
REMARK H PARENT 3 5
REMARK Flexibility Score: inf
ROOT
ATOM      1  C   UNL     1       8.180   0.969  -1.884  1.00  0.00     0.127 C 
ENDROOT
BRANCH   1   2
ATOM      2  C   UNL     1       9.391   0.121  -1.773  1.00  0.00     0.303 C 
ATOM      3  O   UNL     1       9.431  -1.026  -2.283  1.00  0.00    -0.252 OA
BRANCH   2   4
ATOM      4  O   UNL     1      10.515   0.573  -1.101  1.00  0.00    -0.481 OA
ATOM      5  H   UNL     1      10.431   1.372  -0.466  1.00  0.00     0.296 HD
ENDBRANCH   2   4
ENDBRANCH   1   2
BRANCH   1   6
ATOM      6  C   UNL     1       6.975   0.086  -1.763  1.00  0.00     0.047 C 
BRANCH   6   7
ATOM      7  C   UNL     1       6.394   0.054  -0.422  1.00  0.00    -0.047 A 
ATOM      8  C   UNL     1       6.541  -1.052   0.382  1.00  0.00     0.004 A 
ATOM      9  C   UNL     1       5.696   1.149   0.034  1.00  0.00     0.004 A 
ATOM     10  C   UNL     1       5.960  -1.012   1.652  1.00  0.00     0.000 A 
ATOM     11  C   UNL     1       5.123   1.187   1.289  1.00  0.00     0.000 A 
ATOM     12  C   UNL     1       5.264   0.082   2.101  1.00  0.00     0.000 A 
ENDBRANCH   6   7
ENDBRANCH   1   6
TORSDOF 4
ENDMDL
