@<TRIPOS>MOLECULE
/home/cewinharhar/GITHUB/reincatalyze/data/processed/docking_pred/2023_Apr_20-15:07/08a74a7e320cd1ecb560e86b752820c061dfae11_ligand_2.pdbqt
 12 12 0 0 0
SMALL
GASTEIGER

@<TRIPOS>ATOM
      1  C          5.0020    1.7910    0.7080 C.3     1  UNL1        0.1270
      2  C          4.4850    1.1080    1.9180 C.2     1  UNL1        0.3030
      3  O          5.1420    0.2000    2.4830 O.2     1  UNL1       -0.2520
      4  O          3.2570    1.4550    2.4580 O.3     1  UNL1       -0.4810
      5  H          3.2250    2.0770    3.2710 H       1  UNL1        0.2960
      6  C          6.5000    1.7640    0.7570 C.3     1  UNL1        0.0470
      7  C          7.1160    1.0090   -0.3340 C.2     1  UNL1       -0.0470
      8  C          6.3860    0.0950   -1.0560 C.2     1  UNL1        0.0040
      9  C          8.4410    1.2250   -0.6350 C.2     1  UNL1        0.0040
     10  C          7.0390   -0.5890   -2.0850 C.2     1  UNL1        0.0000
     11  C          9.0850    0.5490   -1.6510 C.2     1  UNL1        0.0000
     12  C          8.3610   -0.3700   -2.3800 C.2     1  UNL1        0.0000
@<TRIPOS>BOND
     1    12    10    2
     2    12    11    1
     3    10     8    1
     4    11     9    2
     5     8     7    2
     6     9     7    1
     7     7     6    1
     8     1     6    1
     9     1     2    1
    10     2     4    1
    11     2     3    2
    12     4     5    1
