@<TRIPOS>MOLECULE
/home/cewinharhar/GITHUB/reincatalyze/data/processed/docking_pred/2023_Apr_20-15:07/08d2e2d4a7c660d60546aaed77652d308bf13ce5_ligand_2.pdbqt
 12 12 0 0 0
SMALL
GASTEIGER

@<TRIPOS>ATOM
      1  C          5.3970    2.8790    0.0640 C.3     1  UNL1        0.1270
      2  C          6.1900    3.8380    0.8690 C.2     1  UNL1        0.3030
      3  O          6.1430    3.8290    2.1240 O.2     1  UNL1       -0.2520
      4  O          7.0070    4.7740    0.2560 O.3     1  UNL1       -0.4810
      5  H          6.8350    5.7710    0.4180 H       1  UNL1        0.2960
      6  C          4.8810    1.8110    0.9780 C.3     1  UNL1        0.0470
      7  C          5.6790    0.5860    0.9730 C.2     1  UNL1       -0.0470
      8  C          5.7980   -0.1810    2.1080 C.2     1  UNL1        0.0040
      9  C          6.3140    0.2040   -0.1860 C.2     1  UNL1        0.0040
     10  C          6.5760   -1.3390    2.0300 C.2     1  UNL1        0.0000
     11  C          7.0830   -0.9410   -0.2620 C.2     1  UNL1        0.0000
     12  C          7.2070   -1.7150    0.8710 C.2     1  UNL1        0.0000
@<TRIPOS>BOND
     1    11     9    1
     2    11    12    2
     3     9     7    2
     4     1     2    1
     5     1     6    1
     6     4     5    1
     7     4     2    1
     8     2     3    2
     9    12    10    1
    10     7     6    1
    11     7     8    1
    12    10     8    2
