@<TRIPOS>MOLECULE
/home/cewinharhar/GITHUB/reincatalyze/data/processed/docking_pred/2023_Apr_20-15:07/08d2e2d4a7c660d60546aaed77652d308bf13ce5_ligand_2.pdbqt
 12 12 0 0 0
SMALL
GASTEIGER

@<TRIPOS>ATOM
      1  C          8.4660   -0.6050   -2.1620 C.3     1  UNL1        0.1270
      2  C          8.4940   -1.8840   -2.9100 C.2     1  UNL1        0.3030
      3  O          9.5700   -2.5030   -3.1000 O.2     1  UNL1       -0.2520
      4  O          7.3290   -2.4340   -3.4210 O.3     1  UNL1       -0.4810
      5  H          7.3810   -3.2990   -3.9670 H       1  UNL1        0.2960
      6  C          7.0540   -0.1040   -2.1410 C.3     1  UNL1        0.0470
      7  C          6.5000    0.0560   -0.7970 C.2     1  UNL1       -0.0470
      8  C          5.8570    1.2170   -0.4350 C.2     1  UNL1        0.0040
      9  C          6.6260   -0.9720    0.1080 C.2     1  UNL1        0.0040
     10  C          5.3520    1.3000    0.8640 C.2     1  UNL1        0.0000
     11  C          6.1260   -0.8880    1.3920 C.2     1  UNL1        0.0000
     12  C          5.4810    0.2720    1.7630 C.2     1  UNL1        0.0000
@<TRIPOS>BOND
     1     5     4    1
     2     4     2    1
     3     3     2    2
     4     2     1    1
     5     1     6    1
     6     6     7    1
     7     7     8    2
     8     7     9    1
     9     8    10    1
    10     9    11    2
    11    10    12    2
    12    11    12    1
