@<TRIPOS>MOLECULE
/home/cewinharhar/GITHUB/reincatalyze/data/processed/docking_pred/2023_Apr_20-15:07/08d2e2d4a7c660d60546aaed77652d308bf13ce5_ligand_2.pdbqt
 12 12 0 0 0
SMALL
GASTEIGER

@<TRIPOS>ATOM
      1  C          8.4280   -0.5830   -2.1940 C.3     1  UNL1        0.1270
      2  C          8.4710   -1.8760   -2.9160 C.2     1  UNL1        0.3030
      3  O          9.5550   -2.4840   -3.0980 O.2     1  UNL1       -0.2520
      4  O          7.3120   -2.4520   -3.4120 O.3     1  UNL1       -0.4810
      5  H          7.0770   -2.3320   -4.4010 H       1  UNL1        0.2960
      6  C          7.0050   -0.1140   -2.1530 C.3     1  UNL1        0.0470
      7  C          6.4710    0.0490   -0.8020 C.2     1  UNL1       -0.0470
      8  C          6.6010   -0.9530    0.1310 C.2     1  UNL1        0.0040
      9  C          5.8350    1.2230   -0.4690 C.2     1  UNL1        0.0040
     10  C          6.0680   -0.7270    1.4020 C.2     1  UNL1        0.0000
     11  C          5.3090    1.4440    0.7880 C.2     1  UNL1        0.0000
     12  C          5.4340    0.4450    1.7290 C.2     1  UNL1        0.0000
@<TRIPOS>BOND
     1     5     4    1
     2     4     2    1
     3     3     2    2
     4     2     1    1
     5     1     6    1
     6     6     7    1
     7     7     9    2
     8     7     8    1
     9     9    11    1
    10     8    10    2
    11    11    12    2
    12    10    12    1
