@<TRIPOS>MOLECULE
/home/cewinharhar/GITHUB/reincatalyze/data/processed/docking_pred/2023_Apr_20-15:07/08d2e2d4a7c660d60546aaed77652d308bf13ce5_ligand_2.pdbqt
 12 12 0 0 0
SMALL
GASTEIGER

@<TRIPOS>ATOM
      1  C          8.2040    0.2850   -2.0850 C.3     1  UNL1        0.1270
      2  C          9.3790    0.3710   -1.1850 C.2     1  UNL1        0.3030
      3  O          9.4910   -0.3830   -0.1870 O.2     1  UNL1       -0.2520
      4  O         10.3880    1.2900   -1.4210 O.3     1  UNL1       -0.4810
      5  H         10.7490    1.8490   -0.6430 H       1  UNL1        0.2960
      6  C          7.1610   -0.5590   -1.4180 C.3     1  UNL1        0.0470
      7  C          6.3660    0.1560   -0.4210 C.2     1  UNL1       -0.0470
      8  C          5.8130    1.3810   -0.7090 C.2     1  UNL1        0.0040
      9  C          6.1740   -0.4130    0.8170 C.2     1  UNL1        0.0040
     10  C          5.0650    2.0060    0.2910 C.2     1  UNL1        0.0000
     11  C          5.4340    0.2060    1.8050 C.2     1  UNL1        0.0000
     12  C          4.8760    1.4350    1.5240 C.2     1  UNL1        0.0000
@<TRIPOS>BOND
     1     1     6    1
     2     1     2    1
     3     4     2    1
     4     4     5    1
     5     6     7    1
     6     2     3    2
     7     8     7    2
     8     8    10    1
     9     7     9    1
    10    10    12    2
    11     9    11    2
    12    12    11    1
