MODEL 1
REMARK VINA RESULT:      -7.4      0.000      0.000
REMARK SMILES O=C(O)CCc1ccccc1
REMARK SMILES IDX 4 1 2 2 1 3 3 4 5 6 6 7 7 8 11 9 8 10 10 11 9 12
REMARK H PARENT 3 5
REMARK Flexibility Score: inf
ROOT
ATOM      1  C   UNL     1       8.466  -0.605  -2.162  1.00  0.00     0.127 C 
ENDROOT
BRANCH   1   2
ATOM      2  C   UNL     1       8.494  -1.884  -2.910  1.00  0.00     0.303 C 
ATOM      3  O   UNL     1       9.570  -2.503  -3.100  1.00  0.00    -0.252 OA
BRANCH   2   4
ATOM      4  O   UNL     1       7.329  -2.434  -3.421  1.00  0.00    -0.481 OA
ATOM      5  H   UNL     1       7.381  -3.299  -3.967  1.00  0.00     0.296 HD
ENDBRANCH   2   4
ENDBRANCH   1   2
BRANCH   1   6
ATOM      6  C   UNL     1       7.054  -0.104  -2.141  1.00  0.00     0.047 C 
BRANCH   6   7
ATOM      7  C   UNL     1       6.500   0.056  -0.797  1.00  0.00    -0.047 A 
ATOM      8  C   UNL     1       5.857   1.217  -0.435  1.00  0.00     0.004 A 
ATOM      9  C   UNL     1       6.626  -0.972   0.108  1.00  0.00     0.004 A 
ATOM     10  C   UNL     1       5.352   1.300   0.864  1.00  0.00     0.000 A 
ATOM     11  C   UNL     1       6.126  -0.888   1.392  1.00  0.00     0.000 A 
ATOM     12  C   UNL     1       5.481   0.272   1.763  1.00  0.00     0.000 A 
ENDBRANCH   6   7
ENDBRANCH   1   6
TORSDOF 4
ENDMDL
MODEL 2
REMARK VINA RESULT:      -7.4      0.096      1.439
REMARK SMILES O=C(O)CCc1ccccc1
REMARK SMILES IDX 4 1 2 2 1 3 3 4 5 6 6 7 7 8 11 9 8 10 10 11 9 12
REMARK H PARENT 3 5
REMARK Flexibility Score: inf
ROOT
ATOM      1  C   UNL     1       8.428  -0.583  -2.194  1.00  0.00     0.127 C 
ENDROOT
BRANCH   1   2
ATOM      2  C   UNL     1       8.471  -1.876  -2.916  1.00  0.00     0.303 C 
ATOM      3  O   UNL     1       9.555  -2.484  -3.098  1.00  0.00    -0.252 OA
BRANCH   2   4
ATOM      4  O   UNL     1       7.312  -2.452  -3.412  1.00  0.00    -0.481 OA
ATOM      5  H   UNL     1       7.077  -2.332  -4.401  1.00  0.00     0.296 HD
ENDBRANCH   2   4
ENDBRANCH   1   2
BRANCH   1   6
ATOM      6  C   UNL     1       7.005  -0.114  -2.153  1.00  0.00     0.047 C 
BRANCH   6   7
ATOM      7  C   UNL     1       6.471   0.049  -0.802  1.00  0.00    -0.047 A 
ATOM      8  C   UNL     1       6.601  -0.953   0.131  1.00  0.00     0.004 A 
ATOM      9  C   UNL     1       5.835   1.223  -0.469  1.00  0.00     0.004 A 
ATOM     10  C   UNL     1       6.068  -0.727   1.402  1.00  0.00     0.000 A 
ATOM     11  C   UNL     1       5.309   1.444   0.788  1.00  0.00     0.000 A 
ATOM     12  C   UNL     1       5.434   0.445   1.729  1.00  0.00     0.000 A 
ENDBRANCH   6   7
ENDBRANCH   1   6
TORSDOF 4
ENDMDL
MODEL 3
REMARK VINA RESULT:      -6.8      3.340      5.013
REMARK SMILES O=C(O)CCc1ccccc1
REMARK SMILES IDX 4 1 2 2 1 3 3 4 5 6 6 7 7 8 11 9 8 10 10 11 9 12
REMARK H PARENT 3 5
REMARK Flexibility Score: inf
ROOT
ATOM      1  C   UNL     1       5.053   1.707   0.681  1.00  0.00     0.127 C 
ENDROOT
BRANCH   1   2
ATOM      2  C   UNL     1       4.608   1.025   1.919  1.00  0.00     0.303 C 
ATOM      3  O   UNL     1       5.329   0.165   2.484  1.00  0.00    -0.252 OA
BRANCH   2   4
ATOM      4  O   UNL     1       3.380   1.317   2.489  1.00  0.00    -0.481 OA
ATOM      5  H   UNL     1       2.575   0.720   2.280  1.00  0.00     0.296 HD
ENDBRANCH   2   4
ENDBRANCH   1   2
BRANCH   1   6
ATOM      6  C   UNL     1       6.550   1.778   0.695  1.00  0.00     0.047 C 
BRANCH   6   7
ATOM      7  C   UNL     1       7.191   1.017  -0.375  1.00  0.00    -0.047 A 
ATOM      8  C   UNL     1       8.524   1.196  -0.665  1.00  0.00     0.004 A 
ATOM      9  C   UNL     1       6.447   0.110  -1.094  1.00  0.00     0.004 A 
ATOM     10  C   UNL     1       9.071   0.434  -1.700  1.00  0.00     0.000 A 
ATOM     11  C   UNL     1       6.989  -0.642  -2.117  1.00  0.00     0.000 A 
ATOM     12  C   UNL     1       8.323  -0.468  -2.414  1.00  0.00     0.000 A 
ENDBRANCH   6   7
ENDBRANCH   1   6
TORSDOF 4
ENDMDL
MODEL 4
REMARK VINA RESULT:      -6.7      1.953      2.266
REMARK SMILES O=C(O)CCc1ccccc1
REMARK SMILES IDX 4 1 2 2 1 3 3 4 5 6 6 7 7 8 11 9 8 10 10 11 9 12
REMARK H PARENT 3 5
REMARK Flexibility Score: inf
ROOT
ATOM      1  C   UNL     1       8.204   0.285  -2.085  1.00  0.00     0.127 C 
ENDROOT
BRANCH   1   2
ATOM      2  C   UNL     1       9.379   0.371  -1.185  1.00  0.00     0.303 C 
ATOM      3  O   UNL     1       9.491  -0.383  -0.187  1.00  0.00    -0.252 OA
BRANCH   2   4
ATOM      4  O   UNL     1      10.388   1.290  -1.421  1.00  0.00    -0.481 OA
ATOM      5  H   UNL     1      10.749   1.849  -0.643  1.00  0.00     0.296 HD
ENDBRANCH   2   4
ENDBRANCH   1   2
BRANCH   1   6
ATOM      6  C   UNL     1       7.161  -0.559  -1.418  1.00  0.00     0.047 C 
BRANCH   6   7
ATOM      7  C   UNL     1       6.366   0.156  -0.421  1.00  0.00    -0.047 A 
ATOM      8  C   UNL     1       5.813   1.381  -0.709  1.00  0.00     0.004 A 
ATOM      9  C   UNL     1       6.174  -0.413   0.817  1.00  0.00     0.004 A 
ATOM     10  C   UNL     1       5.065   2.006   0.291  1.00  0.00     0.000 A 
ATOM     11  C   UNL     1       5.434   0.206   1.805  1.00  0.00     0.000 A 
ATOM     12  C   UNL     1       4.876   1.435   1.524  1.00  0.00     0.000 A 
ENDBRANCH   6   7
ENDBRANCH   1   6
TORSDOF 4
ENDMDL
MODEL 5
REMARK VINA RESULT:      -6.7      3.813      5.018
REMARK SMILES O=C(O)CCc1ccccc1
REMARK SMILES IDX 4 1 2 2 1 3 3 4 5 6 6 7 7 8 11 9 8 10 10 11 9 12
REMARK H PARENT 3 5
REMARK Flexibility Score: inf
ROOT
ATOM      1  C   UNL     1       5.397   2.879   0.064  1.00  0.00     0.127 C 
ENDROOT
BRANCH   1   2
ATOM      2  C   UNL     1       6.190   3.838   0.869  1.00  0.00     0.303 C 
ATOM      3  O   UNL     1       6.143   3.829   2.124  1.00  0.00    -0.252 OA
BRANCH   2   4
ATOM      4  O   UNL     1       7.007   4.774   0.256  1.00  0.00    -0.481 OA
ATOM      5  H   UNL     1       6.835   5.771   0.418  1.00  0.00     0.296 HD
ENDBRANCH   2   4
ENDBRANCH   1   2
BRANCH   1   6
ATOM      6  C   UNL     1       4.881   1.811   0.978  1.00  0.00     0.047 C 
BRANCH   6   7
ATOM      7  C   UNL     1       5.679   0.586   0.973  1.00  0.00    -0.047 A 
ATOM      8  C   UNL     1       5.798  -0.181   2.108  1.00  0.00     0.004 A 
ATOM      9  C   UNL     1       6.314   0.204  -0.186  1.00  0.00     0.004 A 
ATOM     10  C   UNL     1       6.576  -1.339   2.030  1.00  0.00     0.000 A 
ATOM     11  C   UNL     1       7.083  -0.941  -0.262  1.00  0.00     0.000 A 
ATOM     12  C   UNL     1       7.207  -1.715   0.871  1.00  0.00     0.000 A 
ENDBRANCH   6   7
ENDBRANCH   1   6
TORSDOF 4
ENDMDL
