@<TRIPOS>MOLECULE
/home/cewinharhar/GITHUB/reincatalyze/data/processed/docking_pred/2023_Apr_20-15:07/08e84468c81f1cd513554bb3b422d21af10d92b8_ligand_2.pdbqt
 12 12 0 0 0
SMALL
GASTEIGER

@<TRIPOS>ATOM
      1  C          8.3690   -1.0470   -1.6860 C.3     1  UNL1        0.1270
      2  C          8.3620   -2.0340   -2.7910 C.2     1  UNL1        0.3030
      3  O          7.2860   -2.4240   -3.3080 O.2     1  UNL1       -0.2520
      4  O          9.5470   -2.5550   -3.2860 O.3     1  UNL1       -0.4810
      5  H         10.1520   -3.1010   -2.6660 H       1  UNL1        0.2960
      6  C          7.3230   -1.4470   -0.6910 C.3     1  UNL1        0.0470
      7  C          6.5340   -0.3290   -0.1760 C.2     1  UNL1       -0.0470
      8  C          6.2300    0.7460   -0.9780 C.2     1  UNL1        0.0040
      9  C          6.0930   -0.3630    1.1270 C.2     1  UNL1        0.0040
     10  C          5.4720    1.7780   -0.4200 C.2     1  UNL1        0.0000
     11  C          5.3440    0.6580    1.6780 C.2     1  UNL1        0.0000
     12  C          5.0360    1.7390    0.8810 C.2     1  UNL1        0.0000
@<TRIPOS>BOND
     1     3     2    2
     2     4     2    1
     3     4     5    1
     4     2     1    1
     5     1     6    1
     6     8    10    1
     7     8     7    2
     8     6     7    1
     9    10    12    2
    10     7     9    1
    11    12    11    1
    12     9    11    2
