@<TRIPOS>MOLECULE
/home/cewinharhar/GITHUB/reincatalyze/data/processed/docking_pred/2023_Apr_20-15:07/08e84468c81f1cd513554bb3b422d21af10d92b8_ligand_2.pdbqt
 12 12 0 0 0
SMALL
GASTEIGER

@<TRIPOS>ATOM
      1  C          8.4160   -0.5340   -2.2880 C.3     1  UNL1        0.1270
      2  C          8.4980   -1.8730   -2.9190 C.2     1  UNL1        0.3030
      3  O          9.5940   -2.4780   -3.0210 O.2     1  UNL1       -0.2520
      4  O          7.3640   -2.4940   -3.4150 O.3     1  UNL1       -0.4810
      5  H          7.4620   -3.2120   -4.1380 H       1  UNL1        0.2960
      6  C          6.9740   -0.1320   -2.2240 C.3     1  UNL1        0.0470
      7  C          6.4620    0.0300   -0.8640 C.2     1  UNL1       -0.0470
      8  C          6.6070   -0.9730    0.0660 C.2     1  UNL1        0.0040
      9  C          5.8310    1.2030   -0.5200 C.2     1  UNL1        0.0040
     10  C          6.0940   -0.7500    1.3450 C.2     1  UNL1        0.0000
     11  C          5.3240    1.4220    0.7460 C.2     1  UNL1        0.0000
     12  C          5.4650    0.4220    1.6830 C.2     1  UNL1        0.0000
@<TRIPOS>BOND
     1     5     4    1
     2     4     2    1
     3     3     2    2
     4     2     1    1
     5     1     6    1
     6     6     7    1
     7     7     9    2
     8     7     8    1
     9     9    11    1
    10     8    10    2
    11    11    12    2
    12    10    12    1
