@<TRIPOS>MOLECULE
/home/cewinharhar/GITHUB/reincatalyze/data/processed/docking_pred/2023_Apr_20-15:07/08e84468c81f1cd513554bb3b422d21af10d92b8_ligand_2.pdbqt
 12 12 0 0 0
SMALL
GASTEIGER

@<TRIPOS>ATOM
      1  C          5.4160    2.9070    0.0040 C.3     1  UNL1        0.1270
      2  C          6.2140    3.8760    0.7910 C.2     1  UNL1        0.3030
      3  O          6.9090    4.7570    0.2260 O.2     1  UNL1       -0.2520
      4  O          6.2160    3.8370    2.1760 O.3     1  UNL1       -0.4810
      5  H          6.8220    3.1660    2.6570 H       1  UNL1        0.2960
      6  C          4.8810    1.8680    0.9420 C.3     1  UNL1        0.0470
      7  C          5.6700    0.6380    0.9790 C.2     1  UNL1       -0.0470
      8  C          5.7490   -0.1130    2.1290 C.2     1  UNL1        0.0040
      9  C          6.3370    0.2330   -0.1550 C.2     1  UNL1        0.0040
     10  C          6.5200   -1.2770    2.0920 C.2     1  UNL1        0.0000
     11  C          7.0990   -0.9170   -0.1890 C.2     1  UNL1        0.0000
     12  C          7.1840   -1.6750    0.9590 C.2     1  UNL1        0.0000
@<TRIPOS>BOND
     1    11     9    1
     2    11    12    2
     3     9     7    2
     4     1     2    1
     5     1     6    1
     6     3     2    2
     7     2     4    1
     8     6     7    1
     9    12    10    1
    10     7     8    1
    11    10     8    2
    12     4     5    1
