@<TRIPOS>MOLECULE
/home/cewinharhar/GITHUB/reincatalyze/data/processed/docking_pred/2023_Apr_20-15:07/08e84468c81f1cd513554bb3b422d21af10d92b8_ligand_2.pdbqt
 12 12 0 0 0
SMALL
GASTEIGER

@<TRIPOS>ATOM
      1  C          8.4040   -0.6270   -2.1320 C.3     1  UNL1        0.1270
      2  C          8.4630   -1.8990   -2.8910 C.2     1  UNL1        0.3030
      3  O          9.5520   -2.4960   -3.0780 O.2     1  UNL1       -0.2520
      4  O          7.3130   -2.4650   -3.4180 O.3     1  UNL1       -0.4810
      5  H          6.6590   -2.9430   -2.7930 H       1  UNL1        0.2960
      6  C          6.9810   -0.1590   -2.1090 C.3     1  UNL1        0.0470
      7  C          6.4440    0.0460   -0.7650 C.2     1  UNL1       -0.0470
      8  C          5.8250    1.2270   -0.4270 C.2     1  UNL1        0.0040
      9  C          6.5630   -0.9600    0.1660 C.2     1  UNL1        0.0040
     10  C          5.3350    1.3520    0.8750 C.2     1  UNL1        0.0000
     11  C          6.0790   -0.8340    1.4530 C.2     1  UNL1        0.0000
     12  C          5.4570    0.3460    1.7990 C.2     1  UNL1        0.0000
@<TRIPOS>BOND
     1     4     2    1
     2     4     5    1
     3     3     2    2
     4     2     1    1
     5     1     6    1
     6     6     7    1
     7     7     8    2
     8     7     9    1
     9     8    10    1
    10     9    11    2
    11    10    12    2
    12    11    12    1
