@<TRIPOS>MOLECULE
/home/cewinharhar/GITHUB/reincatalyze/data/processed/docking_pred/2023_Apr_20-15:07/090474ec6ad34f6c7e6271970b3dfdf762d08d64_ligand_2.pdbqt
 12 12 0 0 0
SMALL
GASTEIGER

@<TRIPOS>ATOM
      1  C          8.4540   -0.2070   -2.5520 C.3     1  UNL1        0.1270
      2  C          8.2770   -1.6260   -2.9410 C.2     1  UNL1        0.3030
      3  O          7.1410   -2.1610   -2.9510 O.2     1  UNL1       -0.2520
      4  O          9.3650   -2.4030   -3.3050 O.3     1  UNL1       -0.4810
      5  H          9.8300   -2.2260   -4.1990 H       1  UNL1        0.2960
      6  C          8.4480   -0.1240   -1.0560 C.3     1  UNL1        0.0470
      7  C          7.5380    0.8870   -0.5200 C.2     1  UNL1       -0.0470
      8  C          7.9960    1.8630    0.3340 C.2     1  UNL1        0.0040
      9  C          6.2110    0.8560   -0.8820 C.2     1  UNL1        0.0040
     10  C          7.0720    2.7980    0.8060 C.2     1  UNL1        0.0000
     11  C          5.2980    1.7800   -0.4140 C.2     1  UNL1        0.0000
     12  C          5.7490    2.7610    0.4430 C.2     1  UNL1        0.0000
@<TRIPOS>BOND
     1     5     4    1
     2     4     2    1
     3     3     2    2
     4     2     1    1
     5     1     6    1
     6     6     7    1
     7     9     7    2
     8     9    11    1
     9     7     8    1
    10    11    12    2
    11     8    10    2
    12    12    10    1
