@<TRIPOS>MOLECULE
/home/cewinharhar/GITHUB/reincatalyze/data/processed/docking_pred/2023_Apr_20-15:07/090474ec6ad34f6c7e6271970b3dfdf762d08d64_ligand_2.pdbqt
 12 12 0 0 0
SMALL
GASTEIGER

@<TRIPOS>ATOM
      1  C          8.4280   -0.5890   -2.1740 C.3     1  UNL1        0.1270
      2  C          8.3920   -1.8760   -2.9090 C.2     1  UNL1        0.3030
      3  O          7.3030   -2.4160   -3.2220 O.2     1  UNL1       -0.2520
      4  O          9.5650   -2.5200   -3.2700 O.3     1  UNL1       -0.4810
      5  H          9.8340   -3.3800   -2.7850 H       1  UNL1        0.2960
      6  C          7.0390   -0.0280   -2.1400 C.3     1  UNL1        0.0470
      7  C          6.4820    0.1000   -0.7950 C.2     1  UNL1       -0.0470
      8  C          6.6280   -0.9120    0.1260 C.2     1  UNL1        0.0040
      9  C          5.8090    1.2490   -0.4530 C.2     1  UNL1        0.0040
     10  C          6.0710   -0.7220    1.3920 C.2     1  UNL1        0.0000
     11  C          5.2590    1.4360    0.7990 C.2     1  UNL1        0.0000
     12  C          5.3990    0.4270    1.7270 C.2     1  UNL1        0.0000
@<TRIPOS>BOND
     1     4     2    1
     2     4     5    1
     3     3     2    2
     4     2     1    1
     5     1     6    1
     6     6     7    1
     7     7     9    2
     8     7     8    1
     9     9    11    1
    10     8    10    2
    11    11    12    2
    12    10    12    1
