@<TRIPOS>MOLECULE
/home/cewinharhar/GITHUB/reincatalyze/data/processed/docking_pred/2023_Apr_20-15:07/090474ec6ad34f6c7e6271970b3dfdf762d08d64_ligand_2.pdbqt
 12 12 0 0 0
SMALL
GASTEIGER

@<TRIPOS>ATOM
      1  C          4.9460    1.8720    0.7620 C.3     1  UNL1        0.1270
      2  C          4.4300    1.1370    1.9410 C.2     1  UNL1        0.3030
      3  O          5.0890    0.2060    2.4670 O.2     1  UNL1       -0.2520
      4  O          3.2020    1.4590    2.4970 O.3     1  UNL1       -0.4810
      5  H          2.4660    1.8420    1.8970 H       1  UNL1        0.2960
      6  C          6.4390    1.9390    0.8660 C.3     1  UNL1        0.0470
      7  C          7.1420    1.2440   -0.2110 C.2     1  UNL1       -0.0470
      8  C          6.4490    0.5040   -1.1410 C.2     1  UNL1        0.0040
      9  C          8.5120    1.3370   -0.2890 C.2     1  UNL1        0.0040
     10  C          7.1850   -0.1330   -2.1420 C.2     1  UNL1        0.0000
     11  C          9.2390    0.7070   -1.2790 C.2     1  UNL1        0.0000
     12  C          8.5510   -0.0370   -2.2140 C.2     1  UNL1        0.0000
@<TRIPOS>BOND
     1    12    10    2
     2    12    11    1
     3    10     8    1
     4    11     9    2
     5     8     7    2
     6     9     7    1
     7     7     6    1
     8     1     6    1
     9     1     2    1
    10     5     4    1
    11     2     3    2
    12     2     4    1
