MODEL 1
REMARK VINA RESULT:      -7.0      0.000      0.000
REMARK SMILES O=C(O)CCc1ccccc1
REMARK SMILES IDX 4 1 2 2 1 3 3 4 5 6 6 7 7 8 11 9 8 10 10 11 9 12
REMARK H PARENT 3 5
REMARK Flexibility Score: inf
ROOT
ATOM      1  C   UNL     1       8.428  -0.589  -2.174  1.00  0.00     0.127 C 
ENDROOT
BRANCH   1   2
ATOM      2  C   UNL     1       8.392  -1.876  -2.909  1.00  0.00     0.303 C 
ATOM      3  O   UNL     1       7.303  -2.416  -3.222  1.00  0.00    -0.252 OA
BRANCH   2   4
ATOM      4  O   UNL     1       9.565  -2.520  -3.270  1.00  0.00    -0.481 OA
ATOM      5  H   UNL     1       9.834  -3.380  -2.785  1.00  0.00     0.296 HD
ENDBRANCH   2   4
ENDBRANCH   1   2
BRANCH   1   6
ATOM      6  C   UNL     1       7.039  -0.028  -2.140  1.00  0.00     0.047 C 
BRANCH   6   7
ATOM      7  C   UNL     1       6.482   0.100  -0.795  1.00  0.00    -0.047 A 
ATOM      8  C   UNL     1       6.628  -0.912   0.126  1.00  0.00     0.004 A 
ATOM      9  C   UNL     1       5.809   1.249  -0.453  1.00  0.00     0.004 A 
ATOM     10  C   UNL     1       6.071  -0.722   1.392  1.00  0.00     0.000 A 
ATOM     11  C   UNL     1       5.259   1.436   0.799  1.00  0.00     0.000 A 
ATOM     12  C   UNL     1       5.399   0.427   1.727  1.00  0.00     0.000 A 
ENDBRANCH   6   7
ENDBRANCH   1   6
TORSDOF 4
ENDMDL
MODEL 2
REMARK VINA RESULT:      -6.7      1.371      2.197
REMARK SMILES O=C(O)CCc1ccccc1
REMARK SMILES IDX 4 1 2 2 1 3 3 4 5 6 6 7 7 8 11 9 8 10 10 11 9 12
REMARK H PARENT 3 5
REMARK Flexibility Score: inf
ROOT
ATOM      1  C   UNL     1       8.066  -0.294  -2.449  1.00  0.00     0.127 C 
ENDROOT
BRANCH   1   2
ATOM      2  C   UNL     1       8.345  -1.669  -2.929  1.00  0.00     0.303 C 
ATOM      3  O   UNL     1       9.506  -2.146  -2.899  1.00  0.00    -0.252 OA
BRANCH   2   4
ATOM      4  O   UNL     1       7.327  -2.467  -3.425  1.00  0.00    -0.481 OA
ATOM      5  H   UNL     1       6.692  -2.087  -4.133  1.00  0.00     0.296 HD
ENDBRANCH   2   4
ENDBRANCH   1   2
BRANCH   1   6
ATOM      6  C   UNL     1       6.912  -0.353  -1.495  1.00  0.00     0.047 C 
BRANCH   6   7
ATOM      7  C   UNL     1       6.730   0.864  -0.707  1.00  0.00    -0.047 A 
ATOM      8  C   UNL     1       5.492   1.454  -0.599  1.00  0.00     0.004 A 
ATOM      9  C   UNL     1       7.815   1.417  -0.066  1.00  0.00     0.004 A 
ATOM     10  C   UNL     1       5.392   2.614   0.171  1.00  0.00     0.000 A 
ATOM     11  C   UNL     1       7.714   2.565   0.695  1.00  0.00     0.000 A 
ATOM     12  C   UNL     1       6.477   3.162   0.807  1.00  0.00     0.000 A 
ENDBRANCH   6   7
ENDBRANCH   1   6
TORSDOF 4
ENDMDL
MODEL 3
REMARK VINA RESULT:      -6.4      1.476      1.864
REMARK SMILES O=C(O)CCc1ccccc1
REMARK SMILES IDX 4 1 2 2 1 3 3 4 5 6 6 7 7 8 11 9 8 10 10 11 9 12
REMARK H PARENT 3 5
REMARK Flexibility Score: inf
ROOT
ATOM      1  C   UNL     1       8.454  -0.207  -2.552  1.00  0.00     0.127 C 
ENDROOT
BRANCH   1   2
ATOM      2  C   UNL     1       8.277  -1.626  -2.941  1.00  0.00     0.303 C 
ATOM      3  O   UNL     1       7.141  -2.161  -2.951  1.00  0.00    -0.252 OA
BRANCH   2   4
ATOM      4  O   UNL     1       9.365  -2.403  -3.305  1.00  0.00    -0.481 OA
ATOM      5  H   UNL     1       9.830  -2.226  -4.199  1.00  0.00     0.296 HD
ENDBRANCH   2   4
ENDBRANCH   1   2
BRANCH   1   6
ATOM      6  C   UNL     1       8.448  -0.124  -1.056  1.00  0.00     0.047 C 
BRANCH   6   7
ATOM      7  C   UNL     1       7.538   0.887  -0.520  1.00  0.00    -0.047 A 
ATOM      8  C   UNL     1       7.996   1.863   0.334  1.00  0.00     0.004 A 
ATOM      9  C   UNL     1       6.211   0.856  -0.882  1.00  0.00     0.004 A 
ATOM     10  C   UNL     1       7.072   2.798   0.806  1.00  0.00     0.000 A 
ATOM     11  C   UNL     1       5.298   1.780  -0.414  1.00  0.00     0.000 A 
ATOM     12  C   UNL     1       5.749   2.761   0.443  1.00  0.00     0.000 A 
ENDBRANCH   6   7
ENDBRANCH   1   6
TORSDOF 4
ENDMDL
MODEL 4
REMARK VINA RESULT:      -6.4      3.353      5.184
REMARK SMILES O=C(O)CCc1ccccc1
REMARK SMILES IDX 4 1 2 2 1 3 3 4 5 6 6 7 7 8 11 9 8 10 10 11 9 12
REMARK H PARENT 3 5
REMARK Flexibility Score: inf
ROOT
ATOM      1  C   UNL     1       4.946   1.872   0.762  1.00  0.00     0.127 C 
ENDROOT
BRANCH   1   2
ATOM      2  C   UNL     1       4.430   1.137   1.941  1.00  0.00     0.303 C 
ATOM      3  O   UNL     1       5.089   0.206   2.467  1.00  0.00    -0.252 OA
BRANCH   2   4
ATOM      4  O   UNL     1       3.202   1.459   2.497  1.00  0.00    -0.481 OA
ATOM      5  H   UNL     1       2.466   1.842   1.897  1.00  0.00     0.296 HD
ENDBRANCH   2   4
ENDBRANCH   1   2
BRANCH   1   6
ATOM      6  C   UNL     1       6.439   1.939   0.866  1.00  0.00     0.047 C 
BRANCH   6   7
ATOM      7  C   UNL     1       7.142   1.244  -0.211  1.00  0.00    -0.047 A 
ATOM      8  C   UNL     1       6.449   0.504  -1.141  1.00  0.00     0.004 A 
ATOM      9  C   UNL     1       8.512   1.337  -0.289  1.00  0.00     0.004 A 
ATOM     10  C   UNL     1       7.185  -0.133  -2.142  1.00  0.00     0.000 A 
ATOM     11  C   UNL     1       9.239   0.707  -1.279  1.00  0.00     0.000 A 
ATOM     12  C   UNL     1       8.551  -0.037  -2.214  1.00  0.00     0.000 A 
ENDBRANCH   6   7
ENDBRANCH   1   6
TORSDOF 4
ENDMDL
MODEL 5
REMARK VINA RESULT:      -6.4      2.485      3.289
REMARK SMILES O=C(O)CCc1ccccc1
REMARK SMILES IDX 4 1 2 2 1 3 3 4 5 6 6 7 7 8 11 9 8 10 10 11 9 12
REMARK H PARENT 3 5
REMARK Flexibility Score: inf
ROOT
ATOM      1  C   UNL     1       8.187  -1.046   0.127  1.00  0.00     0.127 C 
ENDROOT
BRANCH   1   2
ATOM      2  C   UNL     1       7.901  -2.337   0.795  1.00  0.00     0.303 C 
ATOM      3  O   UNL     1       8.709  -3.297   0.729  1.00  0.00    -0.252 OA
BRANCH   2   4
ATOM      4  O   UNL     1       6.730  -2.522   1.513  1.00  0.00    -0.481 OA
ATOM      5  H   UNL     1       6.526  -1.906   2.304  1.00  0.00     0.296 HD
ENDBRANCH   2   4
ENDBRANCH   1   2
BRANCH   1   6
ATOM      6  C   UNL     1       6.903  -0.509  -0.429  1.00  0.00     0.047 C 
BRANCH   6   7
ATOM      7  C   UNL     1       6.647   0.889  -0.088  1.00  0.00    -0.047 A 
ATOM      8  C   UNL     1       5.421   1.461  -0.340  1.00  0.00     0.004 A 
ATOM      9  C   UNL     1       7.648   1.633   0.492  1.00  0.00     0.004 A 
ATOM     10  C   UNL     1       5.247   2.802   0.012  1.00  0.00     0.000 A 
ATOM     11  C   UNL     1       7.473   2.958   0.840  1.00  0.00     0.000 A 
ATOM     12  C   UNL     1       6.249   3.539   0.590  1.00  0.00     0.000 A 
ENDBRANCH   6   7
ENDBRANCH   1   6
TORSDOF 4
ENDMDL
