@<TRIPOS>MOLECULE
/home/cewinharhar/GITHUB/reincatalyze/data/processed/docking_pred/2023_Apr_20-15:07/090474ec6ad34f6c7e6271970b3dfdf762d08d64_ligand_2.pdbqt
 12 12 0 0 0
SMALL
GASTEIGER

@<TRIPOS>ATOM
      1  C          8.1870   -1.0460    0.1270 C.3     1  UNL1        0.1270
      2  C          7.9010   -2.3370    0.7950 C.2     1  UNL1        0.3030
      3  O          8.7090   -3.2970    0.7290 O.2     1  UNL1       -0.2520
      4  O          6.7300   -2.5220    1.5130 O.3     1  UNL1       -0.4810
      5  H          6.5260   -1.9060    2.3040 H       1  UNL1        0.2960
      6  C          6.9030   -0.5090   -0.4290 C.3     1  UNL1        0.0470
      7  C          6.6470    0.8890   -0.0880 C.2     1  UNL1       -0.0470
      8  C          5.4210    1.4610   -0.3400 C.2     1  UNL1        0.0040
      9  C          7.6480    1.6330    0.4920 C.2     1  UNL1        0.0040
     10  C          5.2470    2.8020    0.0120 C.2     1  UNL1        0.0000
     11  C          7.4730    2.9580    0.8400 C.2     1  UNL1        0.0000
     12  C          6.2490    3.5390    0.5900 C.2     1  UNL1        0.0000
@<TRIPOS>BOND
     1     6     7    1
     2     6     1    1
     3     8     7    2
     4     8    10    1
     5     7     9    1
     6    10    12    2
     7     1     2    1
     8     9    11    2
     9    12    11    1
    10     3     2    2
    11     2     4    1
    12     4     5    1
