@<TRIPOS>MOLECULE
/home/cewinharhar/GITHUB/reincatalyze/data/processed/docking_pred/2023_Apr_20-15:07/090474ec6ad34f6c7e6271970b3dfdf762d08d64_ligand_2.pdbqt
 12 12 0 0 0
SMALL
GASTEIGER

@<TRIPOS>ATOM
      1  C          8.0660   -0.2940   -2.4490 C.3     1  UNL1        0.1270
      2  C          8.3450   -1.6690   -2.9290 C.2     1  UNL1        0.3030
      3  O          9.5060   -2.1460   -2.8990 O.2     1  UNL1       -0.2520
      4  O          7.3270   -2.4670   -3.4250 O.3     1  UNL1       -0.4810
      5  H          6.6920   -2.0870   -4.1330 H       1  UNL1        0.2960
      6  C          6.9120   -0.3530   -1.4950 C.3     1  UNL1        0.0470
      7  C          6.7300    0.8640   -0.7070 C.2     1  UNL1       -0.0470
      8  C          5.4920    1.4540   -0.5990 C.2     1  UNL1        0.0040
      9  C          7.8150    1.4170   -0.0660 C.2     1  UNL1        0.0040
     10  C          5.3920    2.6140    0.1710 C.2     1  UNL1        0.0000
     11  C          7.7140    2.5650    0.6950 C.2     1  UNL1        0.0000
     12  C          6.4770    3.1620    0.8070 C.2     1  UNL1        0.0000
@<TRIPOS>BOND
     1     5     4    1
     2     4     2    1
     3     2     3    2
     4     2     1    1
     5     1     6    1
     6     6     7    1
     7     7     8    2
     8     7     9    1
     9     8    10    1
    10     9    11    2
    11    10    12    2
    12    11    12    1
