@<TRIPOS>MOLECULE
/home/cewinharhar/GITHUB/reincatalyze/data/processed/docking_pred/2023_Apr_20-15:07/09c0e00cbaa22f287e1ef7d21129eabb08ea3244_ligand_2.pdbqt
 12 12 0 0 0
SMALL
GASTEIGER

@<TRIPOS>ATOM
      1  C          8.5420   -0.6810   -2.0940 C.3     1  UNL1        0.1270
      2  C          8.5350   -1.9470   -2.8650 C.2     1  UNL1        0.3030
      3  O          9.5940   -2.5890   -3.0710 O.2     1  UNL1       -0.2520
      4  O          7.3550   -2.4570   -3.3820 O.3     1  UNL1       -0.4810
      5  H          6.4660   -2.0160   -3.1290 H       1  UNL1        0.2960
      6  C          7.1580   -0.1090   -2.1160 C.3     1  UNL1        0.0470
      7  C          6.5580    0.0470   -0.7930 C.2     1  UNL1       -0.0470
      8  C          6.6740   -0.9440    0.1530 C.2     1  UNL1        0.0040
      9  C          5.8720    1.2030   -0.4980 C.2     1  UNL1        0.0040
     10  C          6.0760   -0.7270    1.3970 C.2     1  UNL1        0.0000
     11  C          5.2820    1.4160    0.7310 C.2     1  UNL1        0.0000
     12  C          5.3930    0.4280    1.6850 C.2     1  UNL1        0.0000
@<TRIPOS>BOND
     1     4     5    1
     2     4     2    1
     3     3     2    2
     4     2     1    1
     5     6     1    1
     6     6     7    1
     7     7     9    2
     8     7     8    1
     9     9    11    1
    10     8    10    2
    11    11    12    2
    12    10    12    1
