@<TRIPOS>MOLECULE
/home/cewinharhar/GITHUB/reincatalyze/data/processed/docking_pred/2023_Apr_20-15:07/09c0e00cbaa22f287e1ef7d21129eabb08ea3244_ligand_2.pdbqt
 12 12 0 0 0
SMALL
GASTEIGER

@<TRIPOS>ATOM
      1  C          4.9910    1.7670    0.6890 C.3     1  UNL1        0.1270
      2  C          4.4750    1.1060    1.9110 C.2     1  UNL1        0.3030
      3  O          5.1290    0.2030    2.4890 O.2     1  UNL1       -0.2520
      4  O          3.2510    1.4690    2.4510 O.3     1  UNL1       -0.4810
      5  H          2.7070    2.2120    2.0050 H       1  UNL1        0.2960
      6  C          6.4880    1.7560    0.7450 C.3     1  UNL1        0.0470
      7  C          7.1190    1.0190   -0.3490 C.2     1  UNL1       -0.0470
      8  C          6.3970    0.1220   -1.1000 C.2     1  UNL1        0.0040
      9  C          8.4490    1.2350   -0.6240 C.2     1  UNL1        0.0040
     10  C          7.0630   -0.5460   -2.1300 C.2     1  UNL1        0.0000
     11  C          9.1070    0.5740   -1.6420 C.2     1  UNL1        0.0000
     12  C          8.3910   -0.3280   -2.4000 C.2     1  UNL1        0.0000
@<TRIPOS>BOND
     1    12    10    2
     2    12    11    1
     3    10     8    1
     4    11     9    2
     5     8     7    2
     6     9     7    1
     7     7     6    1
     8     1     6    1
     9     1     2    1
    10     2     4    1
    11     2     3    2
    12     5     4    1
