@<TRIPOS>MOLECULE
/home/cewinharhar/GITHUB/reincatalyze/data/processed/docking_pred/2023_Apr_20-15:07/09c0e00cbaa22f287e1ef7d21129eabb08ea3244_ligand_2.pdbqt
 12 12 0 0 0
SMALL
GASTEIGER

@<TRIPOS>ATOM
      1  C          8.3970    0.3150   -2.1210 C.3     1  UNL1        0.1270
      2  C          9.6000   -0.1010   -1.3620 C.2     1  UNL1        0.3030
      3  O          9.7850   -1.3010   -1.0420 O.2     1  UNL1       -0.2520
      4  O         10.5550    0.8280   -0.9810 O.3     1  UNL1       -0.4810
      5  H         10.9390    0.7920   -0.0330 H       1  UNL1        0.2960
      6  C          7.2570   -0.5690   -1.7180 C.3     1  UNL1        0.0470
      7  C          6.5400   -0.1100   -0.5290 C.2     1  UNL1       -0.0470
      8  C          5.9310    1.1240   -0.5080 C.2     1  UNL1        0.0040
      9  C          6.4780   -0.9270    0.5750 C.2     1  UNL1        0.0040
     10  C          5.2630    1.4970    0.6600 C.2     1  UNL1        0.0000
     11  C          5.8180   -0.5560    1.7300 C.2     1  UNL1        0.0000
     12  C          5.2050    0.6780    1.7590 C.2     1  UNL1        0.0000
@<TRIPOS>BOND
     1     1     6    1
     2     1     2    1
     3     6     7    1
     4     2     3    2
     5     2     4    1
     6     4     5    1
     7     7     8    2
     8     7     9    1
     9     8    10    1
    10     9    11    2
    11    10    12    2
    12    11    12    1
