@<TRIPOS>MOLECULE
/home/cewinharhar/GITHUB/reincatalyze/data/processed/docking_pred/2023_Apr_20-15:07/09c0e00cbaa22f287e1ef7d21129eabb08ea3244_ligand_2.pdbqt
 12 12 0 0 0
SMALL
GASTEIGER

@<TRIPOS>ATOM
      1  C          8.3330    0.3520   -2.1540 C.3     1  UNL1        0.1270
      2  C          9.5550   -0.1000   -1.4490 C.2     1  UNL1        0.3030
      3  O          9.7470   -1.3140   -1.1930 O.2     1  UNL1       -0.2520
      4  O         10.5230    0.8090   -1.0510 O.3     1  UNL1       -0.4810
      5  H         11.1750    0.5520   -0.3050 H       1  UNL1        0.2960
      6  C          7.1960   -0.5320   -1.7400 C.3     1  UNL1        0.0470
      7  C          6.5000   -0.0810   -0.5360 C.2     1  UNL1       -0.0470
      8  C          6.4500   -0.8760    0.5860 C.2     1  UNL1        0.0040
      9  C          5.8940    1.1530   -0.5330 C.2     1  UNL1        0.0040
     10  C          5.7690   -0.3810    1.7010 C.2     1  UNL1        0.0000
     11  C          5.2210    1.6410    0.5690 C.2     1  UNL1        0.0000
     12  C          5.1650    0.8510    1.6970 C.2     1  UNL1        0.0000
@<TRIPOS>BOND
     1     1     6    1
     2     1     2    1
     3     6     7    1
     4     2     3    2
     5     2     4    1
     6     4     5    1
     7     7     9    2
     8     7     8    1
     9     9    11    1
    10    11    12    2
    11     8    10    2
    12    12    10    1
