MODEL 1
REMARK VINA RESULT:      -7.0      0.000      0.000
REMARK SMILES O=C(O)CCc1ccccc1
REMARK SMILES IDX 4 1 2 2 1 3 3 4 5 6 6 7 7 8 11 9 8 10 10 11 9 12
REMARK H PARENT 3 5
REMARK Flexibility Score: inf
ROOT
ATOM      1  C   UNL     1       8.542  -0.681  -2.094  1.00  0.00     0.127 C 
ENDROOT
BRANCH   1   2
ATOM      2  C   UNL     1       8.535  -1.947  -2.865  1.00  0.00     0.303 C 
ATOM      3  O   UNL     1       9.594  -2.589  -3.071  1.00  0.00    -0.252 OA
BRANCH   2   4
ATOM      4  O   UNL     1       7.355  -2.457  -3.382  1.00  0.00    -0.481 OA
ATOM      5  H   UNL     1       6.466  -2.016  -3.129  1.00  0.00     0.296 HD
ENDBRANCH   2   4
ENDBRANCH   1   2
BRANCH   1   6
ATOM      6  C   UNL     1       7.158  -0.109  -2.116  1.00  0.00     0.047 C 
BRANCH   6   7
ATOM      7  C   UNL     1       6.558   0.047  -0.793  1.00  0.00    -0.047 A 
ATOM      8  C   UNL     1       6.674  -0.944   0.153  1.00  0.00     0.004 A 
ATOM      9  C   UNL     1       5.872   1.203  -0.498  1.00  0.00     0.004 A 
ATOM     10  C   UNL     1       6.076  -0.727   1.397  1.00  0.00     0.000 A 
ATOM     11  C   UNL     1       5.282   1.416   0.731  1.00  0.00     0.000 A 
ATOM     12  C   UNL     1       5.393   0.428   1.685  1.00  0.00     0.000 A 
ENDBRANCH   6   7
ENDBRANCH   1   6
TORSDOF 4
ENDMDL
MODEL 2
REMARK VINA RESULT:      -7.0      0.082      1.439
REMARK SMILES O=C(O)CCc1ccccc1
REMARK SMILES IDX 4 1 2 2 1 3 3 4 5 6 6 7 7 8 11 9 8 10 10 11 9 12
REMARK H PARENT 3 5
REMARK Flexibility Score: inf
ROOT
ATOM      1  C   UNL     1       8.568  -0.809  -1.991  1.00  0.00     0.127 C 
ENDROOT
BRANCH   1   2
ATOM      2  C   UNL     1       8.546  -2.019  -2.846  1.00  0.00     0.303 C 
ATOM      3  O   UNL     1       9.607  -2.615  -3.158  1.00  0.00    -0.252 OA
BRANCH   2   4
ATOM      4  O   UNL     1       7.350  -2.528  -3.326  1.00  0.00    -0.481 OA
ATOM      5  H   UNL     1       6.759  -1.941  -3.921  1.00  0.00     0.296 HD
ENDBRANCH   2   4
ENDBRANCH   1   2
BRANCH   1   6
ATOM      6  C   UNL     1       7.226  -0.148  -2.077  1.00  0.00     0.047 C 
BRANCH   6   7
ATOM      7  C   UNL     1       6.582   0.059  -0.781  1.00  0.00    -0.047 A 
ATOM      8  C   UNL     1       5.885   1.216  -0.518  1.00  0.00     0.004 A 
ATOM      9  C   UNL     1       6.678  -0.920   0.181  1.00  0.00     0.004 A 
ATOM     10  C   UNL     1       5.295   1.346   0.741  1.00  0.00     0.000 A 
ATOM     11  C   UNL     1       6.093  -0.790   1.425  1.00  0.00     0.000 A 
ATOM     12  C   UNL     1       5.394   0.366   1.696  1.00  0.00     0.000 A 
ENDBRANCH   6   7
ENDBRANCH   1   6
TORSDOF 4
ENDMDL
MODEL 3
REMARK VINA RESULT:      -6.6      3.372      5.078
REMARK SMILES O=C(O)CCc1ccccc1
REMARK SMILES IDX 4 1 2 2 1 3 3 4 5 6 6 7 7 8 11 9 8 10 10 11 9 12
REMARK H PARENT 3 5
REMARK Flexibility Score: inf
ROOT
ATOM      1  C   UNL     1       4.991   1.767   0.689  1.00  0.00     0.127 C 
ENDROOT
BRANCH   1   2
ATOM      2  C   UNL     1       4.475   1.106   1.911  1.00  0.00     0.303 C 
ATOM      3  O   UNL     1       5.129   0.203   2.489  1.00  0.00    -0.252 OA
BRANCH   2   4
ATOM      4  O   UNL     1       3.251   1.469   2.451  1.00  0.00    -0.481 OA
ATOM      5  H   UNL     1       2.707   2.212   2.005  1.00  0.00     0.296 HD
ENDBRANCH   2   4
ENDBRANCH   1   2
BRANCH   1   6
ATOM      6  C   UNL     1       6.488   1.756   0.745  1.00  0.00     0.047 C 
BRANCH   6   7
ATOM      7  C   UNL     1       7.119   1.019  -0.349  1.00  0.00    -0.047 A 
ATOM      8  C   UNL     1       6.397   0.122  -1.100  1.00  0.00     0.004 A 
ATOM      9  C   UNL     1       8.449   1.235  -0.624  1.00  0.00     0.004 A 
ATOM     10  C   UNL     1       7.063  -0.546  -2.130  1.00  0.00     0.000 A 
ATOM     11  C   UNL     1       9.107   0.574  -1.642  1.00  0.00     0.000 A 
ATOM     12  C   UNL     1       8.391  -0.328  -2.400  1.00  0.00     0.000 A 
ENDBRANCH   6   7
ENDBRANCH   1   6
TORSDOF 4
ENDMDL
MODEL 4
REMARK VINA RESULT:      -6.6      1.532      1.911
REMARK SMILES O=C(O)CCc1ccccc1
REMARK SMILES IDX 4 1 2 2 1 3 3 4 5 6 6 7 7 8 11 9 8 10 10 11 9 12
REMARK H PARENT 3 5
REMARK Flexibility Score: inf
ROOT
ATOM      1  C   UNL     1       8.333   0.352  -2.154  1.00  0.00     0.127 C 
ENDROOT
BRANCH   1   2
ATOM      2  C   UNL     1       9.555  -0.100  -1.449  1.00  0.00     0.303 C 
ATOM      3  O   UNL     1       9.747  -1.314  -1.193  1.00  0.00    -0.252 OA
BRANCH   2   4
ATOM      4  O   UNL     1      10.523   0.809  -1.051  1.00  0.00    -0.481 OA
ATOM      5  H   UNL     1      11.175   0.552  -0.305  1.00  0.00     0.296 HD
ENDBRANCH   2   4
ENDBRANCH   1   2
BRANCH   1   6
ATOM      6  C   UNL     1       7.196  -0.532  -1.740  1.00  0.00     0.047 C 
BRANCH   6   7
ATOM      7  C   UNL     1       6.500  -0.081  -0.536  1.00  0.00    -0.047 A 
ATOM      8  C   UNL     1       6.450  -0.876   0.586  1.00  0.00     0.004 A 
ATOM      9  C   UNL     1       5.894   1.153  -0.533  1.00  0.00     0.004 A 
ATOM     10  C   UNL     1       5.769  -0.381   1.701  1.00  0.00     0.000 A 
ATOM     11  C   UNL     1       5.221   1.641   0.569  1.00  0.00     0.000 A 
ATOM     12  C   UNL     1       5.165   0.851   1.697  1.00  0.00     0.000 A 
ENDBRANCH   6   7
ENDBRANCH   1   6
TORSDOF 4
ENDMDL
MODEL 5
REMARK VINA RESULT:      -6.6      1.561      2.406
REMARK SMILES O=C(O)CCc1ccccc1
REMARK SMILES IDX 4 1 2 2 1 3 3 4 5 6 6 7 7 8 11 9 8 10 10 11 9 12
REMARK H PARENT 3 5
REMARK Flexibility Score: inf
ROOT
ATOM      1  C   UNL     1       8.397   0.315  -2.121  1.00  0.00     0.127 C 
ENDROOT
BRANCH   1   2
ATOM      2  C   UNL     1       9.600  -0.101  -1.362  1.00  0.00     0.303 C 
ATOM      3  O   UNL     1       9.785  -1.301  -1.042  1.00  0.00    -0.252 OA
BRANCH   2   4
ATOM      4  O   UNL     1      10.555   0.828  -0.981  1.00  0.00    -0.481 OA
ATOM      5  H   UNL     1      10.939   0.792  -0.033  1.00  0.00     0.296 HD
ENDBRANCH   2   4
ENDBRANCH   1   2
BRANCH   1   6
ATOM      6  C   UNL     1       7.257  -0.569  -1.718  1.00  0.00     0.047 C 
BRANCH   6   7
ATOM      7  C   UNL     1       6.540  -0.110  -0.529  1.00  0.00    -0.047 A 
ATOM      8  C   UNL     1       5.931   1.124  -0.508  1.00  0.00     0.004 A 
ATOM      9  C   UNL     1       6.478  -0.927   0.575  1.00  0.00     0.004 A 
ATOM     10  C   UNL     1       5.263   1.497   0.660  1.00  0.00     0.000 A 
ATOM     11  C   UNL     1       5.818  -0.556   1.730  1.00  0.00     0.000 A 
ATOM     12  C   UNL     1       5.205   0.678   1.759  1.00  0.00     0.000 A 
ENDBRANCH   6   7
ENDBRANCH   1   6
TORSDOF 4
ENDMDL
