@<TRIPOS>MOLECULE
/home/cewinharhar/GITHUB/reincatalyze/data/processed/docking_pred/2023_Apr_20-15:07/09c0e00cbaa22f287e1ef7d21129eabb08ea3244_ligand_2.pdbqt
 12 12 0 0 0
SMALL
GASTEIGER

@<TRIPOS>ATOM
      1  C          8.5680   -0.8090   -1.9910 C.3     1  UNL1        0.1270
      2  C          8.5460   -2.0190   -2.8460 C.2     1  UNL1        0.3030
      3  O          9.6070   -2.6150   -3.1580 O.2     1  UNL1       -0.2520
      4  O          7.3500   -2.5280   -3.3260 O.3     1  UNL1       -0.4810
      5  H          6.7590   -1.9410   -3.9210 H       1  UNL1        0.2960
      6  C          7.2260   -0.1480   -2.0770 C.3     1  UNL1        0.0470
      7  C          6.5820    0.0590   -0.7810 C.2     1  UNL1       -0.0470
      8  C          5.8850    1.2160   -0.5180 C.2     1  UNL1        0.0040
      9  C          6.6780   -0.9200    0.1810 C.2     1  UNL1        0.0040
     10  C          5.2950    1.3460    0.7410 C.2     1  UNL1        0.0000
     11  C          6.0930   -0.7900    1.4250 C.2     1  UNL1        0.0000
     12  C          5.3940    0.3660    1.6960 C.2     1  UNL1        0.0000
@<TRIPOS>BOND
     1     5     4    1
     2     4     2    1
     3     3     2    2
     4     2     1    1
     5     6     1    1
     6     6     7    1
     7     7     8    2
     8     7     9    1
     9     8    10    1
    10     9    11    2
    11    10    12    2
    12    11    12    1
