@<TRIPOS>MOLECULE
/home/cewinharhar/GITHUB/reincatalyze/data/processed/docking_pred/2023_Apr_20-15:07/0bc78f1071f374665515956646110ea4a2a90639_ligand_2.pdbqt
 12 12 0 0 0
SMALL
GASTEIGER

@<TRIPOS>ATOM
      1  C          5.4120    2.8970    0.0170 C.3     1  UNL1        0.1270
      2  C          6.2070    3.8700    0.8040 C.2     1  UNL1        0.3030
      3  O          6.8870    4.7620    0.2390 O.2     1  UNL1       -0.2520
      4  O          6.2210    3.8200    2.1880 O.3     1  UNL1       -0.4810
      5  H          6.6120    2.9980    2.6560 H       1  UNL1        0.2960
      6  C          4.8780    1.8580    0.9540 C.3     1  UNL1        0.0470
      7  C          5.6540    0.6190    0.9730 C.2     1  UNL1       -0.0470
      8  C          5.7290   -0.1470    2.1130 C.2     1  UNL1        0.0040
      9  C          6.3110    0.2210   -0.1680 C.2     1  UNL1        0.0040
     10  C          6.4880   -1.3180    2.0590 C.2     1  UNL1        0.0000
     11  C          7.0610   -0.9370   -0.2210 C.2     1  UNL1        0.0000
     12  C          7.1420   -1.7090    0.9180 C.2     1  UNL1        0.0000
@<TRIPOS>BOND
     1    11     9    1
     2    11    12    2
     3     9     7    2
     4     1     2    1
     5     1     6    1
     6     3     2    2
     7     2     4    1
     8    12    10    1
     9     6     7    1
    10     7     8    1
    11    10     8    2
    12     4     5    1
