@<TRIPOS>MOLECULE
/home/cewinharhar/GITHUB/reincatalyze/data/processed/docking_pred/2023_Apr_20-15:07/0bc78f1071f374665515956646110ea4a2a90639_ligand_2.pdbqt
 12 12 0 0 0
SMALL
GASTEIGER

@<TRIPOS>ATOM
      1  C          8.3960   -0.6230   -2.1060 C.3     1  UNL1        0.1270
      2  C          8.3650   -1.8820   -2.8890 C.2     1  UNL1        0.3030
      3  O          7.2780   -2.3990   -3.2460 O.2     1  UNL1       -0.2520
      4  O          9.5390   -2.5230   -3.2480 O.3     1  UNL1       -0.4810
      5  H         10.0210   -2.2430   -4.1070 H       1  UNL1        0.2960
      6  C          7.0120   -0.0490   -2.0840 C.3     1  UNL1        0.0470
      7  C          6.4540    0.1040   -0.7420 C.2     1  UNL1       -0.0470
      8  C          5.7980    1.2580   -0.3810 C.2     1  UNL1        0.0040
      9  C          6.5890   -0.9230    0.1630 C.2     1  UNL1        0.0040
     10  C          5.2890    1.3350    0.9180 C.2     1  UNL1        0.0000
     11  C          6.0850   -0.8450    1.4460 C.2     1  UNL1        0.0000
     12  C          5.4270    0.3070    1.8160 C.2     1  UNL1        0.0000
@<TRIPOS>BOND
     1     5     4    1
     2     4     2    1
     3     3     2    2
     4     2     1    1
     5     1     6    1
     6     6     7    1
     7     7     8    2
     8     7     9    1
     9     8    10    1
    10     9    11    2
    11    10    12    2
    12    11    12    1
