@<TRIPOS>MOLECULE
/home/cewinharhar/GITHUB/reincatalyze/data/processed/docking_pred/2023_Apr_20-15:07/0bc78f1071f374665515956646110ea4a2a90639_ligand_2.pdbqt
 12 12 0 0 0
SMALL
GASTEIGER

@<TRIPOS>ATOM
      1  C          8.2600    0.2170   -2.2400 C.3     1  UNL1        0.1270
      2  C          9.3750    0.3410   -1.2730 C.2     1  UNL1        0.3030
      3  O          9.4460   -0.4020   -0.2630 O.2     1  UNL1       -0.2520
      4  O         10.3740    1.2830   -1.4570 O.3     1  UNL1       -0.4810
      5  H         11.2930    0.9810   -1.7920 H       1  UNL1        0.2960
      6  C          7.1320   -0.5060   -1.5690 C.3     1  UNL1        0.0470
      7  C          6.3430    0.3310   -0.6660 C.2     1  UNL1       -0.0470
      8  C          5.8270    1.5330   -1.0920 C.2     1  UNL1        0.0040
      9  C          6.1180   -0.0980    0.6210 C.2     1  UNL1        0.0040
     10  C          5.0820    2.2790   -0.1770 C.2     1  UNL1        0.0000
     11  C          5.3810    0.6410    1.5250 C.2     1  UNL1        0.0000
     12  C          4.8610    1.8470    1.1070 C.2     1  UNL1        0.0000
@<TRIPOS>BOND
     1     1     6    1
     2     1     2    1
     3     5     4    1
     4     6     7    1
     5     4     2    1
     6     2     3    2
     7     8     7    2
     8     8    10    1
     9     7     9    1
    10    10    12    2
    11     9    11    2
    12    12    11    1
