@<TRIPOS>MOLECULE
/home/cewinharhar/GITHUB/reincatalyze/data/processed/docking_pred/2023_Apr_20-15:07/0bc78f1071f374665515956646110ea4a2a90639_ligand_2.pdbqt
 12 12 0 0 0
SMALL
GASTEIGER

@<TRIPOS>ATOM
      1  C          4.9900    1.7600    0.6870 C.3     1  UNL1        0.1270
      2  C          4.4740    1.1060    1.9130 C.2     1  UNL1        0.3030
      3  O          5.1300    0.2060    2.4940 O.2     1  UNL1       -0.2520
      4  O          3.2510    1.4710    2.4510 O.3     1  UNL1       -0.4810
      5  H          2.9220    1.0100    3.3040 H       1  UNL1        0.2960
      6  C          6.4870    1.7510    0.7420 C.3     1  UNL1        0.0470
      7  C          7.1170    1.0020   -0.3430 C.2     1  UNL1       -0.0470
      8  C          6.4020    0.0770   -1.0680 C.2     1  UNL1        0.0040
      9  C          8.4410    1.2330   -0.6380 C.2     1  UNL1        0.0040
     10  C          7.0680   -0.6010   -2.0910 C.2     1  UNL1        0.0000
     11  C          9.0990    0.5610   -1.6490 C.2     1  UNL1        0.0000
     12  C          8.3890   -0.3670   -2.3790 C.2     1  UNL1        0.0000
@<TRIPOS>BOND
     1    12    10    2
     2    12    11    1
     3    10     8    1
     4    11     9    2
     5     8     7    2
     6     9     7    1
     7     7     6    1
     8     1     6    1
     9     1     2    1
    10     2     4    1
    11     2     3    2
    12     4     5    1
