@<TRIPOS>MOLECULE
/home/cewinharhar/GITHUB/reincatalyze/data/processed/docking_pred/2023_Apr_20-15:07/0bc78f1071f374665515956646110ea4a2a90639_ligand_2.pdbqt
 12 12 0 0 0
SMALL
GASTEIGER

@<TRIPOS>ATOM
      1  C          8.4610   -0.5860   -2.1860 C.3     1  UNL1        0.1270
      2  C          8.4790   -1.8810   -2.9070 C.2     1  UNL1        0.3030
      3  O          9.5490   -2.5160   -3.0760 O.2     1  UNL1       -0.2520
      4  O          7.3120   -2.4260   -3.4170 O.3     1  UNL1       -0.4810
      5  H          6.9190   -3.2650   -2.9810 H       1  UNL1        0.2960
      6  C          7.0450   -0.0980   -2.1310 C.3     1  UNL1        0.0470
      7  C          6.5090    0.0200   -0.7760 C.2     1  UNL1       -0.0470
      8  C          6.6300   -1.0170    0.1200 C.2     1  UNL1        0.0040
      9  C          5.8810    1.1850   -0.4010 C.2     1  UNL1        0.0040
     10  C          6.0950   -0.8350    1.3980 C.2     1  UNL1        0.0000
     11  C          5.3530    1.3630    0.8620 C.2     1  UNL1        0.0000
     12  C          5.4690    0.3290    1.7660 C.2     1  UNL1        0.0000
@<TRIPOS>BOND
     1     4     5    1
     2     4     2    1
     3     3     2    2
     4     2     1    1
     5     1     6    1
     6     6     7    1
     7     7     9    2
     8     7     8    1
     9     9    11    1
    10     8    10    2
    11    11    12    2
    12    10    12    1
