@<TRIPOS>MOLECULE
/home/cewinharhar/GITHUB/reincatalyze/data/processed/docking_pred/2023_Apr_20-15:07/0c0669ff2f8dcec30d9aff9f411b757c1c1ac29f_ligand_2.pdbqt
 12 12 0 0 0
SMALL
GASTEIGER

@<TRIPOS>ATOM
      1  C          8.2340    0.2540   -2.2580 C.3     1  UNL1        0.1270
      2  C          9.3510    0.3500   -1.2880 C.2     1  UNL1        0.3030
      3  O          9.4220   -0.4210   -0.2990 O.2     1  UNL1       -0.2520
      4  O         10.3500    1.2960   -1.4470 O.3     1  UNL1       -0.4810
      5  H         10.4480    1.7750   -2.3470 H       1  UNL1        0.2960
      6  C          7.1100   -0.4930   -1.6090 C.3     1  UNL1        0.0470
      7  C          6.3350    0.3050   -0.6600 C.2     1  UNL1       -0.0470
      8  C          5.8030    1.5180   -1.0310 C.2     1  UNL1        0.0040
      9  C          6.1390   -0.1720    0.6150 C.2     1  UNL1        0.0040
     10  C          5.0730    2.2260   -0.0740 C.2     1  UNL1        0.0000
     11  C          5.4170    0.5300    1.5610 C.2     1  UNL1        0.0000
     12  C          4.8820    1.7460    1.1970 C.2     1  UNL1        0.0000
@<TRIPOS>BOND
     1     5     4    1
     2     1     6    1
     3     1     2    1
     4     6     7    1
     5     4     2    1
     6     2     3    2
     7     8     7    2
     8     8    10    1
     9     7     9    1
    10    10    12    2
    11     9    11    2
    12    12    11    1
