@<TRIPOS>MOLECULE
/home/cewinharhar/GITHUB/reincatalyze/data/processed/docking_pred/2023_Apr_20-15:07/0c0669ff2f8dcec30d9aff9f411b757c1c1ac29f_ligand_2.pdbqt
 12 12 0 0 0
SMALL
GASTEIGER

@<TRIPOS>ATOM
      1  C          5.3590    2.9670    0.1470 C.3     1  UNL1        0.1270
      2  C          6.2480    3.8890    0.8920 C.2     1  UNL1        0.3030
      3  O          6.9120    4.7740    0.2990 O.2     1  UNL1       -0.2520
      4  O          6.3700    3.7990    2.2690 O.3     1  UNL1       -0.4810
      5  H          6.8100    2.9710    2.6800 H       1  UNL1        0.2960
      6  C          5.2760    1.6770    0.9050 C.3     1  UNL1        0.0470
      7  C          6.0070    0.5740    0.2840 C.2     1  UNL1       -0.0470
      8  C          6.4030   -0.5140    1.0280 C.2     1  UNL1        0.0040
      9  C          6.2950    0.6310   -1.0600 C.2     1  UNL1        0.0040
     10  C          7.0960   -1.5310    0.3680 C.2     1  UNL1        0.0000
     11  C          6.9800   -0.3750   -1.7100 C.2     1  UNL1        0.0000
     12  C          7.3820   -1.4680   -0.9720 C.2     1  UNL1        0.0000
@<TRIPOS>BOND
     1    11     9    1
     2    11    12    2
     3     9     7    2
     4    12    10    1
     5     1     2    1
     6     1     6    1
     7     7     6    1
     8     7     8    1
     9     3     2    2
    10    10     8    2
    11     2     4    1
    12     4     5    1
