@<TRIPOS>MOLECULE
/home/cewinharhar/GITHUB/reincatalyze/data/processed/docking_pred/2023_Apr_20-15:07/0c0669ff2f8dcec30d9aff9f411b757c1c1ac29f_ligand_2.pdbqt
 12 12 0 0 0
SMALL
GASTEIGER

@<TRIPOS>ATOM
      1  C          4.9920    1.7860    0.6990 C.3     1  UNL1        0.1270
      2  C          4.4800    1.1140    1.9160 C.2     1  UNL1        0.3030
      3  O          5.1400    0.2100    2.4870 O.2     1  UNL1       -0.2520
      4  O          3.2540    1.4650    2.4590 O.3     1  UNL1       -0.4810
      5  H          3.1070    2.4240    2.7830 H       1  UNL1        0.2960
      6  C          6.4900    1.7780    0.7520 C.3     1  UNL1        0.0470
      7  C          7.1190    1.0280   -0.3340 C.2     1  UNL1       -0.0470
      8  C          6.3990    0.1110   -1.0650 C.2     1  UNL1        0.0040
      9  C          8.4450    1.2490   -0.6220 C.2     1  UNL1        0.0040
     10  C          7.0640   -0.5690   -2.0880 C.2     1  UNL1        0.0000
     11  C          9.1010    0.5760   -1.6340 C.2     1  UNL1        0.0000
     12  C          8.3880   -0.3440   -2.3700 C.2     1  UNL1        0.0000
@<TRIPOS>BOND
     1    12    10    2
     2    12    11    1
     3    10     8    1
     4    11     9    2
     5     8     7    2
     6     9     7    1
     7     7     6    1
     8     1     6    1
     9     1     2    1
    10     2     4    1
    11     2     3    2
    12     4     5    1
