@<TRIPOS>MOLECULE
/home/cewinharhar/GITHUB/reincatalyze/data/processed/docking_pred/2023_Apr_20-15:07/0c0669ff2f8dcec30d9aff9f411b757c1c1ac29f_ligand_2.pdbqt
 12 12 0 0 0
SMALL
GASTEIGER

@<TRIPOS>ATOM
      1  C          8.4570   -0.6450   -2.1130 C.3     1  UNL1        0.1270
      2  C          8.4690   -1.9050   -2.8930 C.2     1  UNL1        0.3030
      3  O          9.5360   -2.5350   -3.0950 O.2     1  UNL1       -0.2520
      4  O          7.2980   -2.4230   -3.4240 O.3     1  UNL1       -0.4810
      5  H          7.0440   -2.1990   -4.3900 H       1  UNL1        0.2960
      6  C          7.0550   -0.1160   -2.0940 C.3     1  UNL1        0.0470
      7  C          6.4940    0.0340   -0.7530 C.2     1  UNL1       -0.0470
      8  C          6.6170   -0.9720    0.1770 C.2     1  UNL1        0.0040
      9  C          5.8390    1.1990   -0.4260 C.2     1  UNL1        0.0040
     10  C          6.0570   -0.7590    1.4390 C.2     1  UNL1        0.0000
     11  C          5.2850    1.4070    0.8220 C.2     1  UNL1        0.0000
     12  C          5.4030    0.4040    1.7600 C.2     1  UNL1        0.0000
@<TRIPOS>BOND
     1     5     4    1
     2     4     2    1
     3     3     2    2
     4     2     1    1
     5     1     6    1
     6     6     7    1
     7     7     9    2
     8     7     8    1
     9     9    11    1
    10     8    10    2
    11    11    12    2
    12    10    12    1
