MODEL 1
REMARK VINA RESULT:      -7.4      0.000      0.000
REMARK SMILES O=C(O)CCc1ccccc1
REMARK SMILES IDX 4 1 2 2 1 3 3 4 5 6 6 7 7 8 11 9 8 10 10 11 9 12
REMARK H PARENT 3 5
REMARK Flexibility Score: inf
ROOT
ATOM      1  C   UNL     1       8.457  -0.645  -2.113  1.00  0.00     0.127 C 
ENDROOT
BRANCH   1   2
ATOM      2  C   UNL     1       8.469  -1.905  -2.893  1.00  0.00     0.303 C 
ATOM      3  O   UNL     1       9.536  -2.535  -3.095  1.00  0.00    -0.252 OA
BRANCH   2   4
ATOM      4  O   UNL     1       7.298  -2.423  -3.424  1.00  0.00    -0.481 OA
ATOM      5  H   UNL     1       7.044  -2.199  -4.390  1.00  0.00     0.296 HD
ENDBRANCH   2   4
ENDBRANCH   1   2
BRANCH   1   6
ATOM      6  C   UNL     1       7.055  -0.116  -2.094  1.00  0.00     0.047 C 
BRANCH   6   7
ATOM      7  C   UNL     1       6.494   0.034  -0.753  1.00  0.00    -0.047 A 
ATOM      8  C   UNL     1       6.617  -0.972   0.177  1.00  0.00     0.004 A 
ATOM      9  C   UNL     1       5.839   1.199  -0.426  1.00  0.00     0.004 A 
ATOM     10  C   UNL     1       6.057  -0.759   1.439  1.00  0.00     0.000 A 
ATOM     11  C   UNL     1       5.285   1.407   0.822  1.00  0.00     0.000 A 
ATOM     12  C   UNL     1       5.403   0.404   1.760  1.00  0.00     0.000 A 
ENDBRANCH   6   7
ENDBRANCH   1   6
TORSDOF 4
ENDMDL
MODEL 2
REMARK VINA RESULT:      -7.3      0.108      1.731
REMARK SMILES O=C(O)CCc1ccccc1
REMARK SMILES IDX 4 1 2 2 1 3 3 4 5 6 6 7 7 8 11 9 8 10 10 11 9 12
REMARK H PARENT 3 5
REMARK Flexibility Score: inf
ROOT
ATOM      1  C   UNL     1       8.418  -0.630  -2.099  1.00  0.00     0.127 C 
ENDROOT
BRANCH   1   2
ATOM      2  C   UNL     1       8.386  -1.888  -2.881  1.00  0.00     0.303 C 
ATOM      3  O   UNL     1       7.298  -2.413  -3.225  1.00  0.00    -0.252 OA
BRANCH   2   4
ATOM      4  O   UNL     1       9.560  -2.521  -3.255  1.00  0.00    -0.481 OA
ATOM      5  H   UNL     1      10.046  -2.216  -4.104  1.00  0.00     0.296 HD
ENDBRANCH   2   4
ENDBRANCH   1   2
BRANCH   1   6
ATOM      6  C   UNL     1       7.036  -0.051  -2.083  1.00  0.00     0.047 C 
BRANCH   6   7
ATOM      7  C   UNL     1       6.472   0.103  -0.743  1.00  0.00    -0.047 A 
ATOM      8  C   UNL     1       5.820   1.260  -0.383  1.00  0.00     0.004 A 
ATOM      9  C   UNL     1       6.597  -0.926   0.161  1.00  0.00     0.004 A 
ATOM     10  C   UNL     1       5.305   1.337   0.913  1.00  0.00     0.000 A 
ATOM     11  C   UNL     1       6.088  -0.848   1.442  1.00  0.00     0.000 A 
ATOM     12  C   UNL     1       5.434   0.307   1.811  1.00  0.00     0.000 A 
ENDBRANCH   6   7
ENDBRANCH   1   6
TORSDOF 4
ENDMDL
MODEL 3
REMARK VINA RESULT:      -6.8      3.375      5.068
REMARK SMILES O=C(O)CCc1ccccc1
REMARK SMILES IDX 4 1 2 2 1 3 3 4 5 6 6 7 7 8 11 9 8 10 10 11 9 12
REMARK H PARENT 3 5
REMARK Flexibility Score: inf
ROOT
ATOM      1  C   UNL     1       4.992   1.786   0.699  1.00  0.00     0.127 C 
ENDROOT
BRANCH   1   2
ATOM      2  C   UNL     1       4.480   1.114   1.916  1.00  0.00     0.303 C 
ATOM      3  O   UNL     1       5.140   0.210   2.487  1.00  0.00    -0.252 OA
BRANCH   2   4
ATOM      4  O   UNL     1       3.254   1.465   2.459  1.00  0.00    -0.481 OA
ATOM      5  H   UNL     1       3.107   2.424   2.783  1.00  0.00     0.296 HD
ENDBRANCH   2   4
ENDBRANCH   1   2
BRANCH   1   6
ATOM      6  C   UNL     1       6.490   1.778   0.752  1.00  0.00     0.047 C 
BRANCH   6   7
ATOM      7  C   UNL     1       7.119   1.028  -0.334  1.00  0.00    -0.047 A 
ATOM      8  C   UNL     1       6.399   0.111  -1.065  1.00  0.00     0.004 A 
ATOM      9  C   UNL     1       8.445   1.249  -0.622  1.00  0.00     0.004 A 
ATOM     10  C   UNL     1       7.064  -0.569  -2.088  1.00  0.00     0.000 A 
ATOM     11  C   UNL     1       9.101   0.576  -1.634  1.00  0.00     0.000 A 
ATOM     12  C   UNL     1       8.388  -0.344  -2.370  1.00  0.00     0.000 A 
ENDBRANCH   6   7
ENDBRANCH   1   6
TORSDOF 4
ENDMDL
MODEL 4
REMARK VINA RESULT:      -6.6      1.909      2.636
REMARK SMILES O=C(O)CCc1ccccc1
REMARK SMILES IDX 4 1 2 2 1 3 3 4 5 6 6 7 7 8 11 9 8 10 10 11 9 12
REMARK H PARENT 3 5
REMARK Flexibility Score: inf
ROOT
ATOM      1  C   UNL     1       8.234   0.254  -2.258  1.00  0.00     0.127 C 
ENDROOT
BRANCH   1   2
ATOM      2  C   UNL     1       9.351   0.350  -1.288  1.00  0.00     0.303 C 
ATOM      3  O   UNL     1       9.422  -0.421  -0.299  1.00  0.00    -0.252 OA
BRANCH   2   4
ATOM      4  O   UNL     1      10.350   1.296  -1.447  1.00  0.00    -0.481 OA
ATOM      5  H   UNL     1      10.448   1.775  -2.347  1.00  0.00     0.296 HD
ENDBRANCH   2   4
ENDBRANCH   1   2
BRANCH   1   6
ATOM      6  C   UNL     1       7.110  -0.493  -1.609  1.00  0.00     0.047 C 
BRANCH   6   7
ATOM      7  C   UNL     1       6.335   0.305  -0.660  1.00  0.00    -0.047 A 
ATOM      8  C   UNL     1       5.803   1.518  -1.031  1.00  0.00     0.004 A 
ATOM      9  C   UNL     1       6.139  -0.172   0.615  1.00  0.00     0.004 A 
ATOM     10  C   UNL     1       5.073   2.226  -0.074  1.00  0.00     0.000 A 
ATOM     11  C   UNL     1       5.417   0.530   1.561  1.00  0.00     0.000 A 
ATOM     12  C   UNL     1       4.882   1.746   1.197  1.00  0.00     0.000 A 
ENDBRANCH   6   7
ENDBRANCH   1   6
TORSDOF 4
ENDMDL
MODEL 5
REMARK VINA RESULT:      -6.6      3.724      4.986
REMARK SMILES O=C(O)CCc1ccccc1
REMARK SMILES IDX 4 1 2 2 1 3 3 4 5 6 6 7 7 8 11 9 8 10 10 11 9 12
REMARK H PARENT 3 5
REMARK Flexibility Score: inf
ROOT
ATOM      1  C   UNL     1       5.359   2.967   0.147  1.00  0.00     0.127 C 
ENDROOT
BRANCH   1   2
ATOM      2  C   UNL     1       6.248   3.889   0.892  1.00  0.00     0.303 C 
ATOM      3  O   UNL     1       6.912   4.774   0.299  1.00  0.00    -0.252 OA
BRANCH   2   4
ATOM      4  O   UNL     1       6.370   3.799   2.269  1.00  0.00    -0.481 OA
ATOM      5  H   UNL     1       6.810   2.971   2.680  1.00  0.00     0.296 HD
ENDBRANCH   2   4
ENDBRANCH   1   2
BRANCH   1   6
ATOM      6  C   UNL     1       5.276   1.677   0.905  1.00  0.00     0.047 C 
BRANCH   6   7
ATOM      7  C   UNL     1       6.007   0.574   0.284  1.00  0.00    -0.047 A 
ATOM      8  C   UNL     1       6.403  -0.514   1.028  1.00  0.00     0.004 A 
ATOM      9  C   UNL     1       6.295   0.631  -1.060  1.00  0.00     0.004 A 
ATOM     10  C   UNL     1       7.096  -1.531   0.368  1.00  0.00     0.000 A 
ATOM     11  C   UNL     1       6.980  -0.375  -1.710  1.00  0.00     0.000 A 
ATOM     12  C   UNL     1       7.382  -1.468  -0.972  1.00  0.00     0.000 A 
ENDBRANCH   6   7
ENDBRANCH   1   6
TORSDOF 4
ENDMDL
