@<TRIPOS>MOLECULE
/home/cewinharhar/GITHUB/reincatalyze/data/processed/docking_pred/2023_Apr_20-15:07/0df60b8790b800bbceb9ee276e91b409308b6f54_ligand_2.pdbqt
 12 12 0 0 0
SMALL
GASTEIGER

@<TRIPOS>ATOM
      1  C          8.4250   -0.6190   -2.1370 C.3     1  UNL1        0.1270
      2  C          8.4680   -1.8900   -2.8980 C.2     1  UNL1        0.3030
      3  O          9.5520   -2.4920   -3.0980 O.2     1  UNL1       -0.2520
      4  O          7.3100   -2.4510   -3.4100 O.3     1  UNL1       -0.4810
      5  H          6.4400   -2.3840   -2.8740 H       1  UNL1        0.2960
      6  C          7.0080   -0.1330   -2.1140 C.3     1  UNL1        0.0470
      7  C          6.4650    0.0520   -0.7690 C.2     1  UNL1       -0.0470
      8  C          5.8380    1.2260   -0.4190 C.2     1  UNL1        0.0040
      9  C          6.5850   -0.9650    0.1490 C.2     1  UNL1        0.0040
     10  C          5.3420    1.3330    0.8820 C.2     1  UNL1        0.0000
     11  C          6.0950   -0.8570    1.4350 C.2     1  UNL1        0.0000
     12  C          5.4660    0.3150    1.7940 C.2     1  UNL1        0.0000
@<TRIPOS>BOND
     1     4     2    1
     2     4     5    1
     3     3     2    2
     4     2     1    1
     5     1     6    1
     6     6     7    1
     7     7     8    2
     8     7     9    1
     9     8    10    1
    10     9    11    2
    11    10    12    2
    12    11    12    1
