MODEL 1
REMARK VINA RESULT:      -7.3      0.000      0.000
REMARK SMILES O=C(O)CCc1ccccc1
REMARK SMILES IDX 4 1 2 2 1 3 3 4 5 6 6 7 7 8 11 9 8 10 10 11 9 12
REMARK H PARENT 3 5
REMARK Flexibility Score: inf
ROOT
ATOM      1  C   UNL     1       8.425  -0.619  -2.137  1.00  0.00     0.127 C 
ENDROOT
BRANCH   1   2
ATOM      2  C   UNL     1       8.468  -1.890  -2.898  1.00  0.00     0.303 C 
ATOM      3  O   UNL     1       9.552  -2.492  -3.098  1.00  0.00    -0.252 OA
BRANCH   2   4
ATOM      4  O   UNL     1       7.310  -2.451  -3.410  1.00  0.00    -0.481 OA
ATOM      5  H   UNL     1       6.440  -2.384  -2.874  1.00  0.00     0.296 HD
ENDBRANCH   2   4
ENDBRANCH   1   2
BRANCH   1   6
ATOM      6  C   UNL     1       7.008  -0.133  -2.114  1.00  0.00     0.047 C 
BRANCH   6   7
ATOM      7  C   UNL     1       6.465   0.052  -0.769  1.00  0.00    -0.047 A 
ATOM      8  C   UNL     1       5.838   1.226  -0.419  1.00  0.00     0.004 A 
ATOM      9  C   UNL     1       6.585  -0.965   0.149  1.00  0.00     0.004 A 
ATOM     10  C   UNL     1       5.342   1.333   0.882  1.00  0.00     0.000 A 
ATOM     11  C   UNL     1       6.095  -0.857   1.435  1.00  0.00     0.000 A 
ATOM     12  C   UNL     1       5.466   0.315   1.794  1.00  0.00     0.000 A 
ENDBRANCH   6   7
ENDBRANCH   1   6
TORSDOF 4
ENDMDL
MODEL 2
REMARK VINA RESULT:      -7.3      0.104      1.731
REMARK SMILES O=C(O)CCc1ccccc1
REMARK SMILES IDX 4 1 2 2 1 3 3 4 5 6 6 7 7 8 11 9 8 10 10 11 9 12
REMARK H PARENT 3 5
REMARK Flexibility Score: inf
ROOT
ATOM      1  C   UNL     1       8.413  -0.598  -2.165  1.00  0.00     0.127 C 
ENDROOT
BRANCH   1   2
ATOM      2  C   UNL     1       8.389  -1.888  -2.895  1.00  0.00     0.303 C 
ATOM      3  O   UNL     1       7.305  -2.425  -3.232  1.00  0.00    -0.252 OA
BRANCH   2   4
ATOM      4  O   UNL     1       9.566  -2.538  -3.227  1.00  0.00    -0.481 OA
ATOM      5  H   UNL     1       9.618  -3.064  -4.104  1.00  0.00     0.296 HD
ENDBRANCH   2   4
ENDBRANCH   1   2
BRANCH   1   6
ATOM      6  C   UNL     1       7.018  -0.055  -2.123  1.00  0.00     0.047 C 
BRANCH   6   7
ATOM      7  C   UNL     1       6.473   0.082  -0.773  1.00  0.00    -0.047 A 
ATOM      8  C   UNL     1       6.612  -0.931   0.147  1.00  0.00     0.004 A 
ATOM      9  C   UNL     1       5.818   1.241  -0.427  1.00  0.00     0.004 A 
ATOM     10  C   UNL     1       6.069  -0.732   1.418  1.00  0.00     0.000 A 
ATOM     11  C   UNL     1       5.281   1.437   0.829  1.00  0.00     0.000 A 
ATOM     12  C   UNL     1       5.415   0.426   1.757  1.00  0.00     0.000 A 
ENDBRANCH   6   7
ENDBRANCH   1   6
TORSDOF 4
ENDMDL
MODEL 3
REMARK VINA RESULT:      -6.9      0.665      1.873
REMARK SMILES O=C(O)CCc1ccccc1
REMARK SMILES IDX 4 1 2 2 1 3 3 4 5 6 6 7 7 8 11 9 8 10 10 11 9 12
REMARK H PARENT 3 5
REMARK Flexibility Score: inf
ROOT
ATOM      1  C   UNL     1       8.338  -0.694  -2.058  1.00  0.00     0.127 C 
ENDROOT
BRANCH   1   2
ATOM      2  C   UNL     1       8.359  -1.916  -2.897  1.00  0.00     0.303 C 
ATOM      3  O   UNL     1       7.295  -2.445  -3.303  1.00  0.00    -0.252 OA
BRANCH   2   4
ATOM      4  O   UNL     1       9.558  -2.510  -3.256  1.00  0.00    -0.481 OA
ATOM      5  H   UNL     1       9.565  -3.495  -3.534  1.00  0.00     0.296 HD
ENDBRANCH   2   4
ENDBRANCH   1   2
BRANCH   1   6
ATOM      6  C   UNL     1       7.937  -1.085  -0.668  1.00  0.00     0.047 C 
BRANCH   6   7
ATOM      7  C   UNL     1       6.929  -0.209  -0.072  1.00  0.00    -0.047 A 
ATOM      8  C   UNL     1       6.492  -0.414   1.216  1.00  0.00     0.004 A 
ATOM      9  C   UNL     1       6.419   0.830  -0.815  1.00  0.00     0.004 A 
ATOM     10  C   UNL     1       5.528   0.462   1.721  1.00  0.00     0.000 A 
ATOM     11  C   UNL     1       5.466   1.695  -0.314  1.00  0.00     0.000 A 
ATOM     12  C   UNL     1       5.022   1.496   0.975  1.00  0.00     0.000 A 
ENDBRANCH   6   7
ENDBRANCH   1   6
TORSDOF 4
ENDMDL
MODEL 4
REMARK VINA RESULT:      -6.8      3.376      5.085
REMARK SMILES O=C(O)CCc1ccccc1
REMARK SMILES IDX 4 1 2 2 1 3 3 4 5 6 6 7 7 8 11 9 8 10 10 11 9 12
REMARK H PARENT 3 5
REMARK Flexibility Score: inf
ROOT
ATOM      1  C   UNL     1       5.000   1.768   0.716  1.00  0.00     0.127 C 
ENDROOT
BRANCH   1   2
ATOM      2  C   UNL     1       4.474   1.093   1.926  1.00  0.00     0.303 C 
ATOM      3  O   UNL     1       5.120   0.178   2.494  1.00  0.00    -0.252 OA
BRANCH   2   4
ATOM      4  O   UNL     1       3.249   1.455   2.465  1.00  0.00    -0.481 OA
ATOM      5  H   UNL     1       2.671   0.741   2.917  1.00  0.00     0.296 HD
ENDBRANCH   2   4
ENDBRANCH   1   2
BRANCH   1   6
ATOM      6  C   UNL     1       6.497   1.727   0.768  1.00  0.00     0.047 C 
BRANCH   6   7
ATOM      7  C   UNL     1       7.109   0.967  -0.321  1.00  0.00    -0.047 A 
ATOM      8  C   UNL     1       6.395   0.004  -0.994  1.00  0.00     0.004 A 
ATOM      9  C   UNL     1       8.414   1.228  -0.670  1.00  0.00     0.004 A 
ATOM     10  C   UNL     1       7.043  -0.682  -2.024  1.00  0.00     0.000 A 
ATOM     11  C   UNL     1       9.053   0.549  -1.689  1.00  0.00     0.000 A 
ATOM     12  C   UNL     1       8.345  -0.419  -2.368  1.00  0.00     0.000 A 
ENDBRANCH   6   7
ENDBRANCH   1   6
TORSDOF 4
ENDMDL
MODEL 5
REMARK VINA RESULT:      -6.7      1.948      2.670
REMARK SMILES O=C(O)CCc1ccccc1
REMARK SMILES IDX 4 1 2 2 1 3 3 4 5 6 6 7 7 8 11 9 8 10 10 11 9 12
REMARK H PARENT 3 5
REMARK Flexibility Score: inf
ROOT
ATOM      1  C   UNL     1       8.283   0.118  -2.152  1.00  0.00     0.127 C 
ENDROOT
BRANCH   1   2
ATOM      2  C   UNL     1       9.393   0.324  -1.192  1.00  0.00     0.303 C 
ATOM      3  O   UNL     1       9.500  -0.383  -0.160  1.00  0.00    -0.252 OA
BRANCH   2   4
ATOM      4  O   UNL     1      10.346   1.306  -1.409  1.00  0.00    -0.481 OA
ATOM      5  H   UNL     1      11.173   1.086  -1.970  1.00  0.00     0.296 HD
ENDBRANCH   2   4
ENDBRANCH   1   2
BRANCH   1   6
ATOM      6  C   UNL     1       7.189  -0.630  -1.453  1.00  0.00     0.047 C 
BRANCH   6   7
ATOM      7  C   UNL     1       6.389   0.193  -0.548  1.00  0.00    -0.047 A 
ATOM      8  C   UNL     1       6.145  -0.214   0.743  1.00  0.00     0.004 A 
ATOM      9  C   UNL     1       5.881   1.389  -1.001  1.00  0.00     0.004 A 
ATOM     10  C   UNL     1       5.374   0.624   1.552  1.00  0.00     0.000 A 
ATOM     11  C   UNL     1       5.119   2.216  -0.200  1.00  0.00     0.000 A 
ATOM     12  C   UNL     1       4.869   1.815   1.095  1.00  0.00     0.000 A 
ENDBRANCH   6   7
ENDBRANCH   1   6
TORSDOF 4
ENDMDL
