@<TRIPOS>MOLECULE
/home/cewinharhar/GITHUB/reincatalyze/data/processed/docking_pred/2023_Apr_20-15:07/0df60b8790b800bbceb9ee276e91b409308b6f54_ligand_2.pdbqt
 12 12 0 0 0
SMALL
GASTEIGER

@<TRIPOS>ATOM
      1  C          8.3380   -0.6940   -2.0580 C.3     1  UNL1        0.1270
      2  C          8.3590   -1.9160   -2.8970 C.2     1  UNL1        0.3030
      3  O          7.2950   -2.4450   -3.3030 O.2     1  UNL1       -0.2520
      4  O          9.5580   -2.5100   -3.2560 O.3     1  UNL1       -0.4810
      5  H          9.5650   -3.4950   -3.5340 H       1  UNL1        0.2960
      6  C          7.9370   -1.0850   -0.6680 C.3     1  UNL1        0.0470
      7  C          6.9290   -0.2090   -0.0720 C.2     1  UNL1       -0.0470
      8  C          6.4920   -0.4140    1.2160 C.2     1  UNL1        0.0040
      9  C          6.4190    0.8300   -0.8150 C.2     1  UNL1        0.0040
     10  C          5.5280    0.4620    1.7210 C.2     1  UNL1        0.0000
     11  C          5.4660    1.6950   -0.3140 C.2     1  UNL1        0.0000
     12  C          5.0220    1.4960    0.9750 C.2     1  UNL1        0.0000
@<TRIPOS>BOND
     1     5     4    1
     2     3     2    2
     3     4     2    1
     4     2     1    1
     5     1     6    1
     6     9    11    1
     7     9     7    2
     8     6     7    1
     9    11    12    2
    10     7     8    1
    11    12    10    1
    12     8    10    2
