@<TRIPOS>MOLECULE
/home/cewinharhar/GITHUB/reincatalyze/data/processed/docking_pred/2023_Apr_20-15:07/0df60b8790b800bbceb9ee276e91b409308b6f54_ligand_2.pdbqt
 12 12 0 0 0
SMALL
GASTEIGER

@<TRIPOS>ATOM
      1  C          8.2830    0.1180   -2.1520 C.3     1  UNL1        0.1270
      2  C          9.3930    0.3240   -1.1920 C.2     1  UNL1        0.3030
      3  O          9.5000   -0.3830   -0.1600 O.2     1  UNL1       -0.2520
      4  O         10.3460    1.3060   -1.4090 O.3     1  UNL1       -0.4810
      5  H         11.1730    1.0860   -1.9700 H       1  UNL1        0.2960
      6  C          7.1890   -0.6300   -1.4530 C.3     1  UNL1        0.0470
      7  C          6.3890    0.1930   -0.5480 C.2     1  UNL1       -0.0470
      8  C          6.1450   -0.2140    0.7430 C.2     1  UNL1        0.0040
      9  C          5.8810    1.3890   -1.0010 C.2     1  UNL1        0.0040
     10  C          5.3740    0.6240    1.5520 C.2     1  UNL1        0.0000
     11  C          5.1190    2.2160   -0.2000 C.2     1  UNL1        0.0000
     12  C          4.8690    1.8150    1.0950 C.2     1  UNL1        0.0000
@<TRIPOS>BOND
     1     1     6    1
     2     1     2    1
     3     5     4    1
     4     6     7    1
     5     4     2    1
     6     2     3    2
     7     9     7    2
     8     9    11    1
     9     7     8    1
    10    11    12    2
    11     8    10    2
    12    12    10    1
