@<TRIPOS>MOLECULE
/home/cewinharhar/GITHUB/reincatalyze/data/processed/docking_pred/2023_Apr_20-15:07/0df60b8790b800bbceb9ee276e91b409308b6f54_ligand_2.pdbqt
 12 12 0 0 0
SMALL
GASTEIGER

@<TRIPOS>ATOM
      1  C          5.0000    1.7680    0.7160 C.3     1  UNL1        0.1270
      2  C          4.4740    1.0930    1.9260 C.2     1  UNL1        0.3030
      3  O          5.1200    0.1780    2.4940 O.2     1  UNL1       -0.2520
      4  O          3.2490    1.4550    2.4650 O.3     1  UNL1       -0.4810
      5  H          2.6710    0.7410    2.9170 H       1  UNL1        0.2960
      6  C          6.4970    1.7270    0.7680 C.3     1  UNL1        0.0470
      7  C          7.1090    0.9670   -0.3210 C.2     1  UNL1       -0.0470
      8  C          6.3950    0.0040   -0.9940 C.2     1  UNL1        0.0040
      9  C          8.4140    1.2280   -0.6700 C.2     1  UNL1        0.0040
     10  C          7.0430   -0.6820   -2.0240 C.2     1  UNL1        0.0000
     11  C          9.0530    0.5490   -1.6890 C.2     1  UNL1        0.0000
     12  C          8.3450   -0.4190   -2.3680 C.2     1  UNL1        0.0000
@<TRIPOS>BOND
     1    12    10    2
     2    12    11    1
     3    10     8    1
     4    11     9    2
     5     8     7    2
     6     9     7    1
     7     7     6    1
     8     1     6    1
     9     1     2    1
    10     2     4    1
    11     2     3    2
    12     4     5    1
