@<TRIPOS>MOLECULE
/home/cewinharhar/GITHUB/reincatalyze/data/processed/docking_pred/2023_Apr_20-15:07/10ef791c1764d6d7d99274693c0e95c254b80295_ligand_2.pdbqt
 12 12 0 0 0
SMALL
GASTEIGER

@<TRIPOS>ATOM
      1  C          8.4670   -0.6410   -2.0950 C.3     1  UNL1        0.1270
      2  C          8.4090   -1.9010   -2.8740 C.2     1  UNL1        0.3030
      3  O          7.3110   -2.4120   -3.2050 O.2     1  UNL1       -0.2520
      4  O          9.5710   -2.5510   -3.2590 O.3     1  UNL1       -0.4810
      5  H          9.7620   -3.4910   -2.8990 H       1  UNL1        0.2960
      6  C          7.0980   -0.0320   -2.0850 C.3     1  UNL1        0.0470
      7  C          6.5110    0.0900   -0.7520 C.2     1  UNL1       -0.0470
      8  C          6.6450   -0.9220    0.1710 C.2     1  UNL1        0.0040
      9  C          5.8210    1.2340   -0.4240 C.2     1  UNL1        0.0040
     10  C          6.0590   -0.7370    1.4250 C.2     1  UNL1        0.0000
     11  C          5.2420    1.4150    0.8170 C.2     1  UNL1        0.0000
     12  C          5.3710    0.4060    1.7460 C.2     1  UNL1        0.0000
@<TRIPOS>BOND
     1     4     5    1
     2     4     2    1
     3     3     2    2
     4     2     1    1
     5     1     6    1
     6     6     7    1
     7     7     9    2
     8     7     8    1
     9     9    11    1
    10     8    10    2
    11    11    12    2
    12    10    12    1
