@<TRIPOS>MOLECULE
/home/cewinharhar/GITHUB/reincatalyze/data/processed/docking_pred/2023_Apr_20-15:07/10ef791c1764d6d7d99274693c0e95c254b80295_ligand_2.pdbqt
 12 12 0 0 0
SMALL
GASTEIGER

@<TRIPOS>ATOM
      1  C          4.9780    1.7910    0.6560 C.3     1  UNL1        0.1270
      2  C          4.4880    1.1300    1.8880 C.2     1  UNL1        0.3030
      3  O          5.1650    0.2430    2.4640 O.2     1  UNL1       -0.2520
      4  O          3.2640    1.4740    2.4400 O.3     1  UNL1       -0.4810
      5  H          2.5690    0.7420    2.6120 H       1  UNL1        0.2960
      6  C          6.4760    1.8160    0.6990 C.3     1  UNL1        0.0470
      7  C          7.1140    1.0550   -0.3740 C.2     1  UNL1       -0.0470
      8  C          6.3820    0.1900   -1.1550 C.2     1  UNL1        0.0040
      9  C          8.4620    1.2130   -0.5990 C.2     1  UNL1        0.0040
     10  C          7.0570   -0.5030   -2.1620 C.2     1  UNL1        0.0000
     11  C          9.1270    0.5260   -1.5950 C.2     1  UNL1        0.0000
     12  C          8.4010   -0.3420   -2.3820 C.2     1  UNL1        0.0000
@<TRIPOS>BOND
     1    12    10    2
     2    12    11    1
     3    10     8    1
     4    11     9    2
     5     8     7    2
     6     9     7    1
     7     7     6    1
     8     1     6    1
     9     1     2    1
    10     2     4    1
    11     2     3    2
    12     4     5    1
