@<TRIPOS>MOLECULE
/home/cewinharhar/GITHUB/reincatalyze/data/processed/docking_pred/2023_Apr_20-15:07/10ef791c1764d6d7d99274693c0e95c254b80295_ligand_2.pdbqt
 12 12 0 0 0
SMALL
GASTEIGER

@<TRIPOS>ATOM
      1  C          8.1570    0.2760   -2.0730 C.3     1  UNL1        0.1270
      2  C          9.3510    0.3640   -1.2000 C.2     1  UNL1        0.3030
      3  O          9.4830   -0.3850   -0.2000 O.2     1  UNL1       -0.2520
      4  O         10.3570    1.2790   -1.4630 O.3     1  UNL1       -0.4810
      5  H         10.8410    1.2460   -2.3650 H       1  UNL1        0.2960
      6  C          7.1390   -0.5880   -1.3930 C.3     1  UNL1        0.0470
      7  C          6.3500    0.1090   -0.3790 C.2     1  UNL1       -0.0470
      8  C          6.1520   -0.4470    0.8630 C.2     1  UNL1        0.0040
      9  C          5.8040    1.3350   -0.6800 C.2     1  UNL1        0.0040
     10  C          5.3880    0.2750    1.7830 C.2     1  UNL1        0.0000
     11  C          5.0490    2.0480    0.2300 C.2     1  UNL1        0.0000
     12  C          4.8450    1.4980    1.4770 C.2     1  UNL1        0.0000
@<TRIPOS>BOND
     1     5     4    1
     2     1     6    1
     3     1     2    1
     4     4     2    1
     5     6     7    1
     6     2     3    2
     7     9     7    2
     8     9    11    1
     9     7     8    1
    10    11    12    2
    11     8    10    2
    12    12    10    1
