@<TRIPOS>MOLECULE
/home/cewinharhar/GITHUB/reincatalyze/data/processed/docking_pred/2023_Apr_20-15:07/10ef791c1764d6d7d99274693c0e95c254b80295_ligand_2.pdbqt
 12 12 0 0 0
SMALL
GASTEIGER

@<TRIPOS>ATOM
      1  C          8.1510   -1.5480    1.0870 C.3     1  UNL1        0.1270
      2  C          8.4600   -2.7720    0.3100 C.2     1  UNL1        0.3030
      3  O          9.0820   -3.7320    0.8280 O.2     1  UNL1       -0.2520
      4  O          8.0710   -2.8890   -1.0140 O.3     1  UNL1       -0.4810
      5  H          8.7560   -2.7160   -1.7550 H       1  UNL1        0.2960
      6  C          6.6620   -1.4350    1.2140 C.3     1  UNL1        0.0470
      7  C          6.1190   -0.1650    0.7370 C.2     1  UNL1       -0.0470
      8  C          5.3710    0.6370    1.5670 C.2     1  UNL1        0.0040
      9  C          6.3670    0.2260   -0.5590 C.2     1  UNL1        0.0040
     10  C          4.8850    1.8370    1.0450 C.2     1  UNL1        0.0000
     11  C          5.8850    1.4130   -1.0740 C.2     1  UNL1        0.0000
     12  C          5.1340    2.2220   -0.2490 C.2     1  UNL1        0.0000
@<TRIPOS>BOND
     1     5     4    1
     2    11     9    1
     3    11    12    2
     4     4     2    1
     5     9     7    2
     6    12    10    1
     7     2     3    2
     8     2     1    1
     9     7     6    1
    10     7     8    1
    11    10     8    2
    12     1     6    1
