@<TRIPOS>MOLECULE
/home/cewinharhar/GITHUB/reincatalyze/data/processed/docking_pred/2023_Apr_20-15:07/10ef791c1764d6d7d99274693c0e95c254b80295_ligand_2.pdbqt
 12 12 0 0 0
SMALL
GASTEIGER

@<TRIPOS>ATOM
      1  C          8.4070   -0.6290   -2.1150 C.3     1  UNL1        0.1270
      2  C          8.3670   -1.8910   -2.8900 C.2     1  UNL1        0.3030
      3  O          7.2760   -2.4000   -3.2480 O.2     1  UNL1       -0.2520
      4  O          9.5360   -2.5460   -3.2410 O.3     1  UNL1       -0.4810
      5  H          9.4810   -3.4750   -3.6670 H       1  UNL1        0.2960
      6  C          7.0270   -0.0460   -2.0910 C.3     1  UNL1        0.0470
      7  C          6.4670    0.1030   -0.7490 C.2     1  UNL1       -0.0470
      8  C          5.8160    1.2580   -0.3820 C.2     1  UNL1        0.0040
      9  C          6.5960   -0.9300    0.1510 C.2     1  UNL1        0.0040
     10  C          5.3060    1.3300    0.9160 C.2     1  UNL1        0.0000
     11  C          6.0920   -0.8570    1.4340 C.2     1  UNL1        0.0000
     12  C          5.4390    0.2970    1.8090 C.2     1  UNL1        0.0000
@<TRIPOS>BOND
     1     5     4    1
     2     3     2    2
     3     4     2    1
     4     2     1    1
     5     1     6    1
     6     6     7    1
     7     7     8    2
     8     7     9    1
     9     8    10    1
    10     9    11    2
    11    10    12    2
    12    11    12    1
