@<TRIPOS>MOLECULE
/home/cewinharhar/GITHUB/reincatalyze/data/processed/docking_pred/2023_Apr_20-15:07/12e5788d749ca0b681d4f032b25b6d257325d045_ligand_2.pdbqt
 12 12 0 0 0
SMALL
GASTEIGER

@<TRIPOS>ATOM
      1  C          8.3500    0.3600   -2.0090 C.3     1  UNL1        0.1270
      2  C          9.4890    0.4010   -1.0610 C.2     1  UNL1        0.3030
      3  O          9.5390   -0.3700   -0.0710 O.2     1  UNL1       -0.2520
      4  O         10.5320    1.2940   -1.2440 O.3     1  UNL1       -0.4810
      5  H         11.4960    0.9490   -1.2240 H       1  UNL1        0.2960
      6  C          7.2760   -0.5020   -1.4170 C.3     1  UNL1        0.0470
      7  C          6.4360    0.1840   -0.4370 C.2     1  UNL1       -0.0470
      8  C          6.2070   -0.3680    0.8020 C.2     1  UNL1        0.0040
      9  C          5.8730    1.3960   -0.7660 C.2     1  UNL1        0.0040
     10  C          5.3940    0.3430    1.6880 C.2     1  UNL1        0.0000
     11  C          5.0700    2.0970    0.1110 C.2     1  UNL1        0.0000
     12  C          4.8350    1.5510    1.3540 C.2     1  UNL1        0.0000
@<TRIPOS>BOND
     1     1     6    1
     2     1     2    1
     3     6     7    1
     4     4     5    1
     5     4     2    1
     6     2     3    2
     7     9     7    2
     8     9    11    1
     9     7     8    1
    10    11    12    2
    11     8    10    2
    12    12    10    1
