@<TRIPOS>MOLECULE
/home/cewinharhar/GITHUB/reincatalyze/data/processed/docking_pred/2023_Apr_20-15:07/12e5788d749ca0b681d4f032b25b6d257325d045_ligand_2.pdbqt
 12 12 0 0 0
SMALL
GASTEIGER

@<TRIPOS>ATOM
      1  C          8.4220   -0.5530   -2.2150 C.3     1  UNL1        0.1270
      2  C          8.4750   -1.8650   -2.9030 C.2     1  UNL1        0.3030
      3  O          9.5620   -2.4740   -3.0590 O.2     1  UNL1       -0.2520
      4  O          7.3230   -2.4550   -3.3960 O.3     1  UNL1       -0.4810
      5  H          6.4520   -1.9160   -3.4140 H       1  UNL1        0.2960
      6  C          6.9940   -0.1040   -2.1670 C.3     1  UNL1        0.0470
      7  C          6.4740    0.0820   -0.8130 C.2     1  UNL1       -0.0470
      8  C          5.8440    1.2510   -0.4560 C.2     1  UNL1        0.0040
      9  C          6.6190   -0.9310    0.1060 C.2     1  UNL1        0.0040
     10  C          5.3710    1.3590    0.8540 C.2     1  UNL1        0.0000
     11  C          6.1510   -0.8230    1.4010 C.2     1  UNL1        0.0000
     12  C          5.5200    0.3460    1.7670 C.2     1  UNL1        0.0000
@<TRIPOS>BOND
     1     5     4    1
     2     4     2    1
     3     3     2    2
     4     2     1    1
     5     1     6    1
     6     6     7    1
     7     7     8    2
     8     7     9    1
     9     8    10    1
    10     9    11    2
    11    10    12    2
    12    11    12    1
