@<TRIPOS>MOLECULE
/home/cewinharhar/GITHUB/reincatalyze/data/processed/docking_pred/2023_Apr_20-15:07/12e5788d749ca0b681d4f032b25b6d257325d045_ligand_2.pdbqt
 12 12 0 0 0
SMALL
GASTEIGER

@<TRIPOS>ATOM
      1  C          8.4150   -0.6010   -2.1620 C.3     1  UNL1        0.1270
      2  C          8.3880   -1.8840   -2.9040 C.2     1  UNL1        0.3030
      3  O          7.3030   -2.4230   -3.2330 O.2     1  UNL1       -0.2520
      4  O          9.5650   -2.5250   -3.2560 O.3     1  UNL1       -0.4810
      5  H          9.5780   -3.1310   -4.0810 H       1  UNL1        0.2960
      6  C          7.0220   -0.0510   -2.1220 C.3     1  UNL1        0.0470
      7  C          6.4760    0.0880   -0.7730 C.2     1  UNL1       -0.0470
      8  C          6.6100   -0.9250    0.1480 C.2     1  UNL1        0.0040
      9  C          5.8240    1.2500   -0.4290 C.2     1  UNL1        0.0040
     10  C          6.0640   -0.7230    1.4170 C.2     1  UNL1        0.0000
     11  C          5.2860    1.4480    0.8270 C.2     1  UNL1        0.0000
     12  C          5.4150    0.4370    1.7550 C.2     1  UNL1        0.0000
@<TRIPOS>BOND
     1     5     4    1
     2     4     2    1
     3     3     2    2
     4     2     1    1
     5     1     6    1
     6     6     7    1
     7     7     9    2
     8     7     8    1
     9     9    11    1
    10     8    10    2
    11    11    12    2
    12    10    12    1
