@<TRIPOS>MOLECULE
/home/cewinharhar/GITHUB/reincatalyze/data/processed/docking_pred/2023_Apr_20-15:07/12e5788d749ca0b681d4f032b25b6d257325d045_ligand_2.pdbqt
 12 12 0 0 0
SMALL
GASTEIGER

@<TRIPOS>ATOM
      1  C          5.4080    2.9710    0.0110 C.3     1  UNL1        0.1270
      2  C          6.2490    3.8880    0.8160 C.2     1  UNL1        0.3030
      3  O          6.9510    4.7740    0.2710 O.2     1  UNL1       -0.2520
      4  O          6.2830    3.7900    2.1980 O.3     1  UNL1       -0.4810
      5  H          7.1790    3.6320    2.6670 H       1  UNL1        0.2960
      6  C          4.8990    1.8860    0.9100 C.3     1  UNL1        0.0470
      7  C          5.7230    0.6790    0.9100 C.2     1  UNL1       -0.0470
      8  C          6.4350    0.3130   -0.2090 C.2     1  UNL1        0.0040
      9  C          5.7820   -0.0930    2.0470 C.2     1  UNL1        0.0040
     10  C          7.2020   -0.8520   -0.1370 C.2     1  UNL1        0.0000
     11  C          6.5410   -1.2450    2.1160 C.2     1  UNL1        0.0000
     12  C          7.2560   -1.6190    1.0000 C.2     1  UNL1        0.0000
@<TRIPOS>BOND
     1     8    10    1
     2     8     7    2
     3    10    12    2
     4     1     2    1
     5     1     6    1
     6     3     2    2
     7     2     4    1
     8     6     7    1
     9     7     9    1
    10    12    11    1
    11     9    11    2
    12     4     5    1
