MODEL 1
REMARK VINA RESULT:      -7.3      0.000      0.000
REMARK SMILES O=C(O)CCc1ccccc1
REMARK SMILES IDX 4 1 2 2 1 3 3 4 5 6 6 7 7 8 11 9 8 10 10 11 9 12
REMARK H PARENT 3 5
REMARK Flexibility Score: inf
ROOT
ATOM      1  C   UNL     1       8.422  -0.553  -2.215  1.00  0.00     0.127 C 
ENDROOT
BRANCH   1   2
ATOM      2  C   UNL     1       8.475  -1.865  -2.903  1.00  0.00     0.303 C 
ATOM      3  O   UNL     1       9.562  -2.474  -3.059  1.00  0.00    -0.252 OA
BRANCH   2   4
ATOM      4  O   UNL     1       7.323  -2.455  -3.396  1.00  0.00    -0.481 OA
ATOM      5  H   UNL     1       6.452  -1.916  -3.414  1.00  0.00     0.296 HD
ENDBRANCH   2   4
ENDBRANCH   1   2
BRANCH   1   6
ATOM      6  C   UNL     1       6.994  -0.104  -2.167  1.00  0.00     0.047 C 
BRANCH   6   7
ATOM      7  C   UNL     1       6.474   0.082  -0.813  1.00  0.00    -0.047 A 
ATOM      8  C   UNL     1       5.844   1.251  -0.456  1.00  0.00     0.004 A 
ATOM      9  C   UNL     1       6.619  -0.931   0.106  1.00  0.00     0.004 A 
ATOM     10  C   UNL     1       5.371   1.359   0.854  1.00  0.00     0.000 A 
ATOM     11  C   UNL     1       6.151  -0.823   1.401  1.00  0.00     0.000 A 
ATOM     12  C   UNL     1       5.520   0.346   1.767  1.00  0.00     0.000 A 
ENDBRANCH   6   7
ENDBRANCH   1   6
TORSDOF 4
ENDMDL
MODEL 2
REMARK VINA RESULT:      -7.2      0.115      1.731
REMARK SMILES O=C(O)CCc1ccccc1
REMARK SMILES IDX 4 1 2 2 1 3 3 4 5 6 6 7 7 8 11 9 8 10 10 11 9 12
REMARK H PARENT 3 5
REMARK Flexibility Score: inf
ROOT
ATOM      1  C   UNL     1       8.415  -0.601  -2.162  1.00  0.00     0.127 C 
ENDROOT
BRANCH   1   2
ATOM      2  C   UNL     1       8.388  -1.884  -2.904  1.00  0.00     0.303 C 
ATOM      3  O   UNL     1       7.303  -2.423  -3.233  1.00  0.00    -0.252 OA
BRANCH   2   4
ATOM      4  O   UNL     1       9.565  -2.525  -3.256  1.00  0.00    -0.481 OA
ATOM      5  H   UNL     1       9.578  -3.131  -4.081  1.00  0.00     0.296 HD
ENDBRANCH   2   4
ENDBRANCH   1   2
BRANCH   1   6
ATOM      6  C   UNL     1       7.022  -0.051  -2.122  1.00  0.00     0.047 C 
BRANCH   6   7
ATOM      7  C   UNL     1       6.476   0.088  -0.773  1.00  0.00    -0.047 A 
ATOM      8  C   UNL     1       6.610  -0.925   0.148  1.00  0.00     0.004 A 
ATOM      9  C   UNL     1       5.824   1.250  -0.429  1.00  0.00     0.004 A 
ATOM     10  C   UNL     1       6.064  -0.723   1.417  1.00  0.00     0.000 A 
ATOM     11  C   UNL     1       5.286   1.448   0.827  1.00  0.00     0.000 A 
ATOM     12  C   UNL     1       5.415   0.437   1.755  1.00  0.00     0.000 A 
ENDBRANCH   6   7
ENDBRANCH   1   6
TORSDOF 4
ENDMDL
MODEL 3
REMARK VINA RESULT:      -6.8      3.374      5.072
REMARK SMILES O=C(O)CCc1ccccc1
REMARK SMILES IDX 4 1 2 2 1 3 3 4 5 6 6 7 7 8 11 9 8 10 10 11 9 12
REMARK H PARENT 3 5
REMARK Flexibility Score: inf
ROOT
ATOM      1  C   UNL     1       5.009   1.800   0.726  1.00  0.00     0.127 C 
ENDROOT
BRANCH   1   2
ATOM      2  C   UNL     1       4.479   1.110   1.926  1.00  0.00     0.303 C 
ATOM      3  O   UNL     1       5.128   0.193   2.489  1.00  0.00    -0.252 OA
BRANCH   2   4
ATOM      4  O   UNL     1       3.250   1.459   2.460  1.00  0.00    -0.481 OA
ATOM      5  H   UNL     1       2.899   2.412   2.330  1.00  0.00     0.296 HD
ENDBRANCH   2   4
ENDBRANCH   1   2
BRANCH   1   6
ATOM      6  C   UNL     1       6.506   1.753   0.779  1.00  0.00     0.047 C 
BRANCH   6   7
ATOM      7  C   UNL     1       7.117   1.014  -0.325  1.00  0.00    -0.047 A 
ATOM      8  C   UNL     1       6.384   0.107  -1.055  1.00  0.00     0.004 A 
ATOM      9  C   UNL     1       8.440   1.236  -0.631  1.00  0.00     0.004 A 
ATOM     10  C   UNL     1       7.032  -0.563  -2.095  1.00  0.00     0.000 A 
ATOM     11  C   UNL     1       9.079   0.573  -1.659  1.00  0.00     0.000 A 
ATOM     12  C   UNL     1       8.352  -0.338  -2.395  1.00  0.00     0.000 A 
ENDBRANCH   6   7
ENDBRANCH   1   6
TORSDOF 4
ENDMDL
MODEL 4
REMARK VINA RESULT:      -6.7      3.821      4.916
REMARK SMILES O=C(O)CCc1ccccc1
REMARK SMILES IDX 4 1 2 2 1 3 3 4 5 6 6 7 7 8 11 9 8 10 10 11 9 12
REMARK H PARENT 3 5
REMARK Flexibility Score: inf
ROOT
ATOM      1  C   UNL     1       5.408   2.971   0.011  1.00  0.00     0.127 C 
ENDROOT
BRANCH   1   2
ATOM      2  C   UNL     1       6.249   3.888   0.816  1.00  0.00     0.303 C 
ATOM      3  O   UNL     1       6.951   4.774   0.271  1.00  0.00    -0.252 OA
BRANCH   2   4
ATOM      4  O   UNL     1       6.283   3.790   2.198  1.00  0.00    -0.481 OA
ATOM      5  H   UNL     1       7.179   3.632   2.667  1.00  0.00     0.296 HD
ENDBRANCH   2   4
ENDBRANCH   1   2
BRANCH   1   6
ATOM      6  C   UNL     1       4.899   1.886   0.910  1.00  0.00     0.047 C 
BRANCH   6   7
ATOM      7  C   UNL     1       5.723   0.679   0.910  1.00  0.00    -0.047 A 
ATOM      8  C   UNL     1       6.435   0.313  -0.209  1.00  0.00     0.004 A 
ATOM      9  C   UNL     1       5.782  -0.093   2.047  1.00  0.00     0.004 A 
ATOM     10  C   UNL     1       7.202  -0.852  -0.137  1.00  0.00     0.000 A 
ATOM     11  C   UNL     1       6.541  -1.245   2.116  1.00  0.00     0.000 A 
ATOM     12  C   UNL     1       7.256  -1.619   1.000  1.00  0.00     0.000 A 
ENDBRANCH   6   7
ENDBRANCH   1   6
TORSDOF 4
ENDMDL
MODEL 5
REMARK VINA RESULT:      -6.6      1.983      2.696
REMARK SMILES O=C(O)CCc1ccccc1
REMARK SMILES IDX 4 1 2 2 1 3 3 4 5 6 6 7 7 8 11 9 8 10 10 11 9 12
REMARK H PARENT 3 5
REMARK Flexibility Score: inf
ROOT
ATOM      1  C   UNL     1       8.350   0.360  -2.009  1.00  0.00     0.127 C 
ENDROOT
BRANCH   1   2
ATOM      2  C   UNL     1       9.489   0.401  -1.061  1.00  0.00     0.303 C 
ATOM      3  O   UNL     1       9.539  -0.370  -0.071  1.00  0.00    -0.252 OA
BRANCH   2   4
ATOM      4  O   UNL     1      10.532   1.294  -1.244  1.00  0.00    -0.481 OA
ATOM      5  H   UNL     1      11.496   0.949  -1.224  1.00  0.00     0.296 HD
ENDBRANCH   2   4
ENDBRANCH   1   2
BRANCH   1   6
ATOM      6  C   UNL     1       7.276  -0.502  -1.417  1.00  0.00     0.047 C 
BRANCH   6   7
ATOM      7  C   UNL     1       6.436   0.184  -0.437  1.00  0.00    -0.047 A 
ATOM      8  C   UNL     1       6.207  -0.368   0.802  1.00  0.00     0.004 A 
ATOM      9  C   UNL     1       5.873   1.396  -0.766  1.00  0.00     0.004 A 
ATOM     10  C   UNL     1       5.394   0.343   1.688  1.00  0.00     0.000 A 
ATOM     11  C   UNL     1       5.070   2.097   0.111  1.00  0.00     0.000 A 
ATOM     12  C   UNL     1       4.835   1.551   1.354  1.00  0.00     0.000 A 
ENDBRANCH   6   7
ENDBRANCH   1   6
TORSDOF 4
ENDMDL
