@<TRIPOS>MOLECULE
/home/cewinharhar/GITHUB/reincatalyze/data/processed/docking_pred/2023_Apr_20-15:07/12e5788d749ca0b681d4f032b25b6d257325d045_ligand_2.pdbqt
 12 12 0 0 0
SMALL
GASTEIGER

@<TRIPOS>ATOM
      1  C          5.0090    1.8000    0.7260 C.3     1  UNL1        0.1270
      2  C          4.4790    1.1100    1.9260 C.2     1  UNL1        0.3030
      3  O          5.1280    0.1930    2.4890 O.2     1  UNL1       -0.2520
      4  O          3.2500    1.4590    2.4600 O.3     1  UNL1       -0.4810
      5  H          2.8990    2.4120    2.3300 H       1  UNL1        0.2960
      6  C          6.5060    1.7530    0.7790 C.3     1  UNL1        0.0470
      7  C          7.1170    1.0140   -0.3250 C.2     1  UNL1       -0.0470
      8  C          6.3840    0.1070   -1.0550 C.2     1  UNL1        0.0040
      9  C          8.4400    1.2360   -0.6310 C.2     1  UNL1        0.0040
     10  C          7.0320   -0.5630   -2.0950 C.2     1  UNL1        0.0000
     11  C          9.0790    0.5730   -1.6590 C.2     1  UNL1        0.0000
     12  C          8.3520   -0.3380   -2.3950 C.2     1  UNL1        0.0000
@<TRIPOS>BOND
     1    12    10    2
     2    12    11    1
     3    10     8    1
     4    11     9    2
     5     8     7    2
     6     9     7    1
     7     7     6    1
     8     1     6    1
     9     1     2    1
    10     2     4    1
    11     2     3    2
    12     5     4    1
