@<TRIPOS>MOLECULE
/home/cewinharhar/GITHUB/reincatalyze/data/processed/docking_pred/2023_Apr_20-15:07/13c3a96d7f073914410e4f6d6c0e2190084e407e_ligand_2.pdbqt
 12 12 0 0 0
SMALL
GASTEIGER

@<TRIPOS>ATOM
      1  C          5.0450    1.7730    0.6990 C.3     1  UNL1        0.1270
      2  C          4.5090    1.1010    1.9060 C.2     1  UNL1        0.3030
      3  O          5.1510    0.1890    2.4830 O.2     1  UNL1       -0.2520
      4  O          3.2790    1.4630    2.4320 O.3     1  UNL1       -0.4810
      5  H          2.9600    1.0300    3.3030 H       1  UNL1        0.2960
      6  C          6.5420    1.7370    0.7660 C.3     1  UNL1        0.0470
      7  C          7.1690    1.0050   -0.3330 C.2     1  UNL1       -0.0470
      8  C          8.4850    1.2270   -0.6650 C.2     1  UNL1        0.0040
      9  C          6.4280    0.0830   -1.0350 C.2     1  UNL1        0.0040
     10  C          9.0190    0.4910   -1.7250 C.2     1  UNL1        0.0000
     11  C          6.9570   -0.6440   -2.0830 C.2     1  UNL1        0.0000
     12  C          8.2740   -0.4260   -2.4230 C.2     1  UNL1        0.0000
@<TRIPOS>BOND
     1    12    11    2
     2    12    10    1
     3    11     9    1
     4    10     8    2
     5     9     7    2
     6     8     7    1
     7     7     6    1
     8     1     6    1
     9     1     2    1
    10     2     4    1
    11     2     3    2
    12     4     5    1
