MODEL 1
REMARK VINA RESULT:      -7.3      0.000      0.000
REMARK SMILES O=C(O)CCc1ccccc1
REMARK SMILES IDX 4 1 2 2 1 3 3 4 5 6 6 7 7 8 11 9 8 10 10 11 9 12
REMARK H PARENT 3 5
REMARK Flexibility Score: inf
ROOT
ATOM      1  C   UNL     1       8.472  -0.579  -2.212  1.00  0.00     0.127 C 
ENDROOT
BRANCH   1   2
ATOM      2  C   UNL     1       8.501  -1.885  -2.912  1.00  0.00     0.303 C 
ATOM      3  O   UNL     1       9.578  -2.508  -3.082  1.00  0.00    -0.252 OA
BRANCH   2   4
ATOM      4  O   UNL     1       7.336  -2.455  -3.399  1.00  0.00    -0.481 OA
ATOM      5  H   UNL     1       7.244  -2.624  -4.405  1.00  0.00     0.296 HD
ENDBRANCH   2   4
ENDBRANCH   1   2
BRANCH   1   6
ATOM      6  C   UNL     1       7.053  -0.101  -2.165  1.00  0.00     0.047 C 
BRANCH   6   7
ATOM      7  C   UNL     1       6.515   0.034  -0.812  1.00  0.00    -0.047 A 
ATOM      8  C   UNL     1       6.659  -0.980   0.106  1.00  0.00     0.004 A 
ATOM      9  C   UNL     1       5.861   1.192  -0.462  1.00  0.00     0.004 A 
ATOM     10  C   UNL     1       6.121  -0.783   1.380  1.00  0.00     0.000 A 
ATOM     11  C   UNL     1       5.330   1.386   0.797  1.00  0.00     0.000 A 
ATOM     12  C   UNL     1       5.469   0.374   1.723  1.00  0.00     0.000 A 
ENDBRANCH   6   7
ENDBRANCH   1   6
TORSDOF 4
ENDMDL
MODEL 2
REMARK VINA RESULT:      -7.3      0.146      1.734
REMARK SMILES O=C(O)CCc1ccccc1
REMARK SMILES IDX 4 1 2 2 1 3 3 4 5 6 6 7 7 8 11 9 8 10 10 11 9 12
REMARK H PARENT 3 5
REMARK Flexibility Score: inf
ROOT
ATOM      1  C   UNL     1       8.396  -0.679  -2.051  1.00  0.00     0.127 C 
ENDROOT
BRANCH   1   2
ATOM      2  C   UNL     1       8.370  -1.909  -2.877  1.00  0.00     0.303 C 
ATOM      3  O   UNL     1       7.286  -2.417  -3.254  1.00  0.00    -0.252 OA
BRANCH   2   4
ATOM      4  O   UNL     1       9.547  -2.534  -3.256  1.00  0.00    -0.481 OA
ATOM      5  H   UNL     1       9.571  -3.555  -3.329  1.00  0.00     0.296 HD
ENDBRANCH   2   4
ENDBRANCH   1   2
BRANCH   1   6
ATOM      6  C   UNL     1       7.022  -0.081  -2.054  1.00  0.00     0.047 C 
BRANCH   6   7
ATOM      7  C   UNL     1       6.449   0.097  -0.721  1.00  0.00    -0.047 A 
ATOM      8  C   UNL     1       5.801   1.263  -0.384  1.00  0.00     0.004 A 
ATOM      9  C   UNL     1       6.561  -0.919   0.199  1.00  0.00     0.004 A 
ATOM     10  C   UNL     1       5.276   1.363   0.906  1.00  0.00     0.000 A 
ATOM     11  C   UNL     1       6.043  -0.818   1.475  1.00  0.00     0.000 A 
ATOM     12  C   UNL     1       5.393   0.347   1.821  1.00  0.00     0.000 A 
ENDBRANCH   6   7
ENDBRANCH   1   6
TORSDOF 4
ENDMDL
MODEL 3
REMARK VINA RESULT:      -6.8      3.365      5.067
REMARK SMILES O=C(O)CCc1ccccc1
REMARK SMILES IDX 4 1 2 2 1 3 3 4 5 6 6 7 7 8 11 9 8 10 10 11 9 12
REMARK H PARENT 3 5
REMARK Flexibility Score: inf
ROOT
ATOM      1  C   UNL     1       5.045   1.773   0.699  1.00  0.00     0.127 C 
ENDROOT
BRANCH   1   2
ATOM      2  C   UNL     1       4.509   1.101   1.906  1.00  0.00     0.303 C 
ATOM      3  O   UNL     1       5.151   0.189   2.483  1.00  0.00    -0.252 OA
BRANCH   2   4
ATOM      4  O   UNL     1       3.279   1.463   2.432  1.00  0.00    -0.481 OA
ATOM      5  H   UNL     1       2.960   1.030   3.303  1.00  0.00     0.296 HD
ENDBRANCH   2   4
ENDBRANCH   1   2
BRANCH   1   6
ATOM      6  C   UNL     1       6.542   1.737   0.766  1.00  0.00     0.047 C 
BRANCH   6   7
ATOM      7  C   UNL     1       7.169   1.005  -0.333  1.00  0.00    -0.047 A 
ATOM      8  C   UNL     1       8.485   1.227  -0.665  1.00  0.00     0.004 A 
ATOM      9  C   UNL     1       6.428   0.083  -1.035  1.00  0.00     0.004 A 
ATOM     10  C   UNL     1       9.019   0.491  -1.725  1.00  0.00     0.000 A 
ATOM     11  C   UNL     1       6.957  -0.644  -2.083  1.00  0.00     0.000 A 
ATOM     12  C   UNL     1       8.274  -0.426  -2.423  1.00  0.00     0.000 A 
ENDBRANCH   6   7
ENDBRANCH   1   6
TORSDOF 4
ENDMDL
MODEL 4
REMARK VINA RESULT:      -6.7      3.796      4.931
REMARK SMILES O=C(O)CCc1ccccc1
REMARK SMILES IDX 4 1 2 2 1 3 3 4 5 6 6 7 7 8 11 9 8 10 10 11 9 12
REMARK H PARENT 3 5
REMARK Flexibility Score: inf
ROOT
ATOM      1  C   UNL     1       5.401   2.912   0.018  1.00  0.00     0.127 C 
ENDROOT
BRANCH   1   2
ATOM      2  C   UNL     1       6.228   3.866   0.794  1.00  0.00     0.303 C 
ATOM      3  O   UNL     1       6.881   4.775   0.223  1.00  0.00    -0.252 OA
BRANCH   2   4
ATOM      4  O   UNL     1       6.304   3.780   2.175  1.00  0.00    -0.481 OA
ATOM      5  H   UNL     1       5.445   3.834   2.728  1.00  0.00     0.296 HD
ENDBRANCH   2   4
ENDBRANCH   1   2
BRANCH   1   6
ATOM      6  C   UNL     1       4.921   1.840   0.949  1.00  0.00     0.047 C 
BRANCH   6   7
ATOM      7  C   UNL     1       5.699   0.604   0.883  1.00  0.00    -0.047 A 
ATOM      8  C   UNL     1       5.777  -0.236   1.969  1.00  0.00     0.004 A 
ATOM      9  C   UNL     1       6.354   0.285  -0.283  1.00  0.00     0.004 A 
ATOM     10  C   UNL     1       6.537  -1.400   1.835  1.00  0.00     0.000 A 
ATOM     11  C   UNL     1       7.105  -0.867  -0.414  1.00  0.00     0.000 A 
ATOM     12  C   UNL     1       7.190  -1.713   0.669  1.00  0.00     0.000 A 
ENDBRANCH   6   7
ENDBRANCH   1   6
TORSDOF 4
ENDMDL
MODEL 5
REMARK VINA RESULT:      -6.7      1.946      2.623
REMARK SMILES O=C(O)CCc1ccccc1
REMARK SMILES IDX 4 1 2 2 1 3 3 4 5 6 6 7 7 8 11 9 8 10 10 11 9 12
REMARK H PARENT 3 5
REMARK Flexibility Score: inf
ROOT
ATOM      1  C   UNL     1       8.193   0.265  -2.087  1.00  0.00     0.127 C 
ENDROOT
BRANCH   1   2
ATOM      2  C   UNL     1       9.369   0.369  -1.191  1.00  0.00     0.303 C 
ATOM      3  O   UNL     1       9.491  -0.376  -0.187  1.00  0.00    -0.252 OA
BRANCH   2   4
ATOM      4  O   UNL     1      10.370   1.295  -1.438  1.00  0.00    -0.481 OA
ATOM      5  H   UNL     1      10.312   2.222  -1.007  1.00  0.00     0.296 HD
ENDBRANCH   2   4
ENDBRANCH   1   2
BRANCH   1   6
ATOM      6  C   UNL     1       7.161  -0.586  -1.412  1.00  0.00     0.047 C 
BRANCH   6   7
ATOM      7  C   UNL     1       6.370   0.123  -0.407  1.00  0.00    -0.047 A 
ATOM      8  C   UNL     1       5.808   1.346  -0.689  1.00  0.00     0.004 A 
ATOM      9  C   UNL     1       6.190  -0.449   0.831  1.00  0.00     0.004 A 
ATOM     10  C   UNL     1       5.064   1.965   0.318  1.00  0.00     0.000 A 
ATOM     11  C   UNL     1       5.454   0.165   1.825  1.00  0.00     0.000 A 
ATOM     12  C   UNL     1       4.888   1.391   1.551  1.00  0.00     0.000 A 
ENDBRANCH   6   7
ENDBRANCH   1   6
TORSDOF 4
ENDMDL
