@<TRIPOS>MOLECULE
/home/cewinharhar/GITHUB/reincatalyze/data/processed/docking_pred/2023_Apr_20-15:07/13c3a96d7f073914410e4f6d6c0e2190084e407e_ligand_2.pdbqt
 12 12 0 0 0
SMALL
GASTEIGER

@<TRIPOS>ATOM
      1  C          5.4010    2.9120    0.0180 C.3     1  UNL1        0.1270
      2  C          6.2280    3.8660    0.7940 C.2     1  UNL1        0.3030
      3  O          6.8810    4.7750    0.2230 O.2     1  UNL1       -0.2520
      4  O          6.3040    3.7800    2.1750 O.3     1  UNL1       -0.4810
      5  H          5.4450    3.8340    2.7280 H       1  UNL1        0.2960
      6  C          4.9210    1.8400    0.9490 C.3     1  UNL1        0.0470
      7  C          5.6990    0.6040    0.8830 C.2     1  UNL1       -0.0470
      8  C          5.7770   -0.2360    1.9690 C.2     1  UNL1        0.0040
      9  C          6.3540    0.2850   -0.2830 C.2     1  UNL1        0.0040
     10  C          6.5370   -1.4000    1.8350 C.2     1  UNL1        0.0000
     11  C          7.1050   -0.8670   -0.4140 C.2     1  UNL1        0.0000
     12  C          7.1900   -1.7130    0.6690 C.2     1  UNL1        0.0000
@<TRIPOS>BOND
     1    11     9    1
     2    11    12    2
     3     9     7    2
     4     1     2    1
     5     1     6    1
     6     3     2    2
     7    12    10    1
     8     2     4    1
     9     7     6    1
    10     7     8    1
    11    10     8    2
    12     4     5    1
