@<TRIPOS>MOLECULE
/home/cewinharhar/GITHUB/reincatalyze/data/processed/docking_pred/2023_Apr_20-15:07/13c3a96d7f073914410e4f6d6c0e2190084e407e_ligand_2.pdbqt
 12 12 0 0 0
SMALL
GASTEIGER

@<TRIPOS>ATOM
      1  C          8.4720   -0.5790   -2.2120 C.3     1  UNL1        0.1270
      2  C          8.5010   -1.8850   -2.9120 C.2     1  UNL1        0.3030
      3  O          9.5780   -2.5080   -3.0820 O.2     1  UNL1       -0.2520
      4  O          7.3360   -2.4550   -3.3990 O.3     1  UNL1       -0.4810
      5  H          7.2440   -2.6240   -4.4050 H       1  UNL1        0.2960
      6  C          7.0530   -0.1010   -2.1650 C.3     1  UNL1        0.0470
      7  C          6.5150    0.0340   -0.8120 C.2     1  UNL1       -0.0470
      8  C          6.6590   -0.9800    0.1060 C.2     1  UNL1        0.0040
      9  C          5.8610    1.1920   -0.4620 C.2     1  UNL1        0.0040
     10  C          6.1210   -0.7830    1.3800 C.2     1  UNL1        0.0000
     11  C          5.3300    1.3860    0.7970 C.2     1  UNL1        0.0000
     12  C          5.4690    0.3740    1.7230 C.2     1  UNL1        0.0000
@<TRIPOS>BOND
     1     5     4    1
     2     4     2    1
     3     3     2    2
     4     2     1    1
     5     1     6    1
     6     6     7    1
     7     7     9    2
     8     7     8    1
     9     9    11    1
    10     8    10    2
    11    11    12    2
    12    10    12    1
