@<TRIPOS>MOLECULE
/home/cewinharhar/GITHUB/reincatalyze/data/processed/docking_pred/2023_Apr_20-15:07/13c3a96d7f073914410e4f6d6c0e2190084e407e_ligand_2.pdbqt
 12 12 0 0 0
SMALL
GASTEIGER

@<TRIPOS>ATOM
      1  C          8.1930    0.2650   -2.0870 C.3     1  UNL1        0.1270
      2  C          9.3690    0.3690   -1.1910 C.2     1  UNL1        0.3030
      3  O          9.4910   -0.3760   -0.1870 O.2     1  UNL1       -0.2520
      4  O         10.3700    1.2950   -1.4380 O.3     1  UNL1       -0.4810
      5  H         10.3120    2.2220   -1.0070 H       1  UNL1        0.2960
      6  C          7.1610   -0.5860   -1.4120 C.3     1  UNL1        0.0470
      7  C          6.3700    0.1230   -0.4070 C.2     1  UNL1       -0.0470
      8  C          5.8080    1.3460   -0.6890 C.2     1  UNL1        0.0040
      9  C          6.1900   -0.4490    0.8310 C.2     1  UNL1        0.0040
     10  C          5.0640    1.9650    0.3180 C.2     1  UNL1        0.0000
     11  C          5.4540    0.1650    1.8250 C.2     1  UNL1        0.0000
     12  C          4.8880    1.3910    1.5510 C.2     1  UNL1        0.0000
@<TRIPOS>BOND
     1     1     6    1
     2     1     2    1
     3     4     2    1
     4     4     5    1
     5     6     7    1
     6     2     3    2
     7     8     7    2
     8     8    10    1
     9     7     9    1
    10    10    12    2
    11     9    11    2
    12    12    11    1
