@<TRIPOS>MOLECULE
/home/cewinharhar/GITHUB/reincatalyze/data/processed/docking_pred/2023_Apr_20-15:07/13e8c6f9c16a4fbf8ad14846e02839591438c51f_ligand_2.pdbqt
 12 12 0 0 0
SMALL
GASTEIGER

@<TRIPOS>ATOM
      1  C          5.0610    1.7050    0.6980 C.3     1  UNL1        0.1270
      2  C          4.6000    1.0130    1.9250 C.2     1  UNL1        0.3030
      3  O          5.3090    0.1400    2.4840 O.2     1  UNL1       -0.2520
      4  O          3.3700    1.3110    2.4890 O.3     1  UNL1       -0.4810
      5  H          3.3370    1.7850    3.3950 H       1  UNL1        0.2960
      6  C          6.5580    1.7540    0.7190 C.3     1  UNL1        0.0470
      7  C          7.1930    1.0010   -0.3610 C.2     1  UNL1       -0.0470
      8  C          8.5200    1.1950   -0.6680 C.2     1  UNL1        0.0040
      9  C          6.4480    0.0900   -1.0730 C.2     1  UNL1        0.0040
     10  C          9.0610    0.4400   -1.7120 C.2     1  UNL1        0.0000
     11  C          6.9840   -0.6550   -2.1040 C.2     1  UNL1        0.0000
     12  C          8.3120   -0.4670   -2.4190 C.2     1  UNL1        0.0000
@<TRIPOS>BOND
     1    12    11    2
     2    12    10    1
     3    11     9    1
     4    10     8    2
     5     9     7    2
     6     8     7    1
     7     7     6    1
     8     1     6    1
     9     1     2    1
    10     2     3    2
    11     2     4    1
    12     4     5    1
