@<TRIPOS>MOLECULE
/home/cewinharhar/GITHUB/reincatalyze/data/processed/docking_pred/2023_Apr_20-15:07/13e8c6f9c16a4fbf8ad14846e02839591438c51f_ligand_2.pdbqt
 12 12 0 0 0
SMALL
GASTEIGER

@<TRIPOS>ATOM
      1  C          8.2610    0.1720   -2.1990 C.3     1  UNL1        0.1270
      2  C          9.3850    0.3330   -1.2470 C.2     1  UNL1        0.3030
      3  O          9.4800   -0.3880   -0.2230 O.2     1  UNL1       -0.2520
      4  O         10.3660    1.2880   -1.4620 O.3     1  UNL1       -0.4810
      5  H         11.1230    1.0890   -2.1210 H       1  UNL1        0.2960
      6  C          7.1700   -0.5920   -1.5140 C.3     1  UNL1        0.0470
      7  C          6.3860    0.2060   -0.5720 C.2     1  UNL1       -0.0470
      8  C          5.8610    1.4200   -0.9470 C.2     1  UNL1        0.0040
      9  C          6.1760   -0.2720    0.7000 C.2     1  UNL1        0.0040
     10  C          5.1220    2.1280    0.0030 C.2     1  UNL1        0.0000
     11  C          5.4450    0.4290    1.6390 C.2     1  UNL1        0.0000
     12  C          4.9160    1.6470    1.2710 C.2     1  UNL1        0.0000
@<TRIPOS>BOND
     1     1     6    1
     2     1     2    1
     3     5     4    1
     4     6     7    1
     5     4     2    1
     6     2     3    2
     7     8     7    2
     8     8    10    1
     9     7     9    1
    10    10    12    2
    11     9    11    2
    12    12    11    1
