@<TRIPOS>MOLECULE
/home/cewinharhar/GITHUB/reincatalyze/data/processed/docking_pred/2023_Apr_20-15:07/13e8c6f9c16a4fbf8ad14846e02839591438c51f_ligand_2.pdbqt
 12 12 0 0 0
SMALL
GASTEIGER

@<TRIPOS>ATOM
      1  C          8.2170   -1.6180    1.1420 C.3     1  UNL1        0.1270
      2  C          8.5180   -2.8390    0.3570 C.2     1  UNL1        0.3030
      3  O          9.1820   -3.7830    0.8510 O.2     1  UNL1       -0.2520
      4  O          8.0740   -2.9700   -0.9490 O.3     1  UNL1       -0.4810
      5  H          8.7530   -3.1580   -1.6930 H       1  UNL1        0.2960
      6  C          6.7280   -1.4850    1.2520 C.3     1  UNL1        0.0470
      7  C          6.2030   -0.2290    0.7200 C.2     1  UNL1       -0.0470
      8  C          6.4420    0.1380   -0.5830 C.2     1  UNL1        0.0040
      9  C          5.4600    0.5880    1.5400 C.2     1  UNL1        0.0040
     10  C          5.9090    1.3510   -1.0240 C.2     1  UNL1        0.0000
     11  C          4.9330    1.7870    1.1040 C.2     1  UNL1        0.0000
     12  C          5.1690    2.1630   -0.2010 C.2     1  UNL1        0.0000
@<TRIPOS>BOND
     1     5     4    1
     2    10     8    1
     3    10    12    2
     4     4     2    1
     5     8     7    2
     6    12    11    1
     7     2     3    2
     8     2     1    1
     9     7     6    1
    10     7     9    1
    11    11     9    2
    12     1     6    1
