@<TRIPOS>MOLECULE
/home/cewinharhar/GITHUB/reincatalyze/data/processed/docking_pred/2023_Apr_20-15:07/13e8c6f9c16a4fbf8ad14846e02839591438c51f_ligand_2.pdbqt
 12 12 0 0 0
SMALL
GASTEIGER

@<TRIPOS>ATOM
      1  C          8.4560   -0.6410   -2.0560 C.3     1  UNL1        0.1270
      2  C          8.3740   -1.8830   -2.8610 C.2     1  UNL1        0.3030
      3  O          7.2660   -2.3640   -3.2050 O.2     1  UNL1       -0.2520
      4  O          9.5220   -2.5490   -3.2570 O.3     1  UNL1       -0.4810
      5  H          9.9750   -2.2870   -4.1370 H       1  UNL1        0.2960
      6  C          7.1110    0.0200   -2.0720 C.3     1  UNL1        0.0470
      7  C          6.5050    0.1670   -0.7500 C.2     1  UNL1       -0.0470
      8  C          6.6200   -0.8300    0.1910 C.2     1  UNL1        0.0040
      9  C          5.8160    1.3200   -0.4510 C.2     1  UNL1        0.0040
     10  C          6.0170   -0.6210    1.4340 C.2     1  UNL1        0.0000
     11  C          5.2200    1.5240    0.7770 C.2     1  UNL1        0.0000
     12  C          5.3300    0.5300    1.7250 C.2     1  UNL1        0.0000
@<TRIPOS>BOND
     1     5     4    1
     2     4     2    1
     3     3     2    2
     4     2     1    1
     5     6     1    1
     6     6     7    1
     7     7     9    2
     8     7     8    1
     9     9    11    1
    10     8    10    2
    11    11    12    2
    12    10    12    1
