@<TRIPOS>MOLECULE
/home/cewinharhar/GITHUB/reincatalyze/data/processed/docking_pred/2023_Apr_20-15:07/13e8c6f9c16a4fbf8ad14846e02839591438c51f_ligand_2.pdbqt
 12 12 0 0 0
SMALL
GASTEIGER

@<TRIPOS>ATOM
      1  C          8.4070   -0.6880   -2.0390 C.3     1  UNL1        0.1270
      2  C          8.3750   -1.9120   -2.8730 C.2     1  UNL1        0.3030
      3  O          7.2870   -2.4140   -3.2500 O.2     1  UNL1       -0.2520
      4  O          9.5480   -2.5390   -3.2590 O.3     1  UNL1       -0.4810
      5  H         10.3950   -2.4070   -2.7000 H       1  UNL1        0.2960
      6  C          7.0410   -0.0720   -2.0530 C.3     1  UNL1        0.0470
      7  C          6.4590    0.1130   -0.7250 C.2     1  UNL1       -0.0470
      8  C          5.8040    1.2790   -0.4010 C.2     1  UNL1        0.0040
      9  C          6.5700   -0.8950    0.2030 C.2     1  UNL1        0.0040
     10  C          5.2710    1.3870    0.8850 C.2     1  UNL1        0.0000
     11  C          6.0430   -0.7870    1.4750 C.2     1  UNL1        0.0000
     12  C          5.3860    0.3780    1.8080 C.2     1  UNL1        0.0000
@<TRIPOS>BOND
     1     4     2    1
     2     4     5    1
     3     3     2    2
     4     2     1    1
     5     6     1    1
     6     6     7    1
     7     7     8    2
     8     7     9    1
     9     8    10    1
    10     9    11    2
    11    10    12    2
    12    11    12    1
