@<TRIPOS>MOLECULE
/home/cewinharhar/GITHUB/reincatalyze/data/processed/docking_pred/2023_Apr_20-15:07/141a4713aaf07cdd351da17b8461b13d6c9c65f9_ligand_2.pdbqt
 12 12 0 0 0
SMALL
GASTEIGER

@<TRIPOS>ATOM
      1  C          5.0030    1.7810    0.6940 C.3     1  UNL1        0.1270
      2  C          4.5400    1.0810    1.9160 C.2     1  UNL1        0.3030
      3  O          3.4220    1.3360    2.4280 O.2     1  UNL1       -0.2520
      4  O          5.3320    0.1240    2.5300 O.3     1  UNL1       -0.4810
      5  H          6.0810   -0.3240    1.9950 H       1  UNL1        0.2960
      6  C          6.5010    1.8140    0.7100 C.3     1  UNL1        0.0470
      7  C          7.1240    1.0440   -0.3650 C.2     1  UNL1       -0.0470
      8  C          6.3870    0.1530   -1.1100 C.2     1  UNL1        0.0040
      9  C          8.4630    1.2200   -0.6280 C.2     1  UNL1        0.0040
     10  C          7.0480   -0.5480   -2.1210 C.2     1  UNL1        0.0000
     11  C          9.1150    0.5260   -1.6280 C.2     1  UNL1        0.0000
     12  C          8.3840   -0.3690   -2.3790 C.2     1  UNL1        0.0000
@<TRIPOS>BOND
     1    12    10    2
     2    12    11    1
     3    10     8    1
     4    11     9    2
     5     8     7    2
     6     9     7    1
     7     7     6    1
     8     1     6    1
     9     1     2    1
    10     2     3    2
    11     2     4    1
    12     5     4    1
