@<TRIPOS>MOLECULE
/home/cewinharhar/GITHUB/reincatalyze/data/processed/docking_pred/2023_Apr_20-15:07/141a4713aaf07cdd351da17b8461b13d6c9c65f9_ligand_2.pdbqt
 12 12 0 0 0
SMALL
GASTEIGER

@<TRIPOS>ATOM
      1  C          8.1680    0.2700   -2.1590 C.3     1  UNL1        0.1270
      2  C          9.3260    0.3400   -1.2370 C.2     1  UNL1        0.3030
      3  O          9.4220   -0.4340   -0.2530 O.2     1  UNL1       -0.2520
      4  O         10.3380    1.2650   -1.4370 O.3     1  UNL1       -0.4810
      5  H         10.3500    2.1230   -0.8800 H       1  UNL1        0.2960
      6  C          7.0910   -0.5390   -1.5020 C.3     1  UNL1        0.0470
      7  C          6.3220    0.1980   -0.5000 C.2     1  UNL1       -0.0470
      8  C          5.7950    1.4350   -0.7880 C.2     1  UNL1        0.0040
      9  C          6.1250   -0.3630    0.7410 C.2     1  UNL1        0.0040
     10  C          5.0700    2.0810    0.2160 C.2     1  UNL1        0.0000
     11  C          5.4080    0.2770    1.7320 C.2     1  UNL1        0.0000
     12  C          4.8780    1.5170    1.4520 C.2     1  UNL1        0.0000
@<TRIPOS>BOND
     1     1     6    1
     2     1     2    1
     3     6     7    1
     4     4     2    1
     5     4     5    1
     6     2     3    2
     7     8     7    2
     8     8    10    1
     9     7     9    1
    10    10    12    2
    11     9    11    2
    12    12    11    1
