@<TRIPOS>MOLECULE
/home/cewinharhar/GITHUB/reincatalyze/data/processed/docking_pred/2023_Apr_20-15:07/141a4713aaf07cdd351da17b8461b13d6c9c65f9_ligand_2.pdbqt
 12 12 0 0 0
SMALL
GASTEIGER

@<TRIPOS>ATOM
      1  C          5.3610    2.9350    0.0520 C.3     1  UNL1        0.1270
      2  C          6.2010    3.8900    0.8140 C.2     1  UNL1        0.3030
      3  O          6.8730    4.7750    0.2290 O.2     1  UNL1       -0.2520
      4  O          6.2670    3.8310    2.1960 O.3     1  UNL1       -0.4810
      5  H          7.1170    4.1450    2.6710 H       1  UNL1        0.2960
      6  C          5.0510    1.7680    0.9400 C.3     1  UNL1        0.0470
      7  C          5.8570    0.5800    0.6640 C.2     1  UNL1       -0.0470
      8  C          6.0740   -0.3650    1.6390 C.2     1  UNL1        0.0040
      9  C          6.3990    0.4130   -0.5900 C.2     1  UNL1        0.0040
     10  C          6.8520   -1.4750    1.3050 C.2     1  UNL1        0.0000
     11  C          7.1680   -0.6850   -0.9190 C.2     1  UNL1        0.0000
     12  C          7.3910   -1.6360    0.0530 C.2     1  UNL1        0.0000
@<TRIPOS>BOND
     1    11     9    1
     2    11    12    2
     3     9     7    2
     4     1     2    1
     5     1     6    1
     6    12    10    1
     7     3     2    2
     8     7     6    1
     9     7     8    1
    10     2     4    1
    11    10     8    2
    12     4     5    1
