@<TRIPOS>MOLECULE
/home/cewinharhar/GITHUB/reincatalyze/data/processed/docking_pred/2023_Apr_20-15:07/141a4713aaf07cdd351da17b8461b13d6c9c65f9_ligand_2.pdbqt
 12 12 0 0 0
SMALL
GASTEIGER

@<TRIPOS>ATOM
      1  C          8.4290   -0.5960   -2.1900 C.3     1  UNL1        0.1270
      2  C          8.4660   -1.8880   -2.9150 C.2     1  UNL1        0.3030
      3  O          9.5480   -2.4990   -3.1020 O.2     1  UNL1       -0.2520
      4  O          7.3040   -2.4590   -3.4080 O.3     1  UNL1       -0.4810
      5  H          6.8580   -3.2180   -2.8860 H       1  UNL1        0.2960
      6  C          7.0080   -0.1230   -2.1440 C.3     1  UNL1        0.0470
      7  C          6.4790    0.0380   -0.7910 C.2     1  UNL1       -0.0470
      8  C          5.8550    1.2050   -0.4140 C.2     1  UNL1        0.0040
      9  C          6.6090   -0.9950    0.1080 C.2     1  UNL1        0.0040
     10  C          5.3720    1.2880    0.8940 C.2     1  UNL1        0.0000
     11  C          6.1310   -0.9110    1.4010 C.2     1  UNL1        0.0000
     12  C          5.5060    0.2550    1.7870 C.2     1  UNL1        0.0000
@<TRIPOS>BOND
     1     4     2    1
     2     4     5    1
     3     3     2    2
     4     2     1    1
     5     1     6    1
     6     6     7    1
     7     7     8    2
     8     7     9    1
     9     8    10    1
    10     9    11    2
    11    10    12    2
    12    11    12    1
