MODEL 1
REMARK VINA RESULT:      -7.3      0.000      0.000
REMARK SMILES O=C(O)CCc1ccccc1
REMARK SMILES IDX 4 1 2 2 1 3 3 4 5 6 6 7 7 8 11 9 8 10 10 11 9 12
REMARK H PARENT 3 5
REMARK Flexibility Score: inf
ROOT
ATOM      1  C   UNL     1       8.429  -0.596  -2.190  1.00  0.00     0.127 C 
ENDROOT
BRANCH   1   2
ATOM      2  C   UNL     1       8.466  -1.888  -2.915  1.00  0.00     0.303 C 
ATOM      3  O   UNL     1       9.548  -2.499  -3.102  1.00  0.00    -0.252 OA
BRANCH   2   4
ATOM      4  O   UNL     1       7.304  -2.459  -3.408  1.00  0.00    -0.481 OA
ATOM      5  H   UNL     1       6.858  -3.218  -2.886  1.00  0.00     0.296 HD
ENDBRANCH   2   4
ENDBRANCH   1   2
BRANCH   1   6
ATOM      6  C   UNL     1       7.008  -0.123  -2.144  1.00  0.00     0.047 C 
BRANCH   6   7
ATOM      7  C   UNL     1       6.479   0.038  -0.791  1.00  0.00    -0.047 A 
ATOM      8  C   UNL     1       5.855   1.205  -0.414  1.00  0.00     0.004 A 
ATOM      9  C   UNL     1       6.609  -0.995   0.108  1.00  0.00     0.004 A 
ATOM     10  C   UNL     1       5.372   1.288   0.894  1.00  0.00     0.000 A 
ATOM     11  C   UNL     1       6.131  -0.911   1.401  1.00  0.00     0.000 A 
ATOM     12  C   UNL     1       5.506   0.255   1.787  1.00  0.00     0.000 A 
ENDBRANCH   6   7
ENDBRANCH   1   6
TORSDOF 4
ENDMDL
MODEL 2
REMARK VINA RESULT:      -7.3      0.152      1.733
REMARK SMILES O=C(O)CCc1ccccc1
REMARK SMILES IDX 4 1 2 2 1 3 3 4 5 6 6 7 7 8 11 9 8 10 10 11 9 12
REMARK H PARENT 3 5
REMARK Flexibility Score: inf
ROOT
ATOM      1  C   UNL     1       8.464  -0.616  -2.146  1.00  0.00     0.127 C 
ENDROOT
BRANCH   1   2
ATOM      2  C   UNL     1       8.405  -1.899  -2.886  1.00  0.00     0.303 C 
ATOM      3  O   UNL     1       7.306  -2.416  -3.206  1.00  0.00    -0.252 OA
BRANCH   2   4
ATOM      4  O   UNL     1       9.565  -2.566  -3.245  1.00  0.00    -0.481 OA
ATOM      5  H   UNL     1      10.108  -2.231  -4.046  1.00  0.00     0.296 HD
ENDBRANCH   2   4
ENDBRANCH   1   2
BRANCH   1   6
ATOM      6  C   UNL     1       7.089  -0.020  -2.127  1.00  0.00     0.047 C 
BRANCH   6   7
ATOM      7  C   UNL     1       6.515   0.108  -0.789  1.00  0.00    -0.047 A 
ATOM      8  C   UNL     1       6.654  -0.901   0.135  1.00  0.00     0.004 A 
ATOM      9  C   UNL     1       5.831   1.255  -0.459  1.00  0.00     0.004 A 
ATOM     10  C   UNL     1       6.080  -0.711   1.394  1.00  0.00     0.000 A 
ATOM     11  C   UNL     1       5.264   1.441   0.786  1.00  0.00     0.000 A 
ATOM     12  C   UNL     1       5.398   0.435   1.718  1.00  0.00     0.000 A 
ENDBRANCH   6   7
ENDBRANCH   1   6
TORSDOF 4
ENDMDL
MODEL 3
REMARK VINA RESULT:      -6.6      3.336      5.116
REMARK SMILES O=C(O)CCc1ccccc1
REMARK SMILES IDX 4 1 2 2 1 3 3 4 5 6 6 7 7 8 11 9 8 10 10 11 9 12
REMARK H PARENT 3 5
REMARK Flexibility Score: inf
ROOT
ATOM      1  C   UNL     1       5.003   1.781   0.694  1.00  0.00     0.127 C 
ENDROOT
BRANCH   1   2
ATOM      2  C   UNL     1       4.540   1.081   1.916  1.00  0.00     0.303 C 
ATOM      3  O   UNL     1       3.422   1.336   2.428  1.00  0.00    -0.252 OA
BRANCH   2   4
ATOM      4  O   UNL     1       5.332   0.124   2.530  1.00  0.00    -0.481 OA
ATOM      5  H   UNL     1       6.081  -0.324   1.995  1.00  0.00     0.296 HD
ENDBRANCH   2   4
ENDBRANCH   1   2
BRANCH   1   6
ATOM      6  C   UNL     1       6.501   1.814   0.710  1.00  0.00     0.047 C 
BRANCH   6   7
ATOM      7  C   UNL     1       7.124   1.044  -0.365  1.00  0.00    -0.047 A 
ATOM      8  C   UNL     1       6.387   0.153  -1.110  1.00  0.00     0.004 A 
ATOM      9  C   UNL     1       8.463   1.220  -0.628  1.00  0.00     0.004 A 
ATOM     10  C   UNL     1       7.048  -0.548  -2.121  1.00  0.00     0.000 A 
ATOM     11  C   UNL     1       9.115   0.526  -1.628  1.00  0.00     0.000 A 
ATOM     12  C   UNL     1       8.384  -0.369  -2.379  1.00  0.00     0.000 A 
ENDBRANCH   6   7
ENDBRANCH   1   6
TORSDOF 4
ENDMDL
MODEL 4
REMARK VINA RESULT:      -6.6      1.916      2.256
REMARK SMILES O=C(O)CCc1ccccc1
REMARK SMILES IDX 4 1 2 2 1 3 3 4 5 6 6 7 7 8 11 9 8 10 10 11 9 12
REMARK H PARENT 3 5
REMARK Flexibility Score: inf
ROOT
ATOM      1  C   UNL     1       8.168   0.270  -2.159  1.00  0.00     0.127 C 
ENDROOT
BRANCH   1   2
ATOM      2  C   UNL     1       9.326   0.340  -1.237  1.00  0.00     0.303 C 
ATOM      3  O   UNL     1       9.422  -0.434  -0.253  1.00  0.00    -0.252 OA
BRANCH   2   4
ATOM      4  O   UNL     1      10.338   1.265  -1.437  1.00  0.00    -0.481 OA
ATOM      5  H   UNL     1      10.350   2.123  -0.880  1.00  0.00     0.296 HD
ENDBRANCH   2   4
ENDBRANCH   1   2
BRANCH   1   6
ATOM      6  C   UNL     1       7.091  -0.539  -1.502  1.00  0.00     0.047 C 
BRANCH   6   7
ATOM      7  C   UNL     1       6.322   0.198  -0.500  1.00  0.00    -0.047 A 
ATOM      8  C   UNL     1       5.795   1.435  -0.788  1.00  0.00     0.004 A 
ATOM      9  C   UNL     1       6.125  -0.363   0.741  1.00  0.00     0.004 A 
ATOM     10  C   UNL     1       5.070   2.081   0.216  1.00  0.00     0.000 A 
ATOM     11  C   UNL     1       5.408   0.277   1.732  1.00  0.00     0.000 A 
ATOM     12  C   UNL     1       4.878   1.517   1.452  1.00  0.00     0.000 A 
ENDBRANCH   6   7
ENDBRANCH   1   6
TORSDOF 4
ENDMDL
MODEL 5
REMARK VINA RESULT:      -6.6      3.732      5.028
REMARK SMILES O=C(O)CCc1ccccc1
REMARK SMILES IDX 4 1 2 2 1 3 3 4 5 6 6 7 7 8 11 9 8 10 10 11 9 12
REMARK H PARENT 3 5
REMARK Flexibility Score: inf
ROOT
ATOM      1  C   UNL     1       5.361   2.935   0.052  1.00  0.00     0.127 C 
ENDROOT
BRANCH   1   2
ATOM      2  C   UNL     1       6.201   3.890   0.814  1.00  0.00     0.303 C 
ATOM      3  O   UNL     1       6.873   4.775   0.229  1.00  0.00    -0.252 OA
BRANCH   2   4
ATOM      4  O   UNL     1       6.267   3.831   2.196  1.00  0.00    -0.481 OA
ATOM      5  H   UNL     1       7.117   4.145   2.671  1.00  0.00     0.296 HD
ENDBRANCH   2   4
ENDBRANCH   1   2
BRANCH   1   6
ATOM      6  C   UNL     1       5.051   1.768   0.940  1.00  0.00     0.047 C 
BRANCH   6   7
ATOM      7  C   UNL     1       5.857   0.580   0.664  1.00  0.00    -0.047 A 
ATOM      8  C   UNL     1       6.074  -0.365   1.639  1.00  0.00     0.004 A 
ATOM      9  C   UNL     1       6.399   0.413  -0.590  1.00  0.00     0.004 A 
ATOM     10  C   UNL     1       6.852  -1.475   1.305  1.00  0.00     0.000 A 
ATOM     11  C   UNL     1       7.168  -0.685  -0.919  1.00  0.00     0.000 A 
ATOM     12  C   UNL     1       7.391  -1.636   0.053  1.00  0.00     0.000 A 
ENDBRANCH   6   7
ENDBRANCH   1   6
TORSDOF 4
ENDMDL
