@<TRIPOS>MOLECULE
/home/cewinharhar/GITHUB/reincatalyze/data/processed/docking_pred/2023_Apr_20-15:07/141a4713aaf07cdd351da17b8461b13d6c9c65f9_ligand_2.pdbqt
 12 12 0 0 0
SMALL
GASTEIGER

@<TRIPOS>ATOM
      1  C          8.4640   -0.6160   -2.1460 C.3     1  UNL1        0.1270
      2  C          8.4050   -1.8990   -2.8860 C.2     1  UNL1        0.3030
      3  O          7.3060   -2.4160   -3.2060 O.2     1  UNL1       -0.2520
      4  O          9.5650   -2.5660   -3.2450 O.3     1  UNL1       -0.4810
      5  H         10.1080   -2.2310   -4.0460 H       1  UNL1        0.2960
      6  C          7.0890   -0.0200   -2.1270 C.3     1  UNL1        0.0470
      7  C          6.5150    0.1080   -0.7890 C.2     1  UNL1       -0.0470
      8  C          6.6540   -0.9010    0.1350 C.2     1  UNL1        0.0040
      9  C          5.8310    1.2550   -0.4590 C.2     1  UNL1        0.0040
     10  C          6.0800   -0.7110    1.3940 C.2     1  UNL1        0.0000
     11  C          5.2640    1.4410    0.7860 C.2     1  UNL1        0.0000
     12  C          5.3980    0.4350    1.7180 C.2     1  UNL1        0.0000
@<TRIPOS>BOND
     1     5     4    1
     2     4     2    1
     3     3     2    2
     4     2     1    1
     5     1     6    1
     6     6     7    1
     7     7     9    2
     8     7     8    1
     9     9    11    1
    10     8    10    2
    11    11    12    2
    12    10    12    1
