@<TRIPOS>MOLECULE
/home/cewinharhar/GITHUB/reincatalyze/data/processed/docking_pred/2023_Apr_20-15:07/141be626e2cd6ba8f6b8a46d6dbef4dd02701a2b_ligand_2.pdbqt
 12 12 0 0 0
SMALL
GASTEIGER

@<TRIPOS>ATOM
      1  C          5.4730    2.8910    0.0110 C.3     1  UNL1        0.1270
      2  C          6.2500    3.8740    0.8020 C.2     1  UNL1        0.3030
      3  O          6.9220    4.7750    0.2420 O.2     1  UNL1       -0.2520
      4  O          6.2570    3.8240    2.1870 O.3     1  UNL1       -0.4810
      5  H          6.9740    3.2720    2.6650 H       1  UNL1        0.2960
      6  C          4.9240    1.8600    0.9500 C.3     1  UNL1        0.0470
      7  C          5.6940    0.6170    0.9840 C.2     1  UNL1       -0.0470
      8  C          5.7530   -0.1420    2.1290 C.2     1  UNL1        0.0040
      9  C          6.3600    0.2090   -0.1480 C.2     1  UNL1        0.0040
     10  C          6.5060   -1.3170    2.0900 C.2     1  UNL1        0.0000
     11  C          7.1050   -0.9530   -0.1860 C.2     1  UNL1        0.0000
     12  C          7.1700   -1.7190    0.9580 C.2     1  UNL1        0.0000
@<TRIPOS>BOND
     1    11     9    1
     2    11    12    2
     3     9     7    2
     4     1     2    1
     5     1     6    1
     6     3     2    2
     7     2     4    1
     8     6     7    1
     9    12    10    1
    10     7     8    1
    11    10     8    2
    12     4     5    1
