@<TRIPOS>MOLECULE
/home/cewinharhar/GITHUB/reincatalyze/data/processed/docking_pred/2023_Apr_20-15:07/141be626e2cd6ba8f6b8a46d6dbef4dd02701a2b_ligand_2.pdbqt
 12 12 0 0 0
SMALL
GASTEIGER

@<TRIPOS>ATOM
      1  C          8.3790   -0.6390   -2.0960 C.3     1  UNL1        0.1270
      2  C          8.3620   -1.8890   -2.8920 C.2     1  UNL1        0.3030
      3  O          7.2810   -2.4100   -3.2620 O.2     1  UNL1       -0.2520
      4  O          9.5430   -2.5190   -3.2490 O.3     1  UNL1       -0.4810
      5  H         10.3810   -1.9550   -3.4150 H       1  UNL1        0.2960
      6  C          6.9880   -0.0820   -2.0640 C.3     1  UNL1        0.0470
      7  C          6.4420    0.0760   -0.7170 C.2     1  UNL1       -0.0470
      8  C          5.8110    1.2410   -0.3460 C.2     1  UNL1        0.0040
      9  C          6.5640   -0.9580    0.1820 C.2     1  UNL1        0.0040
     10  C          5.3130    1.3220    0.9560 C.2     1  UNL1        0.0000
     11  C          6.0710   -0.8760    1.4690 C.2     1  UNL1        0.0000
     12  C          5.4380    0.2880    1.8490 C.2     1  UNL1        0.0000
@<TRIPOS>BOND
     1     5     4    1
     2     3     2    2
     3     4     2    1
     4     2     1    1
     5     1     6    1
     6     6     7    1
     7     7     8    2
     8     7     9    1
     9     8    10    1
    10     9    11    2
    11    10    12    2
    12    11    12    1
