@<TRIPOS>MOLECULE
/home/cewinharhar/GITHUB/reincatalyze/data/processed/docking_pred/2023_Apr_20-15:07/141be626e2cd6ba8f6b8a46d6dbef4dd02701a2b_ligand_2.pdbqt
 12 12 0 0 0
SMALL
GASTEIGER

@<TRIPOS>ATOM
      1  C          5.0020    1.7800    0.6960 C.3     1  UNL1        0.1270
      2  C          4.4840    1.1080    1.9110 C.2     1  UNL1        0.3030
      3  O          5.1390    0.2020    2.4820 O.2     1  UNL1       -0.2520
      4  O          3.2590    1.4630    2.4510 O.3     1  UNL1       -0.4810
      5  H          2.6730    0.7420    2.8820 H       1  UNL1        0.2960
      6  C          6.4990    1.7600    0.7480 C.3     1  UNL1        0.0470
      7  C          7.1210    1.0060   -0.3390 C.2     1  UNL1       -0.0470
      8  C          6.3980    0.0850   -1.0600 C.2     1  UNL1        0.0040
      9  C          8.4450    1.2290   -0.6390 C.2     1  UNL1        0.0040
     10  C          7.0570   -0.5980   -2.0850 C.2     1  UNL1        0.0000
     11  C          9.0950    0.5530   -1.6520 C.2     1  UNL1        0.0000
     12  C          8.3780   -0.3720   -2.3790 C.2     1  UNL1        0.0000
@<TRIPOS>BOND
     1    12    10    2
     2    12    11    1
     3    10     8    1
     4    11     9    2
     5     8     7    2
     6     9     7    1
     7     7     6    1
     8     1     6    1
     9     1     2    1
    10     2     4    1
    11     2     3    2
    12     4     5    1
