MODEL 1
REMARK VINA RESULT:      -7.3      0.000      0.000
REMARK SMILES O=C(O)CCc1ccccc1
REMARK SMILES IDX 4 1 2 2 1 3 3 4 5 6 6 7 7 8 11 9 8 10 10 11 9 12
REMARK H PARENT 3 5
REMARK Flexibility Score: inf
ROOT
ATOM      1  C   UNL     1       8.433  -0.535  -2.279  1.00  0.00     0.127 C 
ENDROOT
BRANCH   1   2
ATOM      2  C   UNL     1       8.490  -1.849  -2.961  1.00  0.00     0.303 C 
ATOM      3  O   UNL     1       9.580  -2.453  -3.120  1.00  0.00    -0.252 OA
BRANCH   2   4
ATOM      4  O   UNL     1       7.339  -2.450  -3.443  1.00  0.00    -0.481 OA
ATOM      5  H   UNL     1       6.628  -2.774  -2.781  1.00  0.00     0.296 HD
ENDBRANCH   2   4
ENDBRANCH   1   2
BRANCH   1   6
ATOM      6  C   UNL     1       6.999  -0.109  -2.199  1.00  0.00     0.047 C 
BRANCH   6   7
ATOM      7  C   UNL     1       6.496   0.033  -0.833  1.00  0.00    -0.047 A 
ATOM      8  C   UNL     1       6.639  -0.987   0.078  1.00  0.00     0.004 A 
ATOM      9  C   UNL     1       5.878   1.205  -0.464  1.00  0.00     0.004 A 
ATOM     10  C   UNL     1       6.136  -0.782   1.365  1.00  0.00     0.000 A 
ATOM     11  C   UNL     1       5.381   1.406   0.809  1.00  0.00     0.000 A 
ATOM     12  C   UNL     1       5.519   0.388   1.728  1.00  0.00     0.000 A 
ENDBRANCH   6   7
ENDBRANCH   1   6
TORSDOF 4
ENDMDL
MODEL 2
REMARK VINA RESULT:      -7.3      0.163      1.736
REMARK SMILES O=C(O)CCc1ccccc1
REMARK SMILES IDX 4 1 2 2 1 3 3 4 5 6 6 7 7 8 11 9 8 10 10 11 9 12
REMARK H PARENT 3 5
REMARK Flexibility Score: inf
ROOT
ATOM      1  C   UNL     1       8.379  -0.639  -2.096  1.00  0.00     0.127 C 
ENDROOT
BRANCH   1   2
ATOM      2  C   UNL     1       8.362  -1.889  -2.892  1.00  0.00     0.303 C 
ATOM      3  O   UNL     1       7.281  -2.410  -3.262  1.00  0.00    -0.252 OA
BRANCH   2   4
ATOM      4  O   UNL     1       9.543  -2.519  -3.249  1.00  0.00    -0.481 OA
ATOM      5  H   UNL     1      10.381  -1.955  -3.415  1.00  0.00     0.296 HD
ENDBRANCH   2   4
ENDBRANCH   1   2
BRANCH   1   6
ATOM      6  C   UNL     1       6.988  -0.082  -2.064  1.00  0.00     0.047 C 
BRANCH   6   7
ATOM      7  C   UNL     1       6.442   0.076  -0.717  1.00  0.00    -0.047 A 
ATOM      8  C   UNL     1       5.811   1.241  -0.346  1.00  0.00     0.004 A 
ATOM      9  C   UNL     1       6.564  -0.958   0.182  1.00  0.00     0.004 A 
ATOM     10  C   UNL     1       5.313   1.322   0.956  1.00  0.00     0.000 A 
ATOM     11  C   UNL     1       6.071  -0.876   1.469  1.00  0.00     0.000 A 
ATOM     12  C   UNL     1       5.438   0.288   1.849  1.00  0.00     0.000 A 
ENDBRANCH   6   7
ENDBRANCH   1   6
TORSDOF 4
ENDMDL
MODEL 3
REMARK VINA RESULT:      -6.8      3.387      5.059
REMARK SMILES O=C(O)CCc1ccccc1
REMARK SMILES IDX 4 1 2 2 1 3 3 4 5 6 6 7 7 8 11 9 8 10 10 11 9 12
REMARK H PARENT 3 5
REMARK Flexibility Score: inf
ROOT
ATOM      1  C   UNL     1       5.002   1.780   0.696  1.00  0.00     0.127 C 
ENDROOT
BRANCH   1   2
ATOM      2  C   UNL     1       4.484   1.108   1.911  1.00  0.00     0.303 C 
ATOM      3  O   UNL     1       5.139   0.202   2.482  1.00  0.00    -0.252 OA
BRANCH   2   4
ATOM      4  O   UNL     1       3.259   1.463   2.451  1.00  0.00    -0.481 OA
ATOM      5  H   UNL     1       2.673   0.742   2.882  1.00  0.00     0.296 HD
ENDBRANCH   2   4
ENDBRANCH   1   2
BRANCH   1   6
ATOM      6  C   UNL     1       6.499   1.760   0.748  1.00  0.00     0.047 C 
BRANCH   6   7
ATOM      7  C   UNL     1       7.121   1.006  -0.339  1.00  0.00    -0.047 A 
ATOM      8  C   UNL     1       6.398   0.085  -1.060  1.00  0.00     0.004 A 
ATOM      9  C   UNL     1       8.445   1.229  -0.639  1.00  0.00     0.004 A 
ATOM     10  C   UNL     1       7.057  -0.598  -2.085  1.00  0.00     0.000 A 
ATOM     11  C   UNL     1       9.095   0.553  -1.652  1.00  0.00     0.000 A 
ATOM     12  C   UNL     1       8.378  -0.372  -2.379  1.00  0.00     0.000 A 
ENDBRANCH   6   7
ENDBRANCH   1   6
TORSDOF 4
ENDMDL
MODEL 4
REMARK VINA RESULT:      -6.7      3.838      4.937
REMARK SMILES O=C(O)CCc1ccccc1
REMARK SMILES IDX 4 1 2 2 1 3 3 4 5 6 6 7 7 8 11 9 8 10 10 11 9 12
REMARK H PARENT 3 5
REMARK Flexibility Score: inf
ROOT
ATOM      1  C   UNL     1       5.473   2.891   0.011  1.00  0.00     0.127 C 
ENDROOT
BRANCH   1   2
ATOM      2  C   UNL     1       6.250   3.874   0.802  1.00  0.00     0.303 C 
ATOM      3  O   UNL     1       6.922   4.775   0.242  1.00  0.00    -0.252 OA
BRANCH   2   4
ATOM      4  O   UNL     1       6.257   3.824   2.187  1.00  0.00    -0.481 OA
ATOM      5  H   UNL     1       6.974   3.272   2.665  1.00  0.00     0.296 HD
ENDBRANCH   2   4
ENDBRANCH   1   2
BRANCH   1   6
ATOM      6  C   UNL     1       4.924   1.860   0.950  1.00  0.00     0.047 C 
BRANCH   6   7
ATOM      7  C   UNL     1       5.694   0.617   0.984  1.00  0.00    -0.047 A 
ATOM      8  C   UNL     1       5.753  -0.142   2.129  1.00  0.00     0.004 A 
ATOM      9  C   UNL     1       6.360   0.209  -0.148  1.00  0.00     0.004 A 
ATOM     10  C   UNL     1       6.506  -1.317   2.090  1.00  0.00     0.000 A 
ATOM     11  C   UNL     1       7.105  -0.953  -0.186  1.00  0.00     0.000 A 
ATOM     12  C   UNL     1       7.170  -1.719   0.958  1.00  0.00     0.000 A 
ENDBRANCH   6   7
ENDBRANCH   1   6
TORSDOF 4
ENDMDL
MODEL 5
REMARK VINA RESULT:      -6.6      1.931      2.644
REMARK SMILES O=C(O)CCc1ccccc1
REMARK SMILES IDX 4 1 2 2 1 3 3 4 5 6 6 7 7 8 11 9 8 10 10 11 9 12
REMARK H PARENT 3 5
REMARK Flexibility Score: inf
ROOT
ATOM      1  C   UNL     1       8.270   0.181  -2.198  1.00  0.00     0.127 C 
ENDROOT
BRANCH   1   2
ATOM      2  C   UNL     1       9.387   0.332  -1.236  1.00  0.00     0.303 C 
ATOM      3  O   UNL     1       9.468  -0.393  -0.214  1.00  0.00    -0.252 OA
BRANCH   2   4
ATOM      4  O   UNL     1      10.375   1.282  -1.439  1.00  0.00    -0.481 OA
ATOM      5  H   UNL     1      11.078   1.437  -0.711  1.00  0.00     0.296 HD
ENDBRANCH   2   4
ENDBRANCH   1   2
BRANCH   1   6
ATOM      6  C   UNL     1       7.160  -0.562  -1.518  1.00  0.00     0.047 C 
BRANCH   6   7
ATOM      7  C   UNL     1       6.368   0.259  -0.604  1.00  0.00    -0.047 A 
ATOM      8  C   UNL     1       5.846   1.464  -1.014  1.00  0.00     0.004 A 
ATOM      9  C   UNL     1       6.144  -0.188   0.678  1.00  0.00     0.004 A 
ATOM     10  C   UNL     1       5.097   2.195  -0.088  1.00  0.00     0.000 A 
ATOM     11  C   UNL     1       5.405   0.536   1.592  1.00  0.00     0.000 A 
ATOM     12  C   UNL     1       4.879   1.744   1.189  1.00  0.00     0.000 A 
ENDBRANCH   6   7
ENDBRANCH   1   6
TORSDOF 4
ENDMDL
