@<TRIPOS>MOLECULE
/home/cewinharhar/GITHUB/reincatalyze/data/processed/docking_pred/2023_Apr_20-15:07/141be626e2cd6ba8f6b8a46d6dbef4dd02701a2b_ligand_2.pdbqt
 12 12 0 0 0
SMALL
GASTEIGER

@<TRIPOS>ATOM
      1  C          8.4330   -0.5350   -2.2790 C.3     1  UNL1        0.1270
      2  C          8.4900   -1.8490   -2.9610 C.2     1  UNL1        0.3030
      3  O          9.5800   -2.4530   -3.1200 O.2     1  UNL1       -0.2520
      4  O          7.3390   -2.4500   -3.4430 O.3     1  UNL1       -0.4810
      5  H          6.6280   -2.7740   -2.7810 H       1  UNL1        0.2960
      6  C          6.9990   -0.1090   -2.1990 C.3     1  UNL1        0.0470
      7  C          6.4960    0.0330   -0.8330 C.2     1  UNL1       -0.0470
      8  C          6.6390   -0.9870    0.0780 C.2     1  UNL1        0.0040
      9  C          5.8780    1.2050   -0.4640 C.2     1  UNL1        0.0040
     10  C          6.1360   -0.7820    1.3650 C.2     1  UNL1        0.0000
     11  C          5.3810    1.4060    0.8090 C.2     1  UNL1        0.0000
     12  C          5.5190    0.3880    1.7280 C.2     1  UNL1        0.0000
@<TRIPOS>BOND
     1     4     2    1
     2     4     5    1
     3     3     2    2
     4     2     1    1
     5     1     6    1
     6     6     7    1
     7     7     9    2
     8     7     8    1
     9     9    11    1
    10     8    10    2
    11    11    12    2
    12    10    12    1
