@<TRIPOS>MOLECULE
/home/cewinharhar/GITHUB/reincatalyze/data/processed/docking_pred/2023_Apr_20-15:07/1b5ae47dc41e9fd81b532b383f57e012b2e09fc7_ligand_2.pdbqt
 12 12 0 0 0
SMALL
GASTEIGER

@<TRIPOS>ATOM
      1  C          5.0120    1.7260    0.6500 C.3     1  UNL1        0.1270
      2  C          4.5110    1.0950    1.8950 C.2     1  UNL1        0.3030
      3  O          5.1780    0.2150    2.4920 O.2     1  UNL1       -0.2520
      4  O          3.2880    1.4620    2.4340 O.3     1  UNL1       -0.4810
      5  H          2.4270    1.1010    2.0140 H       1  UNL1        0.2960
      6  C          6.5080    1.7640    0.7110 C.3     1  UNL1        0.0470
      7  C          7.1660    1.0170   -0.3590 C.2     1  UNL1       -0.0470
      8  C          8.5000    1.2110   -0.6360 C.2     1  UNL1        0.0040
      9  C          6.4360    0.1110   -1.0920 C.2     1  UNL1        0.0040
     10  C          9.0630    0.4620   -1.6720 C.2     1  UNL1        0.0000
     11  C          6.9940   -0.6290   -2.1160 C.2     1  UNL1        0.0000
     12  C          8.3290   -0.4400   -2.4000 C.2     1  UNL1        0.0000
@<TRIPOS>BOND
     1    12    11    2
     2    12    10    1
     3    11     9    1
     4    10     8    2
     5     9     7    2
     6     8     7    1
     7     7     6    1
     8     1     6    1
     9     1     2    1
    10     2     4    1
    11     2     3    2
    12     5     4    1
