@<TRIPOS>MOLECULE
/home/cewinharhar/GITHUB/reincatalyze/data/processed/docking_pred/2023_Apr_20-15:07/1b5ae47dc41e9fd81b532b383f57e012b2e09fc7_ligand_2.pdbqt
 12 12 0 0 0
SMALL
GASTEIGER

@<TRIPOS>ATOM
      1  C          5.4500    2.8890   -0.0170 C.3     1  UNL1        0.1270
      2  C          6.2490    3.8330    0.7980 C.2     1  UNL1        0.3030
      3  O          6.8870    4.7750    0.2640 O.2     1  UNL1       -0.2520
      4  O          6.3160    3.7020    2.1750 O.3     1  UNL1       -0.4810
      5  H          5.4500    3.7020    2.7210 H       1  UNL1        0.2960
      6  C          4.9090    1.8260    0.8900 C.3     1  UNL1        0.0470
      7  C          5.7030    0.5990    0.9080 C.2     1  UNL1       -0.0470
      8  C          6.4110    0.2030   -0.2030 C.2     1  UNL1        0.0040
      9  C          5.7390   -0.1610    2.0540 C.2     1  UNL1        0.0040
     10  C          7.1490   -0.9800   -0.1140 C.2     1  UNL1        0.0000
     11  C          6.4690   -1.3300    2.1400 C.2     1  UNL1        0.0000
     12  C          7.1800   -1.7340    1.0320 C.2     1  UNL1        0.0000
@<TRIPOS>BOND
     1     8    10    1
     2     8     7    2
     3    10    12    2
     4     1     2    1
     5     1     6    1
     6     3     2    2
     7     2     4    1
     8     6     7    1
     9     7     9    1
    10    12    11    1
    11     9    11    2
    12     4     5    1
