@<TRIPOS>MOLECULE
/home/cewinharhar/GITHUB/reincatalyze/data/processed/docking_pred/2023_Apr_20-15:07/1b5ae47dc41e9fd81b532b383f57e012b2e09fc7_ligand_2.pdbqt
 12 12 0 0 0
SMALL
GASTEIGER

@<TRIPOS>ATOM
      1  C          8.4100   -0.6350   -2.1040 C.3     1  UNL1        0.1270
      2  C          8.3680   -1.8990   -2.8780 C.2     1  UNL1        0.3030
      3  O          7.2770   -2.4000   -3.2460 O.2     1  UNL1       -0.2520
      4  O          9.5360   -2.5630   -3.2170 O.3     1  UNL1       -0.4810
      5  H          9.7350   -2.7530   -4.2030 H       1  UNL1        0.2960
      6  C          7.0320   -0.0470   -2.0880 C.3     1  UNL1        0.0470
      7  C          6.4680    0.1100   -0.7490 C.2     1  UNL1       -0.0470
      8  C          5.7970    1.2590   -0.3980 C.2     1  UNL1        0.0040
      9  C          6.6120   -0.9090    0.1640 C.2     1  UNL1        0.0040
     10  C          5.2830    1.3390    0.8980 C.2     1  UNL1        0.0000
     11  C          6.1040   -0.8270    1.4460 C.2     1  UNL1        0.0000
     12  C          5.4310    0.3200    1.8050 C.2     1  UNL1        0.0000
@<TRIPOS>BOND
     1     5     4    1
     2     3     2    2
     3     4     2    1
     4     2     1    1
     5     1     6    1
     6     6     7    1
     7     7     8    2
     8     7     9    1
     9     8    10    1
    10     9    11    2
    11    10    12    2
    12    11    12    1
