@<TRIPOS>MOLECULE
/home/cewinharhar/GITHUB/reincatalyze/data/processed/docking_pred/2023_Apr_20-15:07/1b5ae47dc41e9fd81b532b383f57e012b2e09fc7_ligand_2.pdbqt
 12 12 0 0 0
SMALL
GASTEIGER

@<TRIPOS>ATOM
      1  C          8.4540   -0.6260   -2.1640 C.3     1  UNL1        0.1270
      2  C          8.4910   -1.9030   -2.9150 C.2     1  UNL1        0.3030
      3  O          9.5690   -2.5230   -3.0920 O.2     1  UNL1       -0.2520
      4  O          7.3320   -2.4500   -3.4430 O.3     1  UNL1       -0.4810
      5  H          7.1320   -3.4420   -3.2900 H       1  UNL1        0.2960
      6  C          7.0370   -0.1380   -2.1350 C.3     1  UNL1        0.0470
      7  C          6.4920    0.0260   -0.7890 C.2     1  UNL1       -0.0470
      8  C          6.6130   -0.9760    0.1450 C.2     1  UNL1        0.0040
      9  C          5.8530    1.1990   -0.4610 C.2     1  UNL1        0.0040
     10  C          6.0690   -0.7510    1.4120 C.2     1  UNL1        0.0000
     11  C          5.3160    1.4200    0.7910 C.2     1  UNL1        0.0000
     12  C          5.4320    0.4210    1.7330 C.2     1  UNL1        0.0000
@<TRIPOS>BOND
     1     4     5    1
     2     4     2    1
     3     3     2    2
     4     2     1    1
     5     1     6    1
     6     6     7    1
     7     7     9    2
     8     7     8    1
     9     9    11    1
    10     8    10    2
    11    11    12    2
    12    10    12    1
