@<TRIPOS>MOLECULE
/home/cewinharhar/GITHUB/reincatalyze/data/processed/docking_pred/2023_Apr_20-15:07/1b5ae47dc41e9fd81b532b383f57e012b2e09fc7_ligand_2.pdbqt
 12 12 0 0 0
SMALL
GASTEIGER

@<TRIPOS>ATOM
      1  C          8.3570    0.5290   -1.8100 C.3     1  UNL1        0.1270
      2  C          9.5250    0.2610   -0.9380 C.2     1  UNL1        0.3030
      3  O          9.4400   -0.5210    0.0410 O.2     1  UNL1       -0.2520
      4  O         10.7460    0.8680   -1.1810 O.3     1  UNL1       -0.4810
      5  H         10.7930    1.6570   -1.8310 H       1  UNL1        0.2960
      6  C          7.2270   -0.3510   -1.3680 C.3     1  UNL1        0.0470
      7  C          6.3750    0.2470   -0.3420 C.2     1  UNL1       -0.0470
      8  C          6.1580   -0.3950    0.8550 C.2     1  UNL1        0.0040
      9  C          5.7890    1.4680   -0.5840 C.2     1  UNL1        0.0040
     10  C          5.3340    0.2350    1.7890 C.2     1  UNL1        0.0000
     11  C          4.9730    2.0900    0.3410 C.2     1  UNL1        0.0000
     12  C          4.7510    1.4520    1.5420 C.2     1  UNL1        0.0000
@<TRIPOS>BOND
     1     5     4    1
     2     1     6    1
     3     1     2    1
     4     6     7    1
     5     4     2    1
     6     2     3    2
     7     9     7    2
     8     9    11    1
     9     7     8    1
    10    11    12    2
    11     8    10    2
    12    12    10    1
