MODEL 1
REMARK VINA RESULT:      -7.4      0.000      0.000
REMARK SMILES O=C(O)CCc1ccccc1
REMARK SMILES IDX 4 1 2 2 1 3 3 4 5 6 6 7 7 8 11 9 8 10 10 11 9 12
REMARK H PARENT 3 5
REMARK Flexibility Score: inf
ROOT
ATOM      1  C   UNL     1       8.454  -0.626  -2.164  1.00  0.00     0.127 C 
ENDROOT
BRANCH   1   2
ATOM      2  C   UNL     1       8.491  -1.903  -2.915  1.00  0.00     0.303 C 
ATOM      3  O   UNL     1       9.569  -2.523  -3.092  1.00  0.00    -0.252 OA
BRANCH   2   4
ATOM      4  O   UNL     1       7.332  -2.450  -3.443  1.00  0.00    -0.481 OA
ATOM      5  H   UNL     1       7.132  -3.442  -3.290  1.00  0.00     0.296 HD
ENDBRANCH   2   4
ENDBRANCH   1   2
BRANCH   1   6
ATOM      6  C   UNL     1       7.037  -0.138  -2.135  1.00  0.00     0.047 C 
BRANCH   6   7
ATOM      7  C   UNL     1       6.492   0.026  -0.789  1.00  0.00    -0.047 A 
ATOM      8  C   UNL     1       6.613  -0.976   0.145  1.00  0.00     0.004 A 
ATOM      9  C   UNL     1       5.853   1.199  -0.461  1.00  0.00     0.004 A 
ATOM     10  C   UNL     1       6.069  -0.751   1.412  1.00  0.00     0.000 A 
ATOM     11  C   UNL     1       5.316   1.420   0.791  1.00  0.00     0.000 A 
ATOM     12  C   UNL     1       5.432   0.421   1.733  1.00  0.00     0.000 A 
ENDBRANCH   6   7
ENDBRANCH   1   6
TORSDOF 4
ENDMDL
MODEL 2
REMARK VINA RESULT:      -7.3      0.122      1.732
REMARK SMILES O=C(O)CCc1ccccc1
REMARK SMILES IDX 4 1 2 2 1 3 3 4 5 6 6 7 7 8 11 9 8 10 10 11 9 12
REMARK H PARENT 3 5
REMARK Flexibility Score: inf
ROOT
ATOM      1  C   UNL     1       8.410  -0.635  -2.104  1.00  0.00     0.127 C 
ENDROOT
BRANCH   1   2
ATOM      2  C   UNL     1       8.368  -1.899  -2.878  1.00  0.00     0.303 C 
ATOM      3  O   UNL     1       7.277  -2.400  -3.246  1.00  0.00    -0.252 OA
BRANCH   2   4
ATOM      4  O   UNL     1       9.536  -2.563  -3.217  1.00  0.00    -0.481 OA
ATOM      5  H   UNL     1       9.735  -2.753  -4.203  1.00  0.00     0.296 HD
ENDBRANCH   2   4
ENDBRANCH   1   2
BRANCH   1   6
ATOM      6  C   UNL     1       7.032  -0.047  -2.088  1.00  0.00     0.047 C 
BRANCH   6   7
ATOM      7  C   UNL     1       6.468   0.110  -0.749  1.00  0.00    -0.047 A 
ATOM      8  C   UNL     1       5.797   1.259  -0.398  1.00  0.00     0.004 A 
ATOM      9  C   UNL     1       6.612  -0.909   0.164  1.00  0.00     0.004 A 
ATOM     10  C   UNL     1       5.283   1.339   0.898  1.00  0.00     0.000 A 
ATOM     11  C   UNL     1       6.104  -0.827   1.446  1.00  0.00     0.000 A 
ATOM     12  C   UNL     1       5.431   0.320   1.805  1.00  0.00     0.000 A 
ENDBRANCH   6   7
ENDBRANCH   1   6
TORSDOF 4
ENDMDL
MODEL 3
REMARK VINA RESULT:      -6.8      3.379      5.077
REMARK SMILES O=C(O)CCc1ccccc1
REMARK SMILES IDX 4 1 2 2 1 3 3 4 5 6 6 7 7 8 11 9 8 10 10 11 9 12
REMARK H PARENT 3 5
REMARK Flexibility Score: inf
ROOT
ATOM      1  C   UNL     1       5.012   1.726   0.650  1.00  0.00     0.127 C 
ENDROOT
BRANCH   1   2
ATOM      2  C   UNL     1       4.511   1.095   1.895  1.00  0.00     0.303 C 
ATOM      3  O   UNL     1       5.178   0.215   2.492  1.00  0.00    -0.252 OA
BRANCH   2   4
ATOM      4  O   UNL     1       3.288   1.462   2.434  1.00  0.00    -0.481 OA
ATOM      5  H   UNL     1       2.427   1.101   2.014  1.00  0.00     0.296 HD
ENDBRANCH   2   4
ENDBRANCH   1   2
BRANCH   1   6
ATOM      6  C   UNL     1       6.508   1.764   0.711  1.00  0.00     0.047 C 
BRANCH   6   7
ATOM      7  C   UNL     1       7.166   1.017  -0.359  1.00  0.00    -0.047 A 
ATOM      8  C   UNL     1       8.500   1.211  -0.636  1.00  0.00     0.004 A 
ATOM      9  C   UNL     1       6.436   0.111  -1.092  1.00  0.00     0.004 A 
ATOM     10  C   UNL     1       9.063   0.462  -1.672  1.00  0.00     0.000 A 
ATOM     11  C   UNL     1       6.994  -0.629  -2.116  1.00  0.00     0.000 A 
ATOM     12  C   UNL     1       8.329  -0.440  -2.400  1.00  0.00     0.000 A 
ENDBRANCH   6   7
ENDBRANCH   1   6
TORSDOF 4
ENDMDL
MODEL 4
REMARK VINA RESULT:      -6.7      3.843      4.986
REMARK SMILES O=C(O)CCc1ccccc1
REMARK SMILES IDX 4 1 2 2 1 3 3 4 5 6 6 7 7 8 11 9 8 10 10 11 9 12
REMARK H PARENT 3 5
REMARK Flexibility Score: inf
ROOT
ATOM      1  C   UNL     1       5.450   2.889  -0.017  1.00  0.00     0.127 C 
ENDROOT
BRANCH   1   2
ATOM      2  C   UNL     1       6.249   3.833   0.798  1.00  0.00     0.303 C 
ATOM      3  O   UNL     1       6.887   4.775   0.264  1.00  0.00    -0.252 OA
BRANCH   2   4
ATOM      4  O   UNL     1       6.316   3.702   2.175  1.00  0.00    -0.481 OA
ATOM      5  H   UNL     1       5.450   3.702   2.721  1.00  0.00     0.296 HD
ENDBRANCH   2   4
ENDBRANCH   1   2
BRANCH   1   6
ATOM      6  C   UNL     1       4.909   1.826   0.890  1.00  0.00     0.047 C 
BRANCH   6   7
ATOM      7  C   UNL     1       5.703   0.599   0.908  1.00  0.00    -0.047 A 
ATOM      8  C   UNL     1       6.411   0.203  -0.203  1.00  0.00     0.004 A 
ATOM      9  C   UNL     1       5.739  -0.161   2.054  1.00  0.00     0.004 A 
ATOM     10  C   UNL     1       7.149  -0.980  -0.114  1.00  0.00     0.000 A 
ATOM     11  C   UNL     1       6.469  -1.330   2.140  1.00  0.00     0.000 A 
ATOM     12  C   UNL     1       7.180  -1.734   1.032  1.00  0.00     0.000 A 
ENDBRANCH   6   7
ENDBRANCH   1   6
TORSDOF 4
ENDMDL
MODEL 5
REMARK VINA RESULT:      -6.6      2.030      2.312
REMARK SMILES O=C(O)CCc1ccccc1
REMARK SMILES IDX 4 1 2 2 1 3 3 4 5 6 6 7 7 8 11 9 8 10 10 11 9 12
REMARK H PARENT 3 5
REMARK Flexibility Score: inf
ROOT
ATOM      1  C   UNL     1       8.357   0.529  -1.810  1.00  0.00     0.127 C 
ENDROOT
BRANCH   1   2
ATOM      2  C   UNL     1       9.525   0.261  -0.938  1.00  0.00     0.303 C 
ATOM      3  O   UNL     1       9.440  -0.521   0.041  1.00  0.00    -0.252 OA
BRANCH   2   4
ATOM      4  O   UNL     1      10.746   0.868  -1.181  1.00  0.00    -0.481 OA
ATOM      5  H   UNL     1      10.793   1.657  -1.831  1.00  0.00     0.296 HD
ENDBRANCH   2   4
ENDBRANCH   1   2
BRANCH   1   6
ATOM      6  C   UNL     1       7.227  -0.351  -1.368  1.00  0.00     0.047 C 
BRANCH   6   7
ATOM      7  C   UNL     1       6.375   0.247  -0.342  1.00  0.00    -0.047 A 
ATOM      8  C   UNL     1       6.158  -0.395   0.855  1.00  0.00     0.004 A 
ATOM      9  C   UNL     1       5.789   1.468  -0.584  1.00  0.00     0.004 A 
ATOM     10  C   UNL     1       5.334   0.235   1.789  1.00  0.00     0.000 A 
ATOM     11  C   UNL     1       4.973   2.090   0.341  1.00  0.00     0.000 A 
ATOM     12  C   UNL     1       4.751   1.452   1.542  1.00  0.00     0.000 A 
ENDBRANCH   6   7
ENDBRANCH   1   6
TORSDOF 4
ENDMDL
