MODEL 1
REMARK VINA RESULT:      -7.3      0.000      0.000
REMARK SMILES O=C(O)CCc1ccccc1
REMARK SMILES IDX 4 1 2 2 1 3 3 4 5 6 6 7 7 8 11 9 8 10 10 11 9 12
REMARK H PARENT 3 5
REMARK Flexibility Score: inf
ROOT
ATOM      1  C   UNL     1       8.440  -0.583  -2.201  1.00  0.00     0.127 C 
ENDROOT
BRANCH   1   2
ATOM      2  C   UNL     1       8.477  -1.877  -2.922  1.00  0.00     0.303 C 
ATOM      3  O   UNL     1       9.555  -2.498  -3.091  1.00  0.00    -0.252 OA
BRANCH   2   4
ATOM      4  O   UNL     1       7.317  -2.439  -3.432  1.00  0.00    -0.481 OA
ATOM      5  H   UNL     1       6.470  -1.868  -3.496  1.00  0.00     0.296 HD
ENDBRANCH   2   4
ENDBRANCH   1   2
BRANCH   1   6
ATOM      6  C   UNL     1       7.019  -0.110  -2.155  1.00  0.00     0.047 C 
BRANCH   6   7
ATOM      7  C   UNL     1       6.491   0.052  -0.801  1.00  0.00    -0.047 A 
ATOM      8  C   UNL     1       5.881   1.225  -0.421  1.00  0.00     0.004 A 
ATOM      9  C   UNL     1       6.607  -0.985   0.094  1.00  0.00     0.004 A 
ATOM     10  C   UNL     1       5.399   1.310   0.888  1.00  0.00     0.000 A 
ATOM     11  C   UNL     1       6.131  -0.900   1.387  1.00  0.00     0.000 A 
ATOM     12  C   UNL     1       5.519   0.272   1.777  1.00  0.00     0.000 A 
ENDBRANCH   6   7
ENDBRANCH   1   6
TORSDOF 4
ENDMDL
MODEL 2
REMARK VINA RESULT:      -7.3      0.187      1.734
REMARK SMILES O=C(O)CCc1ccccc1
REMARK SMILES IDX 4 1 2 2 1 3 3 4 5 6 6 7 7 8 11 9 8 10 10 11 9 12
REMARK H PARENT 3 5
REMARK Flexibility Score: inf
ROOT
ATOM      1  C   UNL     1       8.440  -0.619  -2.124  1.00  0.00     0.127 C 
ENDROOT
BRANCH   1   2
ATOM      2  C   UNL     1       8.398  -1.887  -2.890  1.00  0.00     0.303 C 
ATOM      3  O   UNL     1       7.305  -2.413  -3.216  1.00  0.00    -0.252 OA
BRANCH   2   4
ATOM      4  O   UNL     1       9.566  -2.528  -3.267  1.00  0.00    -0.481 OA
ATOM      5  H   UNL     1       9.566  -3.118  -4.104  1.00  0.00     0.296 HD
ENDBRANCH   2   4
ENDBRANCH   1   2
BRANCH   1   6
ATOM      6  C   UNL     1       7.065  -0.026  -2.118  1.00  0.00     0.047 C 
BRANCH   6   7
ATOM      7  C   UNL     1       6.488   0.125  -0.783  1.00  0.00    -0.047 A 
ATOM      8  C   UNL     1       6.658  -0.852   0.171  1.00  0.00     0.004 A 
ATOM      9  C   UNL     1       5.770   1.260  -0.486  1.00  0.00     0.004 A 
ATOM     10  C   UNL     1       6.079  -0.641   1.425  1.00  0.00     0.000 A 
ATOM     11  C   UNL     1       5.198   1.467   0.754  1.00  0.00     0.000 A 
ATOM     12  C   UNL     1       5.364   0.493   1.715  1.00  0.00     0.000 A 
ENDBRANCH   6   7
ENDBRANCH   1   6
TORSDOF 4
ENDMDL
MODEL 3
REMARK VINA RESULT:      -6.7      3.378      5.040
REMARK SMILES O=C(O)CCc1ccccc1
REMARK SMILES IDX 4 1 2 2 1 3 3 4 5 6 6 7 7 8 11 9 8 10 10 11 9 12
REMARK H PARENT 3 5
REMARK Flexibility Score: inf
ROOT
ATOM      1  C   UNL     1       5.006   1.776   0.656  1.00  0.00     0.127 C 
ENDROOT
BRANCH   1   2
ATOM      2  C   UNL     1       4.518   1.121   1.892  1.00  0.00     0.303 C 
ATOM      3  O   UNL     1       5.203   0.249   2.481  1.00  0.00    -0.252 OA
BRANCH   2   4
ATOM      4  O   UNL     1       3.287   1.455   2.434  1.00  0.00    -0.481 OA
ATOM      5  H   UNL     1       3.208   1.605   3.443  1.00  0.00     0.296 HD
ENDBRANCH   2   4
ENDBRANCH   1   2
BRANCH   1   6
ATOM      6  C   UNL     1       6.503   1.822   0.707  1.00  0.00     0.047 C 
BRANCH   6   7
ATOM      7  C   UNL     1       7.157   1.065  -0.359  1.00  0.00    -0.047 A 
ATOM      8  C   UNL     1       8.493   1.247  -0.633  1.00  0.00     0.004 A 
ATOM      9  C   UNL     1       6.421   0.161  -1.090  1.00  0.00     0.004 A 
ATOM     10  C   UNL     1       9.052   0.489  -1.664  1.00  0.00     0.000 A 
ATOM     11  C   UNL     1       6.976  -0.587  -2.109  1.00  0.00     0.000 A 
ATOM     12  C   UNL     1       8.313  -0.410  -2.390  1.00  0.00     0.000 A 
ENDBRANCH   6   7
ENDBRANCH   1   6
TORSDOF 4
ENDMDL
MODEL 4
REMARK VINA RESULT:      -6.6      1.922      2.660
REMARK SMILES O=C(O)CCc1ccccc1
REMARK SMILES IDX 4 1 2 2 1 3 3 4 5 6 6 7 7 8 11 9 8 10 10 11 9 12
REMARK H PARENT 3 5
REMARK Flexibility Score: inf
ROOT
ATOM      1  C   UNL     1       8.226   0.270  -2.201  1.00  0.00     0.127 C 
ENDROOT
BRANCH   1   2
ATOM      2  C   UNL     1       9.354   0.365  -1.244  1.00  0.00     0.303 C 
ATOM      3  O   UNL     1       9.443  -0.414  -0.264  1.00  0.00    -0.252 OA
BRANCH   2   4
ATOM      4  O   UNL     1      10.344   1.321  -1.407  1.00  0.00    -0.481 OA
ATOM      5  H   UNL     1      11.307   1.020  -1.579  1.00  0.00     0.296 HD
ENDBRANCH   2   4
ENDBRANCH   1   2
BRANCH   1   6
ATOM      6  C   UNL     1       7.126  -0.517  -1.556  1.00  0.00     0.047 C 
BRANCH   6   7
ATOM      7  C   UNL     1       6.351   0.240  -0.574  1.00  0.00    -0.047 A 
ATOM      8  C   UNL     1       6.155  -0.250   0.696  1.00  0.00     0.004 A 
ATOM      9  C   UNL     1       5.818   1.456  -0.933  1.00  0.00     0.004 A 
ATOM     10  C   UNL     1       5.406   0.527   1.583  1.00  0.00     0.000 A 
ATOM     11  C   UNL     1       5.077   2.223  -0.056  1.00  0.00     0.000 A 
ATOM     12  C   UNL     1       4.875   1.739   1.219  1.00  0.00     0.000 A 
ENDBRANCH   6   7
ENDBRANCH   1   6
TORSDOF 4
ENDMDL
MODEL 5
REMARK VINA RESULT:      -6.5      2.008      2.786
REMARK SMILES O=C(O)CCc1ccccc1
REMARK SMILES IDX 4 1 2 2 1 3 3 4 5 6 6 7 7 8 11 9 8 10 10 11 9 12
REMARK H PARENT 3 5
REMARK Flexibility Score: inf
ROOT
ATOM      1  C   UNL     1       7.859  -2.324   0.851  1.00  0.00     0.127 C 
ENDROOT
BRANCH   1   2
ATOM      2  C   UNL     1       8.734  -3.399   0.325  1.00  0.00     0.303 C 
ATOM      3  O   UNL     1       9.630  -3.916   1.037  1.00  0.00    -0.252 OA
BRANCH   2   4
ATOM      4  O   UNL     1       8.586  -3.864  -0.972  1.00  0.00    -0.481 OA
ATOM      5  H   UNL     1       7.699  -4.292  -1.253  1.00  0.00     0.296 HD
ENDBRANCH   2   4
ENDBRANCH   1   2
BRANCH   1   6
ATOM      6  C   UNL     1       7.488  -1.421  -0.285  1.00  0.00     0.047 C 
BRANCH   6   7
ATOM      7  C   UNL     1       6.608  -0.318   0.095  1.00  0.00    -0.047 A 
ATOM      8  C   UNL     1       6.071  -0.250   1.360  1.00  0.00     0.004 A 
ATOM      9  C   UNL     1       6.320   0.661  -0.828  1.00  0.00     0.004 A 
ATOM     10  C   UNL     1       5.240   0.833   1.655  1.00  0.00     0.000 A 
ATOM     11  C   UNL     1       5.498   1.731  -0.535  1.00  0.00     0.000 A 
ATOM     12  C   UNL     1       4.956   1.805   0.730  1.00  0.00     0.000 A 
ENDBRANCH   6   7
ENDBRANCH   1   6
TORSDOF 4
ENDMDL
