@<TRIPOS>MOLECULE
/home/cewinharhar/GITHUB/reincatalyze/data/processed/docking_pred/2023_Apr_20-15:07/1c0c8a91d3eae7937fa2398dc61f909c50ab5738_ligand_2.pdbqt
 12 12 0 0 0
SMALL
GASTEIGER

@<TRIPOS>ATOM
      1  C          5.0060    1.7760    0.6560 C.3     1  UNL1        0.1270
      2  C          4.5180    1.1210    1.8920 C.2     1  UNL1        0.3030
      3  O          5.2030    0.2490    2.4810 O.2     1  UNL1       -0.2520
      4  O          3.2870    1.4550    2.4340 O.3     1  UNL1       -0.4810
      5  H          3.2080    1.6050    3.4430 H       1  UNL1        0.2960
      6  C          6.5030    1.8220    0.7070 C.3     1  UNL1        0.0470
      7  C          7.1570    1.0650   -0.3590 C.2     1  UNL1       -0.0470
      8  C          8.4930    1.2470   -0.6330 C.2     1  UNL1        0.0040
      9  C          6.4210    0.1610   -1.0900 C.2     1  UNL1        0.0040
     10  C          9.0520    0.4890   -1.6640 C.2     1  UNL1        0.0000
     11  C          6.9760   -0.5870   -2.1090 C.2     1  UNL1        0.0000
     12  C          8.3130   -0.4100   -2.3900 C.2     1  UNL1        0.0000
@<TRIPOS>BOND
     1    12    11    2
     2    12    10    1
     3    11     9    1
     4    10     8    2
     5     9     7    2
     6     8     7    1
     7     7     6    1
     8     1     6    1
     9     1     2    1
    10     2     4    1
    11     2     3    2
    12     4     5    1
