@<TRIPOS>MOLECULE
/home/cewinharhar/GITHUB/reincatalyze/data/processed/docking_pred/2023_Apr_20-15:07/1c0c8a91d3eae7937fa2398dc61f909c50ab5738_ligand_2.pdbqt
 12 12 0 0 0
SMALL
GASTEIGER

@<TRIPOS>ATOM
      1  C          7.8590   -2.3240    0.8510 C.3     1  UNL1        0.1270
      2  C          8.7340   -3.3990    0.3250 C.2     1  UNL1        0.3030
      3  O          9.6300   -3.9160    1.0370 O.2     1  UNL1       -0.2520
      4  O          8.5860   -3.8640   -0.9720 O.3     1  UNL1       -0.4810
      5  H          7.6990   -4.2920   -1.2530 H       1  UNL1        0.2960
      6  C          7.4880   -1.4210   -0.2850 C.3     1  UNL1        0.0470
      7  C          6.6080   -0.3180    0.0950 C.2     1  UNL1       -0.0470
      8  C          6.0710   -0.2500    1.3600 C.2     1  UNL1        0.0040
      9  C          6.3200    0.6610   -0.8280 C.2     1  UNL1        0.0040
     10  C          5.2400    0.8330    1.6550 C.2     1  UNL1        0.0000
     11  C          5.4980    1.7310   -0.5350 C.2     1  UNL1        0.0000
     12  C          4.9560    1.8050    0.7300 C.2     1  UNL1        0.0000
@<TRIPOS>BOND
     1     5     4    1
     2     4     2    1
     3     9    11    1
     4     9     7    2
     5    11    12    2
     6     6     7    1
     7     6     1    1
     8     7     8    1
     9     2     1    1
    10     2     3    2
    11    12    10    1
    12     8    10    2
