@<TRIPOS>MOLECULE
/home/cewinharhar/GITHUB/reincatalyze/data/processed/docking_pred/2023_Apr_20-15:07/1c0c8a91d3eae7937fa2398dc61f909c50ab5738_ligand_2.pdbqt
 12 12 0 0 0
SMALL
GASTEIGER

@<TRIPOS>ATOM
      1  C          8.2260    0.2700   -2.2010 C.3     1  UNL1        0.1270
      2  C          9.3540    0.3650   -1.2440 C.2     1  UNL1        0.3030
      3  O          9.4430   -0.4140   -0.2640 O.2     1  UNL1       -0.2520
      4  O         10.3440    1.3210   -1.4070 O.3     1  UNL1       -0.4810
      5  H         11.3070    1.0200   -1.5790 H       1  UNL1        0.2960
      6  C          7.1260   -0.5170   -1.5560 C.3     1  UNL1        0.0470
      7  C          6.3510    0.2400   -0.5740 C.2     1  UNL1       -0.0470
      8  C          6.1550   -0.2500    0.6960 C.2     1  UNL1        0.0040
      9  C          5.8180    1.4560   -0.9330 C.2     1  UNL1        0.0040
     10  C          5.4060    0.5270    1.5830 C.2     1  UNL1        0.0000
     11  C          5.0770    2.2230   -0.0560 C.2     1  UNL1        0.0000
     12  C          4.8750    1.7390    1.2190 C.2     1  UNL1        0.0000
@<TRIPOS>BOND
     1     1     6    1
     2     1     2    1
     3     5     4    1
     4     6     7    1
     5     4     2    1
     6     2     3    2
     7     9     7    2
     8     9    11    1
     9     7     8    1
    10    11    12    2
    11     8    10    2
    12    12    10    1
