@<TRIPOS>MOLECULE
/home/cewinharhar/GITHUB/reincatalyze/data/processed/docking_pred/2023_Apr_20-15:07/1c0c8a91d3eae7937fa2398dc61f909c50ab5738_ligand_2.pdbqt
 12 12 0 0 0
SMALL
GASTEIGER

@<TRIPOS>ATOM
      1  C          8.4400   -0.5830   -2.2010 C.3     1  UNL1        0.1270
      2  C          8.4770   -1.8770   -2.9220 C.2     1  UNL1        0.3030
      3  O          9.5550   -2.4980   -3.0910 O.2     1  UNL1       -0.2520
      4  O          7.3170   -2.4390   -3.4320 O.3     1  UNL1       -0.4810
      5  H          6.4700   -1.8680   -3.4960 H       1  UNL1        0.2960
      6  C          7.0190   -0.1100   -2.1550 C.3     1  UNL1        0.0470
      7  C          6.4910    0.0520   -0.8010 C.2     1  UNL1       -0.0470
      8  C          5.8810    1.2250   -0.4210 C.2     1  UNL1        0.0040
      9  C          6.6070   -0.9850    0.0940 C.2     1  UNL1        0.0040
     10  C          5.3990    1.3100    0.8880 C.2     1  UNL1        0.0000
     11  C          6.1310   -0.9000    1.3870 C.2     1  UNL1        0.0000
     12  C          5.5190    0.2720    1.7770 C.2     1  UNL1        0.0000
@<TRIPOS>BOND
     1     5     4    1
     2     4     2    1
     3     3     2    2
     4     2     1    1
     5     1     6    1
     6     6     7    1
     7     7     8    2
     8     7     9    1
     9     8    10    1
    10     9    11    2
    11    10    12    2
    12    11    12    1
