@<TRIPOS>MOLECULE
/home/cewinharhar/GITHUB/reincatalyze/data/processed/docking_pred/2023_Apr_20-15:07/1c0c8a91d3eae7937fa2398dc61f909c50ab5738_ligand_2.pdbqt
 12 12 0 0 0
SMALL
GASTEIGER

@<TRIPOS>ATOM
      1  C          8.4400   -0.6190   -2.1240 C.3     1  UNL1        0.1270
      2  C          8.3980   -1.8870   -2.8900 C.2     1  UNL1        0.3030
      3  O          7.3050   -2.4130   -3.2160 O.2     1  UNL1       -0.2520
      4  O          9.5660   -2.5280   -3.2670 O.3     1  UNL1       -0.4810
      5  H          9.5660   -3.1180   -4.1040 H       1  UNL1        0.2960
      6  C          7.0650   -0.0260   -2.1180 C.3     1  UNL1        0.0470
      7  C          6.4880    0.1250   -0.7830 C.2     1  UNL1       -0.0470
      8  C          6.6580   -0.8520    0.1710 C.2     1  UNL1        0.0040
      9  C          5.7700    1.2600   -0.4860 C.2     1  UNL1        0.0040
     10  C          6.0790   -0.6410    1.4250 C.2     1  UNL1        0.0000
     11  C          5.1980    1.4670    0.7540 C.2     1  UNL1        0.0000
     12  C          5.3640    0.4930    1.7150 C.2     1  UNL1        0.0000
@<TRIPOS>BOND
     1     5     4    1
     2     4     2    1
     3     3     2    2
     4     2     1    1
     5     1     6    1
     6     6     7    1
     7     7     9    2
     8     7     8    1
     9     9    11    1
    10     8    10    2
    11    11    12    2
    12    10    12    1
