@<TRIPOS>MOLECULE
/home/cewinharhar/GITHUB/reincatalyze/data/processed/docking_pred/2023_Apr_20-15:07/1c86ade130d2cc9f902dffb19ba95248752a952e_ligand_2.pdbqt
 12 12 0 0 0
SMALL
GASTEIGER

@<TRIPOS>ATOM
      1  C          5.0420    1.6730    0.6780 C.3     1  UNL1        0.1270
      2  C          4.5960    1.0070    1.9240 C.2     1  UNL1        0.3030
      3  O          5.3170    0.1540    2.5000 O.2     1  UNL1       -0.2520
      4  O          3.3680    1.3080    2.4900 O.3     1  UNL1       -0.4810
      5  H          2.5460    0.7590    2.2240 H       1  UNL1        0.2960
      6  C          6.5380    1.7550    0.6970 C.3     1  UNL1        0.0470
      7  C          7.1890    1.0040   -0.3750 C.2     1  UNL1       -0.0470
      8  C          8.5210    1.1940   -0.6590 C.2     1  UNL1        0.0040
      9  C          6.4530    0.0960   -1.1010 C.2     1  UNL1        0.0040
     10  C          9.0770    0.4410   -1.6950 C.2     1  UNL1        0.0000
     11  C          7.0040   -0.6470   -2.1260 C.2     1  UNL1        0.0000
     12  C          8.3380   -0.4620   -2.4170 C.2     1  UNL1        0.0000
@<TRIPOS>BOND
     1    12    11    2
     2    12    10    1
     3    11     9    1
     4    10     8    2
     5     9     7    2
     6     8     7    1
     7     7     6    1
     8     1     6    1
     9     1     2    1
    10     2     4    1
    11     2     3    2
    12     5     4    1
