@<TRIPOS>MOLECULE
/home/cewinharhar/GITHUB/reincatalyze/data/processed/docking_pred/2023_Apr_20-15:07/1c86ade130d2cc9f902dffb19ba95248752a952e_ligand_2.pdbqt
 12 12 0 0 0
SMALL
GASTEIGER

@<TRIPOS>ATOM
      1  C          5.3430    2.9400    0.0320 C.3     1  UNL1        0.1270
      2  C          6.2140    3.8490    0.8130 C.2     1  UNL1        0.3030
      3  O          6.8740    4.7590    0.2530 O.2     1  UNL1       -0.2520
      4  O          6.3240    3.7190    2.1880 O.3     1  UNL1       -0.4810
      5  H          5.7530    3.0210    2.6730 H       1  UNL1        0.2960
      6  C          5.0940    1.7090    0.8490 C.3     1  UNL1        0.0470
      7  C          5.9210    0.5650    0.4690 C.2     1  UNL1       -0.0470
      8  C          6.2650   -0.3930    1.3940 C.2     1  UNL1        0.0040
      9  C          6.3550    0.4530   -0.8320 C.2     1  UNL1        0.0040
     10  C          7.0570   -1.4590    0.9600 C.2     1  UNL1        0.0000
     11  C          7.1380   -0.6010   -1.2590 C.2     1  UNL1        0.0000
     12  C          7.4870   -1.5650   -0.3380 C.2     1  UNL1        0.0000
@<TRIPOS>BOND
     1    11     9    1
     2    11    12    2
     3     9     7    2
     4    12    10    1
     5     1     2    1
     6     1     6    1
     7     3     2    2
     8     7     6    1
     9     7     8    1
    10     2     4    1
    11    10     8    2
    12     4     5    1
