@<TRIPOS>MOLECULE
/home/cewinharhar/GITHUB/reincatalyze/data/processed/docking_pred/2023_Apr_20-15:07/1c86ade130d2cc9f902dffb19ba95248752a952e_ligand_2.pdbqt
 12 12 0 0 0
SMALL
GASTEIGER

@<TRIPOS>ATOM
      1  C          8.4450   -0.7920   -1.9240 C.3     1  UNL1        0.1270
      2  C          8.4660   -1.9500   -2.8490 C.2     1  UNL1        0.3030
      3  O          9.5450   -2.5070   -3.1700 O.2     1  UNL1       -0.2520
      4  O          7.2910   -2.4500   -3.3880 O.3     1  UNL1       -0.4810
      5  H          7.2710   -2.7320   -4.3720 H       1  UNL1        0.2960
      6  C          7.1000   -0.1400   -2.0170 C.3     1  UNL1        0.0470
      7  C          6.4750    0.1220   -0.7210 C.2     1  UNL1       -0.0470
      8  C          6.5580   -0.7980    0.2980 C.2     1  UNL1        0.0040
      9  C          5.8000    1.3050   -0.5280 C.2     1  UNL1        0.0040
     10  C          5.9390   -0.4820    1.5090 C.2     1  UNL1        0.0000
     11  C          5.1880    1.6160    0.6700 C.2     1  UNL1        0.0000
     12  C          5.2660    0.7000    1.6960 C.2     1  UNL1        0.0000
@<TRIPOS>BOND
     1     5     4    1
     2     4     2    1
     3     3     2    2
     4     2     1    1
     5     6     1    1
     6     6     7    1
     7     7     9    2
     8     7     8    1
     9     9    11    1
    10     8    10    2
    11    11    12    2
    12    10    12    1
