MODEL 1
REMARK VINA RESULT:      -7.3      0.000      0.000
REMARK SMILES O=C(O)CCc1ccccc1
REMARK SMILES IDX 4 1 2 2 1 3 3 4 5 6 6 7 7 8 11 9 8 10 10 11 9 12
REMARK H PARENT 3 5
REMARK Flexibility Score: inf
ROOT
ATOM      1  C   UNL     1       8.450  -0.769  -1.975  1.00  0.00     0.127 C 
ENDROOT
BRANCH   1   2
ATOM      2  C   UNL     1       8.470  -1.948  -2.872  1.00  0.00     0.303 C 
ATOM      3  O   UNL     1       9.544  -2.537  -3.149  1.00  0.00    -0.252 OA
BRANCH   2   4
ATOM      4  O   UNL     1       7.299  -2.435  -3.431  1.00  0.00    -0.481 OA
ATOM      5  H   UNL     1       6.657  -2.983  -2.852  1.00  0.00     0.296 HD
ENDBRANCH   2   4
ENDBRANCH   1   2
BRANCH   1   6
ATOM      6  C   UNL     1       7.090  -0.144  -2.048  1.00  0.00     0.047 C 
BRANCH   6   7
ATOM      7  C   UNL     1       6.475   0.095  -0.744  1.00  0.00    -0.047 A 
ATOM      8  C   UNL     1       5.800   1.266  -0.488  1.00  0.00     0.004 A 
ATOM      9  C   UNL     1       6.575  -0.870   0.233  1.00  0.00     0.004 A 
ATOM     10  C   UNL     1       5.236   1.426   0.780  1.00  0.00     0.000 A 
ATOM     11  C   UNL     1       6.017  -0.710   1.486  1.00  0.00     0.000 A 
ATOM     12  C   UNL     1       5.340   0.461   1.750  1.00  0.00     0.000 A 
ENDBRANCH   6   7
ENDBRANCH   1   6
TORSDOF 4
ENDMDL
MODEL 2
REMARK VINA RESULT:      -7.3      0.134      1.442
REMARK SMILES O=C(O)CCc1ccccc1
REMARK SMILES IDX 4 1 2 2 1 3 3 4 5 6 6 7 7 8 11 9 8 10 10 11 9 12
REMARK H PARENT 3 5
REMARK Flexibility Score: inf
ROOT
ATOM      1  C   UNL     1       8.445  -0.792  -1.924  1.00  0.00     0.127 C 
ENDROOT
BRANCH   1   2
ATOM      2  C   UNL     1       8.466  -1.950  -2.849  1.00  0.00     0.303 C 
ATOM      3  O   UNL     1       9.545  -2.507  -3.170  1.00  0.00    -0.252 OA
BRANCH   2   4
ATOM      4  O   UNL     1       7.291  -2.450  -3.388  1.00  0.00    -0.481 OA
ATOM      5  H   UNL     1       7.271  -2.732  -4.372  1.00  0.00     0.296 HD
ENDBRANCH   2   4
ENDBRANCH   1   2
BRANCH   1   6
ATOM      6  C   UNL     1       7.100  -0.140  -2.017  1.00  0.00     0.047 C 
BRANCH   6   7
ATOM      7  C   UNL     1       6.475   0.122  -0.721  1.00  0.00    -0.047 A 
ATOM      8  C   UNL     1       6.558  -0.798   0.298  1.00  0.00     0.004 A 
ATOM      9  C   UNL     1       5.800   1.305  -0.528  1.00  0.00     0.004 A 
ATOM     10  C   UNL     1       5.939  -0.482   1.509  1.00  0.00     0.000 A 
ATOM     11  C   UNL     1       5.188   1.616   0.670  1.00  0.00     0.000 A 
ATOM     12  C   UNL     1       5.266   0.700   1.696  1.00  0.00     0.000 A 
ENDBRANCH   6   7
ENDBRANCH   1   6
TORSDOF 4
ENDMDL
MODEL 3
REMARK VINA RESULT:      -6.7      3.339      5.037
REMARK SMILES O=C(O)CCc1ccccc1
REMARK SMILES IDX 4 1 2 2 1 3 3 4 5 6 6 7 7 8 11 9 8 10 10 11 9 12
REMARK H PARENT 3 5
REMARK Flexibility Score: inf
ROOT
ATOM      1  C   UNL     1       5.042   1.673   0.678  1.00  0.00     0.127 C 
ENDROOT
BRANCH   1   2
ATOM      2  C   UNL     1       4.596   1.007   1.924  1.00  0.00     0.303 C 
ATOM      3  O   UNL     1       5.317   0.154   2.500  1.00  0.00    -0.252 OA
BRANCH   2   4
ATOM      4  O   UNL     1       3.368   1.308   2.490  1.00  0.00    -0.481 OA
ATOM      5  H   UNL     1       2.546   0.759   2.224  1.00  0.00     0.296 HD
ENDBRANCH   2   4
ENDBRANCH   1   2
BRANCH   1   6
ATOM      6  C   UNL     1       6.538   1.755   0.697  1.00  0.00     0.047 C 
BRANCH   6   7
ATOM      7  C   UNL     1       7.189   1.004  -0.375  1.00  0.00    -0.047 A 
ATOM      8  C   UNL     1       8.521   1.194  -0.659  1.00  0.00     0.004 A 
ATOM      9  C   UNL     1       6.453   0.096  -1.101  1.00  0.00     0.004 A 
ATOM     10  C   UNL     1       9.077   0.441  -1.695  1.00  0.00     0.000 A 
ATOM     11  C   UNL     1       7.004  -0.647  -2.126  1.00  0.00     0.000 A 
ATOM     12  C   UNL     1       8.338  -0.462  -2.417  1.00  0.00     0.000 A 
ENDBRANCH   6   7
ENDBRANCH   1   6
TORSDOF 4
ENDMDL
MODEL 4
REMARK VINA RESULT:      -6.6      3.706      5.071
REMARK SMILES O=C(O)CCc1ccccc1
REMARK SMILES IDX 4 1 2 2 1 3 3 4 5 6 6 7 7 8 11 9 8 10 10 11 9 12
REMARK H PARENT 3 5
REMARK Flexibility Score: inf
ROOT
ATOM      1  C   UNL     1       5.343   2.940   0.032  1.00  0.00     0.127 C 
ENDROOT
BRANCH   1   2
ATOM      2  C   UNL     1       6.214   3.849   0.813  1.00  0.00     0.303 C 
ATOM      3  O   UNL     1       6.874   4.759   0.253  1.00  0.00    -0.252 OA
BRANCH   2   4
ATOM      4  O   UNL     1       6.324   3.719   2.188  1.00  0.00    -0.481 OA
ATOM      5  H   UNL     1       5.753   3.021   2.673  1.00  0.00     0.296 HD
ENDBRANCH   2   4
ENDBRANCH   1   2
BRANCH   1   6
ATOM      6  C   UNL     1       5.094   1.709   0.849  1.00  0.00     0.047 C 
BRANCH   6   7
ATOM      7  C   UNL     1       5.921   0.565   0.469  1.00  0.00    -0.047 A 
ATOM      8  C   UNL     1       6.265  -0.393   1.394  1.00  0.00     0.004 A 
ATOM      9  C   UNL     1       6.355   0.453  -0.832  1.00  0.00     0.004 A 
ATOM     10  C   UNL     1       7.057  -1.459   0.960  1.00  0.00     0.000 A 
ATOM     11  C   UNL     1       7.138  -0.601  -1.259  1.00  0.00     0.000 A 
ATOM     12  C   UNL     1       7.487  -1.565  -0.338  1.00  0.00     0.000 A 
ENDBRANCH   6   7
ENDBRANCH   1   6
TORSDOF 4
ENDMDL
MODEL 5
REMARK VINA RESULT:      -6.5      1.875      2.752
REMARK SMILES O=C(O)CCc1ccccc1
REMARK SMILES IDX 4 1 2 2 1 3 3 4 5 6 6 7 7 8 11 9 8 10 10 11 9 12
REMARK H PARENT 3 5
REMARK Flexibility Score: inf
ROOT
ATOM      1  C   UNL     1       8.240  -1.507   0.994  1.00  0.00     0.127 C 
ENDROOT
BRANCH   1   2
ATOM      2  C   UNL     1       8.486  -2.761   0.245  1.00  0.00     0.303 C 
ATOM      3  O   UNL     1       9.075  -3.734   0.779  1.00  0.00    -0.252 OA
BRANCH   2   4
ATOM      4  O   UNL     1       8.073  -2.896  -1.071  1.00  0.00    -0.481 OA
ATOM      5  H   UNL     1       7.360  -3.593  -1.303  1.00  0.00     0.296 HD
ENDBRANCH   2   4
ENDBRANCH   1   2
BRANCH   1   6
ATOM      6  C   UNL     1       6.768  -1.393   1.250  1.00  0.00     0.047 C 
BRANCH   6   7
ATOM      7  C   UNL     1       6.177  -0.143   0.775  1.00  0.00    -0.047 A 
ATOM      8  C   UNL     1       5.395   0.626   1.606  1.00  0.00     0.004 A 
ATOM      9  C   UNL     1       6.413   0.262  -0.518  1.00  0.00     0.004 A 
ATOM     10  C   UNL     1       4.864   1.808   1.085  1.00  0.00     0.000 A 
ATOM     11  C   UNL     1       5.886   1.431  -1.031  1.00  0.00     0.000 A 
ATOM     12  C   UNL     1       5.101   2.206  -0.206  1.00  0.00     0.000 A 
ENDBRANCH   6   7
ENDBRANCH   1   6
TORSDOF 4
ENDMDL
