@<TRIPOS>MOLECULE
/home/cewinharhar/GITHUB/reincatalyze/data/processed/docking_pred/2023_Apr_20-15:07/1c86ade130d2cc9f902dffb19ba95248752a952e_ligand_2.pdbqt
 12 12 0 0 0
SMALL
GASTEIGER

@<TRIPOS>ATOM
      1  C          8.2400   -1.5070    0.9940 C.3     1  UNL1        0.1270
      2  C          8.4860   -2.7610    0.2450 C.2     1  UNL1        0.3030
      3  O          9.0750   -3.7340    0.7790 O.2     1  UNL1       -0.2520
      4  O          8.0730   -2.8960   -1.0710 O.3     1  UNL1       -0.4810
      5  H          7.3600   -3.5930   -1.3030 H       1  UNL1        0.2960
      6  C          6.7680   -1.3930    1.2500 C.3     1  UNL1        0.0470
      7  C          6.1770   -0.1430    0.7750 C.2     1  UNL1       -0.0470
      8  C          5.3950    0.6260    1.6060 C.2     1  UNL1        0.0040
      9  C          6.4130    0.2620   -0.5180 C.2     1  UNL1        0.0040
     10  C          4.8640    1.8080    1.0850 C.2     1  UNL1        0.0000
     11  C          5.8860    1.4310   -1.0310 C.2     1  UNL1        0.0000
     12  C          5.1010    2.2060   -0.2060 C.2     1  UNL1        0.0000
@<TRIPOS>BOND
     1     5     4    1
     2     4     2    1
     3    11     9    1
     4    11    12    2
     5     9     7    2
     6    12    10    1
     7     2     3    2
     8     2     1    1
     9     7     6    1
    10     7     8    1
    11     1     6    1
    12    10     8    2
