@<TRIPOS>MOLECULE
/home/cewinharhar/GITHUB/reincatalyze/data/processed/docking_pred/2023_Apr_20-15:07/1caf15995fa8372ea76f1cb48e36fe3c815c3a18_ligand_2.pdbqt
 12 12 0 0 0
SMALL
GASTEIGER

@<TRIPOS>ATOM
      1  C          8.4480   -0.5520   -2.2200 C.3     1  UNL1        0.1270
      2  C          8.4960   -1.8590   -2.9170 C.2     1  UNL1        0.3030
      3  O          9.5860   -2.4460   -3.1270 O.2     1  UNL1       -0.2520
      4  O          7.3340   -2.4720   -3.3580 O.3     1  UNL1       -0.4810
      5  H          6.9610   -3.2720   -2.8400 H       1  UNL1        0.2960
      6  C          7.0240   -0.0850   -2.1940 C.3     1  UNL1        0.0470
      7  C          6.4870    0.1080   -0.8480 C.2     1  UNL1       -0.0470
      8  C          6.5900   -0.8840    0.0990 C.2     1  UNL1        0.0040
      9  C          5.8750    1.3000   -0.5340 C.2     1  UNL1        0.0040
     10  C          6.0550   -0.6290    1.3640 C.2     1  UNL1        0.0000
     11  C          5.3470    1.5490    0.7170 C.2     1  UNL1        0.0000
     12  C          5.4450    0.5610    1.6720 C.2     1  UNL1        0.0000
@<TRIPOS>BOND
     1     4     2    1
     2     4     5    1
     3     3     2    2
     4     2     1    1
     5     1     6    1
     6     6     7    1
     7     7     9    2
     8     7     8    1
     9     9    11    1
    10     8    10    2
    11    11    12    2
    12    10    12    1
