@<TRIPOS>MOLECULE
/home/cewinharhar/GITHUB/reincatalyze/data/processed/docking_pred/2023_Apr_20-15:07/1caf15995fa8372ea76f1cb48e36fe3c815c3a18_ligand_2.pdbqt
 12 12 0 0 0
SMALL
GASTEIGER

@<TRIPOS>ATOM
      1  C          8.0450   -2.2470    0.8180 C.3     1  UNL1        0.1270
      2  C          8.8150   -3.4030    0.3010 C.2     1  UNL1        0.3030
      3  O          8.7100   -3.7720   -0.8950 O.2     1  UNL1       -0.2520
      4  O          9.6740   -4.1100    1.1260 O.3     1  UNL1       -0.4810
      5  H         10.5560   -3.6790    1.4190 H       1  UNL1        0.2960
      6  C          7.4570   -1.5130   -0.3490 C.3     1  UNL1        0.0470
      7  C          6.6100   -0.3820    0.0260 C.2     1  UNL1       -0.0470
      8  C          6.3500    0.6290   -0.8700 C.2     1  UNL1        0.0040
      9  C          6.0690   -0.3380    1.2900 C.2     1  UNL1        0.0040
     10  C          5.5320    1.6780   -0.4440 C.2     1  UNL1        0.0000
     11  C          5.2610    0.7000    1.7100 C.2     1  UNL1        0.0000
     12  C          4.9960    1.7170    0.8190 C.2     1  UNL1        0.0000
@<TRIPOS>BOND
     1     3     2    2
     2     8    10    1
     3     8     7    2
     4    10    12    2
     5     6     7    1
     6     6     1    1
     7     7     9    1
     8     2     1    1
     9     2     4    1
    10    12    11    1
    11     4     5    1
    12     9    11    2
