@<TRIPOS>MOLECULE
/home/cewinharhar/GITHUB/reincatalyze/data/processed/docking_pred/2023_Apr_20-15:07/1caf15995fa8372ea76f1cb48e36fe3c815c3a18_ligand_2.pdbqt
 12 12 0 0 0
SMALL
GASTEIGER

@<TRIPOS>ATOM
      1  C          5.0440    1.7640    0.7060 C.3     1  UNL1        0.1270
      2  C          4.5690    1.0580    1.9200 C.2     1  UNL1        0.3030
      3  O          5.2710    0.1770    2.4760 O.2     1  UNL1       -0.2520
      4  O          3.3350    1.3520    2.4750 O.3     1  UNL1       -0.4810
      5  H          2.4920    1.2580    1.9010 H       1  UNL1        0.2960
      6  C          6.5420    1.7710    0.7200 C.3     1  UNL1        0.0470
      7  C          7.1510    1.0020   -0.3630 C.2     1  UNL1       -0.0470
      8  C          6.4130    0.0850   -1.0760 C.2     1  UNL1        0.0040
      9  C          8.4770    1.2050   -0.6680 C.2     1  UNL1        0.0040
     10  C          7.0590   -0.6130   -2.0990 C.2     1  UNL1        0.0000
     11  C          9.1140    0.5130   -1.6790 C.2     1  UNL1        0.0000
     12  C          8.3820   -0.4070   -2.3980 C.2     1  UNL1        0.0000
@<TRIPOS>BOND
     1    12    10    2
     2    12    11    1
     3    10     8    1
     4    11     9    2
     5     8     7    2
     6     9     7    1
     7     7     6    1
     8     1     6    1
     9     1     2    1
    10     5     4    1
    11     2     4    1
    12     2     3    2
