@<TRIPOS>MOLECULE
/home/cewinharhar/GITHUB/reincatalyze/data/processed/docking_pred/2023_Apr_20-15:07/1caf15995fa8372ea76f1cb48e36fe3c815c3a18_ligand_2.pdbqt
 12 12 0 0 0
SMALL
GASTEIGER

@<TRIPOS>ATOM
      1  C          7.3120   -1.2510   -2.2520 C.3     1  UNL1        0.1270
      2  C          8.7670   -1.3550   -2.5130 C.2     1  UNL1        0.3030
      3  O          9.2410   -2.3040   -3.1850 O.2     1  UNL1       -0.2520
      4  O          9.6460   -0.4030   -2.0210 O.3     1  UNL1       -0.4810
      5  H         10.2460   -0.6400   -1.2260 H       1  UNL1        0.2960
      6  C          7.0870   -1.3800   -0.7770 C.3     1  UNL1        0.0470
      7  C          6.3670   -0.2550   -0.1840 C.2     1  UNL1       -0.0470
      8  C          6.1070    0.8790   -0.9180 C.2     1  UNL1        0.0040
      9  C          5.9470   -0.3410    1.1230 C.2     1  UNL1        0.0040
     10  C          5.4130    1.9140   -0.2870 C.2     1  UNL1        0.0000
     11  C          5.2610    0.6840    1.7450 C.2     1  UNL1        0.0000
     12  C          4.9970    1.8240    1.0170 C.2     1  UNL1        0.0000
@<TRIPOS>BOND
     1     3     2    2
     2     2     1    1
     3     2     4    1
     4     1     6    1
     5     4     5    1
     6     8    10    1
     7     8     7    2
     8     6     7    1
     9    10    12    2
    10     7     9    1
    11    12    11    1
    12     9    11    2
