@<TRIPOS>MOLECULE
/home/cewinharhar/GITHUB/reincatalyze/data/processed/docking_pred/2023_Apr_20-15:07/1e16add1d5649bf0b13dd0d86c7d3fc630d89625_ligand_2.pdbqt
 12 12 0 0 0
SMALL
GASTEIGER

@<TRIPOS>ATOM
      1  C          8.2760   -1.0080   -2.1600 C.3     1  UNL1        0.1270
      2  C          8.5600   -2.1350   -3.0790 C.2     1  UNL1        0.3030
      3  O          7.6410   -2.6950   -3.7260 O.2     1  UNL1       -0.2520
      4  O          9.8530   -2.6020   -3.2510 O.3     1  UNL1       -0.4810
      5  H         10.6170   -2.1690   -2.7250 H       1  UNL1        0.2960
      6  C          7.2950   -1.4780   -1.1290 C.3     1  UNL1        0.0470
      7  C          6.6240   -0.3970   -0.4100 C.2     1  UNL1       -0.0470
      8  C          6.5100   -0.4280    0.9610 C.2     1  UNL1        0.0040
      9  C          6.1060    0.6610   -1.1200 C.2     1  UNL1        0.0040
     10  C          5.8580    0.6400    1.5810 C.2     1  UNL1        0.0000
     11  C          5.4610    1.7160   -0.5050 C.2     1  UNL1        0.0000
     12  C          5.3420    1.6920    0.8670 C.2     1  UNL1        0.0000
@<TRIPOS>BOND
     1     3     2    2
     2     4     2    1
     3     4     5    1
     4     2     1    1
     5     1     6    1
     6     6     7    1
     7     9    11    1
     8     9     7    2
     9    11    12    2
    10     7     8    1
    11    12    10    1
    12     8    10    2
