@<TRIPOS>MOLECULE
/home/cewinharhar/GITHUB/reincatalyze/data/processed/docking_pred/2023_Apr_20-15:07/1e16add1d5649bf0b13dd0d86c7d3fc630d89625_ligand_2.pdbqt
 12 12 0 0 0
SMALL
GASTEIGER

@<TRIPOS>ATOM
      1  C          8.2350    0.1980   -2.4410 C.3     1  UNL1        0.1270
      2  C          8.1740   -1.2700   -2.6360 C.2     1  UNL1        0.3030
      3  O          7.0790   -1.8840   -2.6130 O.2     1  UNL1       -0.2520
      4  O          9.3280   -2.0060   -2.8500 O.3     1  UNL1       -0.4810
      5  H          9.6860   -2.1120   -3.8030 H       1  UNL1        0.2960
      6  C          8.6960    0.4680   -1.0410 C.3     1  UNL1        0.0470
      7  C          7.6240    0.4390   -0.0470 C.2     1  UNL1       -0.0470
      8  C          6.5820    1.3350   -0.1090 C.2     1  UNL1        0.0040
      9  C          7.6650   -0.5010    0.9580 C.2     1  UNL1        0.0040
     10  C          5.5930    1.2480    0.8730 C.2     1  UNL1        0.0000
     11  C          6.6870   -0.5850    1.9280 C.2     1  UNL1        0.0000
     12  C          5.6400    0.3100    1.8730 C.2     1  UNL1        0.0000
@<TRIPOS>BOND
     1     5     4    1
     2     4     2    1
     3     2     3    2
     4     2     1    1
     5     1     6    1
     6     6     7    1
     7     8     7    2
     8     8    10    1
     9     7     9    1
    10    10    12    2
    11     9    11    2
    12    12    11    1
