@<TRIPOS>MOLECULE
/home/cewinharhar/GITHUB/reincatalyze/data/processed/docking_pred/2023_Apr_20-15:07/1e16add1d5649bf0b13dd0d86c7d3fc630d89625_ligand_2.pdbqt
 12 12 0 0 0
SMALL
GASTEIGER

@<TRIPOS>ATOM
      1  C          5.4140    2.9460    0.1570 C.3     1  UNL1        0.1270
      2  C          6.2620    3.9150    0.8900 C.2     1  UNL1        0.3030
      3  O          6.9440    4.7750    0.2800 O.2     1  UNL1       -0.2520
      4  O          6.3260    3.8980    2.2740 O.3     1  UNL1       -0.4810
      5  H          7.2190    3.6960    2.7320 H       1  UNL1        0.2960
      6  C          5.4180    1.6520    0.9130 C.3     1  UNL1        0.0470
      7  C          6.1030    0.5620    0.2210 C.2     1  UNL1       -0.0470
      8  C          6.6620   -0.4780    0.9270 C.2     1  UNL1        0.0040
      9  C          6.1840    0.5830   -1.1520 C.2     1  UNL1        0.0040
     10  C          7.3010   -1.4860    0.2010 C.2     1  UNL1        0.0000
     11  C          6.8160   -0.4140   -1.8690 C.2     1  UNL1        0.0000
     12  C          7.3790   -1.4590   -1.1690 C.2     1  UNL1        0.0000
@<TRIPOS>BOND
     1    11    12    2
     2    11     9    1
     3    12    10    1
     4     9     7    2
     5     1     2    1
     6     1     6    1
     7    10     8    2
     8     7     6    1
     9     7     8    1
    10     3     2    2
    11     2     4    1
    12     4     5    1
