@<TRIPOS>MOLECULE
/home/cewinharhar/GITHUB/reincatalyze/data/processed/docking_pred/2023_Apr_20-15:07/1e16add1d5649bf0b13dd0d86c7d3fc630d89625_ligand_2.pdbqt
 12 12 0 0 0
SMALL
GASTEIGER

@<TRIPOS>ATOM
      1  C          8.3050   -1.0270   -2.1800 C.3     1  UNL1        0.1270
      2  C          8.6180   -2.1540   -3.0900 C.2     1  UNL1        0.3030
      3  O          7.7220   -2.7060   -3.7750 O.2     1  UNL1       -0.2520
      4  O          9.9140   -2.6310   -3.2090 O.3     1  UNL1       -0.4810
      5  H         10.1460   -3.5530   -2.8280 H       1  UNL1        0.2960
      6  C          6.8250   -1.0100   -1.9450 C.3     1  UNL1        0.0470
      7  C          6.4010   -0.0940   -0.8880 C.2     1  UNL1       -0.0470
      8  C          5.8100    1.1100   -1.1950 C.2     1  UNL1        0.0040
      9  C          6.5990   -0.4480    0.4260 C.2     1  UNL1        0.0040
     10  C          5.4300    1.9350   -0.1340 C.2     1  UNL1        0.0000
     11  C          6.2220    0.3690    1.4740 C.2     1  UNL1        0.0000
     12  C          5.6300    1.5760    1.1750 C.2     1  UNL1        0.0000
@<TRIPOS>BOND
     1     3     2    2
     2     4     2    1
     3     4     5    1
     4     2     1    1
     5     1     6    1
     6     6     7    1
     7     8     7    2
     8     8    10    1
     9     7     9    1
    10    10    12    2
    11     9    11    2
    12    12    11    1
