MODEL 1
REMARK VINA RESULT:      -6.7      0.000      0.000
REMARK SMILES O=C(O)CCc1ccccc1
REMARK SMILES IDX 4 1 2 2 1 3 3 4 5 6 6 7 7 8 11 9 8 10 10 11 9 12
REMARK H PARENT 3 5
REMARK Flexibility Score: inf
ROOT
ATOM      1  C   UNL     1       8.276  -1.008  -2.160  1.00  0.00     0.127 C 
ENDROOT
BRANCH   1   2
ATOM      2  C   UNL     1       8.560  -2.135  -3.079  1.00  0.00     0.303 C 
ATOM      3  O   UNL     1       7.641  -2.695  -3.726  1.00  0.00    -0.252 OA
BRANCH   2   4
ATOM      4  O   UNL     1       9.853  -2.602  -3.251  1.00  0.00    -0.481 OA
ATOM      5  H   UNL     1      10.617  -2.169  -2.725  1.00  0.00     0.296 HD
ENDBRANCH   2   4
ENDBRANCH   1   2
BRANCH   1   6
ATOM      6  C   UNL     1       7.295  -1.478  -1.129  1.00  0.00     0.047 C 
BRANCH   6   7
ATOM      7  C   UNL     1       6.624  -0.397  -0.410  1.00  0.00    -0.047 A 
ATOM      8  C   UNL     1       6.510  -0.428   0.961  1.00  0.00     0.004 A 
ATOM      9  C   UNL     1       6.106   0.661  -1.120  1.00  0.00     0.004 A 
ATOM     10  C   UNL     1       5.858   0.640   1.581  1.00  0.00     0.000 A 
ATOM     11  C   UNL     1       5.461   1.716  -0.505  1.00  0.00     0.000 A 
ATOM     12  C   UNL     1       5.342   1.692   0.867  1.00  0.00     0.000 A 
ENDBRANCH   6   7
ENDBRANCH   1   6
TORSDOF 4
ENDMDL
MODEL 2
REMARK VINA RESULT:      -6.6      0.494      1.482
REMARK SMILES O=C(O)CCc1ccccc1
REMARK SMILES IDX 4 1 2 2 1 3 3 4 5 6 6 7 7 8 11 9 8 10 10 11 9 12
REMARK H PARENT 3 5
REMARK Flexibility Score: inf
ROOT
ATOM      1  C   UNL     1       8.305  -1.027  -2.180  1.00  0.00     0.127 C 
ENDROOT
BRANCH   1   2
ATOM      2  C   UNL     1       8.618  -2.154  -3.090  1.00  0.00     0.303 C 
ATOM      3  O   UNL     1       7.722  -2.706  -3.775  1.00  0.00    -0.252 OA
BRANCH   2   4
ATOM      4  O   UNL     1       9.914  -2.631  -3.209  1.00  0.00    -0.481 OA
ATOM      5  H   UNL     1      10.146  -3.553  -2.828  1.00  0.00     0.296 HD
ENDBRANCH   2   4
ENDBRANCH   1   2
BRANCH   1   6
ATOM      6  C   UNL     1       6.825  -1.010  -1.945  1.00  0.00     0.047 C 
BRANCH   6   7
ATOM      7  C   UNL     1       6.401  -0.094  -0.888  1.00  0.00    -0.047 A 
ATOM      8  C   UNL     1       5.810   1.110  -1.195  1.00  0.00     0.004 A 
ATOM      9  C   UNL     1       6.599  -0.448   0.426  1.00  0.00     0.004 A 
ATOM     10  C   UNL     1       5.430   1.935  -0.134  1.00  0.00     0.000 A 
ATOM     11  C   UNL     1       6.222   0.369   1.474  1.00  0.00     0.000 A 
ATOM     12  C   UNL     1       5.630   1.576   1.175  1.00  0.00     0.000 A 
ENDBRANCH   6   7
ENDBRANCH   1   6
TORSDOF 4
ENDMDL
MODEL 3
REMARK VINA RESULT:      -6.6      0.549      1.109
REMARK SMILES O=C(O)CCc1ccccc1
REMARK SMILES IDX 4 1 2 2 1 3 3 4 5 6 6 7 7 8 11 9 8 10 10 11 9 12
REMARK H PARENT 3 5
REMARK Flexibility Score: inf
ROOT
ATOM      1  C   UNL     1       8.355  -0.992  -2.160  1.00  0.00     0.127 C 
ENDROOT
BRANCH   1   2
ATOM      2  C   UNL     1       8.653  -2.159  -3.023  1.00  0.00     0.303 C 
ATOM      3  O   UNL     1       9.831  -2.560  -3.192  1.00  0.00    -0.252 OA
BRANCH   2   4
ATOM      4  O   UNL     1       7.636  -2.842  -3.670  1.00  0.00    -0.481 OA
ATOM      5  H   UNL     1       7.007  -3.438  -3.125  1.00  0.00     0.296 HD
ENDBRANCH   2   4
ENDBRANCH   1   2
BRANCH   1   6
ATOM      6  C   UNL     1       6.867  -0.844  -2.066  1.00  0.00     0.047 C 
BRANCH   6   7
ATOM      7  C   UNL     1       6.419  -0.061  -0.915  1.00  0.00    -0.047 A 
ATOM      8  C   UNL     1       6.625  -0.514   0.367  1.00  0.00     0.004 A 
ATOM      9  C   UNL     1       5.788   1.143  -1.127  1.00  0.00     0.004 A 
ATOM     10  C   UNL     1       6.172   0.286   1.418  1.00  0.00     0.000 A 
ATOM     11  C   UNL     1       5.340   1.932  -0.087  1.00  0.00     0.000 A 
ATOM     12  C   UNL     1       5.541   1.485   1.201  1.00  0.00     0.000 A 
ENDBRANCH   6   7
ENDBRANCH   1   6
TORSDOF 4
ENDMDL
MODEL 4
REMARK VINA RESULT:      -6.6      3.892      5.209
REMARK SMILES O=C(O)CCc1ccccc1
REMARK SMILES IDX 4 1 2 2 1 3 3 4 5 6 6 7 7 8 11 9 8 10 10 11 9 12
REMARK H PARENT 3 5
REMARK Flexibility Score: inf
ROOT
ATOM      1  C   UNL     1       5.414   2.946   0.157  1.00  0.00     0.127 C 
ENDROOT
BRANCH   1   2
ATOM      2  C   UNL     1       6.262   3.915   0.890  1.00  0.00     0.303 C 
ATOM      3  O   UNL     1       6.944   4.775   0.280  1.00  0.00    -0.252 OA
BRANCH   2   4
ATOM      4  O   UNL     1       6.326   3.898   2.274  1.00  0.00    -0.481 OA
ATOM      5  H   UNL     1       7.219   3.696   2.732  1.00  0.00     0.296 HD
ENDBRANCH   2   4
ENDBRANCH   1   2
BRANCH   1   6
ATOM      6  C   UNL     1       5.418   1.652   0.913  1.00  0.00     0.047 C 
BRANCH   6   7
ATOM      7  C   UNL     1       6.103   0.562   0.221  1.00  0.00    -0.047 A 
ATOM      8  C   UNL     1       6.662  -0.478   0.927  1.00  0.00     0.004 A 
ATOM      9  C   UNL     1       6.184   0.583  -1.152  1.00  0.00     0.004 A 
ATOM     10  C   UNL     1       7.301  -1.486   0.201  1.00  0.00     0.000 A 
ATOM     11  C   UNL     1       6.816  -0.414  -1.869  1.00  0.00     0.000 A 
ATOM     12  C   UNL     1       7.379  -1.459  -1.169  1.00  0.00     0.000 A 
ENDBRANCH   6   7
ENDBRANCH   1   6
TORSDOF 4
ENDMDL
MODEL 5
REMARK VINA RESULT:      -6.5      1.155      1.960
REMARK SMILES O=C(O)CCc1ccccc1
REMARK SMILES IDX 4 1 2 2 1 3 3 4 5 6 6 7 7 8 11 9 8 10 10 11 9 12
REMARK H PARENT 3 5
REMARK Flexibility Score: inf
ROOT
ATOM      1  C   UNL     1       8.235   0.198  -2.441  1.00  0.00     0.127 C 
ENDROOT
BRANCH   1   2
ATOM      2  C   UNL     1       8.174  -1.270  -2.636  1.00  0.00     0.303 C 
ATOM      3  O   UNL     1       7.079  -1.884  -2.613  1.00  0.00    -0.252 OA
BRANCH   2   4
ATOM      4  O   UNL     1       9.328  -2.006  -2.850  1.00  0.00    -0.481 OA
ATOM      5  H   UNL     1       9.686  -2.112  -3.803  1.00  0.00     0.296 HD
ENDBRANCH   2   4
ENDBRANCH   1   2
BRANCH   1   6
ATOM      6  C   UNL     1       8.696   0.468  -1.041  1.00  0.00     0.047 C 
BRANCH   6   7
ATOM      7  C   UNL     1       7.624   0.439  -0.047  1.00  0.00    -0.047 A 
ATOM      8  C   UNL     1       6.582   1.335  -0.109  1.00  0.00     0.004 A 
ATOM      9  C   UNL     1       7.665  -0.501   0.958  1.00  0.00     0.004 A 
ATOM     10  C   UNL     1       5.593   1.248   0.873  1.00  0.00     0.000 A 
ATOM     11  C   UNL     1       6.687  -0.585   1.928  1.00  0.00     0.000 A 
ATOM     12  C   UNL     1       5.640   0.310   1.873  1.00  0.00     0.000 A 
ENDBRANCH   6   7
ENDBRANCH   1   6
TORSDOF 4
ENDMDL
