@<TRIPOS>MOLECULE
/home/cewinharhar/GITHUB/reincatalyze/data/processed/docking_pred/2023_Apr_20-15:07/1e16add1d5649bf0b13dd0d86c7d3fc630d89625_ligand_2.pdbqt
 12 12 0 0 0
SMALL
GASTEIGER

@<TRIPOS>ATOM
      1  C          8.3550   -0.9920   -2.1600 C.3     1  UNL1        0.1270
      2  C          8.6530   -2.1590   -3.0230 C.2     1  UNL1        0.3030
      3  O          9.8310   -2.5600   -3.1920 O.2     1  UNL1       -0.2520
      4  O          7.6360   -2.8420   -3.6700 O.3     1  UNL1       -0.4810
      5  H          7.0070   -3.4380   -3.1250 H       1  UNL1        0.2960
      6  C          6.8670   -0.8440   -2.0660 C.3     1  UNL1        0.0470
      7  C          6.4190   -0.0610   -0.9150 C.2     1  UNL1       -0.0470
      8  C          6.6250   -0.5140    0.3670 C.2     1  UNL1        0.0040
      9  C          5.7880    1.1430   -1.1270 C.2     1  UNL1        0.0040
     10  C          6.1720    0.2860    1.4180 C.2     1  UNL1        0.0000
     11  C          5.3400    1.9320   -0.0870 C.2     1  UNL1        0.0000
     12  C          5.5410    1.4850    1.2010 C.2     1  UNL1        0.0000
@<TRIPOS>BOND
     1     4     5    1
     2     4     2    1
     3     3     2    2
     4     2     1    1
     5     1     6    1
     6     6     7    1
     7     9     7    2
     8     9    11    1
     9     7     8    1
    10    11    12    2
    11     8    10    2
    12    12    10    1
