@<TRIPOS>MOLECULE
/home/cewinharhar/GITHUB/reincatalyze/data/processed/docking_pred/2023_Apr_20-15:07/1e20ac6c45a20644dde897fa0fc5711864bcd284_ligand_2.pdbqt
 12 12 0 0 0
SMALL
GASTEIGER

@<TRIPOS>ATOM
      1  C          4.9890    1.7790    0.6900 C.3     1  UNL1        0.1270
      2  C          4.4840    1.1120    1.9130 C.2     1  UNL1        0.3030
      3  O          5.1510    0.2180    2.4900 O.2     1  UNL1       -0.2520
      4  O          3.2570    1.4590    2.4560 O.3     1  UNL1       -0.4810
      5  H          3.1960    2.2680    3.0800 H       1  UNL1        0.2960
      6  C          6.4870    1.7810    0.7390 C.3     1  UNL1        0.0470
      7  C          7.1180    1.0290   -0.3440 C.2     1  UNL1       -0.0470
      8  C          6.3950    0.1260   -1.0880 C.2     1  UNL1        0.0040
      9  C          8.4510    1.2350   -0.6160 C.2     1  UNL1        0.0040
     10  C          7.0630   -0.5560   -2.1070 C.2     1  UNL1        0.0000
     11  C          9.1100    0.5600   -1.6240 C.2     1  UNL1        0.0000
     12  C          8.3920   -0.3470   -2.3740 C.2     1  UNL1        0.0000
@<TRIPOS>BOND
     1    12    10    2
     2    12    11    1
     3    10     8    1
     4    11     9    2
     5     8     7    2
     6     9     7    1
     7     7     6    1
     8     1     6    1
     9     1     2    1
    10     2     4    1
    11     2     3    2
    12     4     5    1
