@<TRIPOS>MOLECULE
/home/cewinharhar/GITHUB/reincatalyze/data/processed/docking_pred/2023_Apr_20-15:07/1e20ac6c45a20644dde897fa0fc5711864bcd284_ligand_2.pdbqt
 12 12 0 0 0
SMALL
GASTEIGER

@<TRIPOS>ATOM
      1  C          7.9940   -0.7990   -2.0700 C.3     1  UNL1        0.1270
      2  C          8.2560   -1.9750   -2.9330 C.2     1  UNL1        0.3030
      3  O          9.4130   -2.4500   -3.0520 O.2     1  UNL1       -0.2520
      4  O          7.2290   -2.5830   -3.6360 O.3     1  UNL1       -0.4810
      5  H          7.4050   -3.4730   -4.1110 H       1  UNL1        0.2960
      6  C          7.3670   -1.2810   -0.7970 C.3     1  UNL1        0.0470
      7  C          6.5330   -0.2820   -0.1300 C.2     1  UNL1       -0.0470
      8  C          6.1070   -0.4720    1.1640 C.2     1  UNL1        0.0040
      9  C          6.1770    0.8580   -0.8120 C.2     1  UNL1        0.0040
     10  C          5.3140    0.5240    1.7380 C.2     1  UNL1        0.0000
     11  C          5.3920    1.8420   -0.2430 C.2     1  UNL1        0.0000
     12  C          4.9610    1.6590    1.0530 C.2     1  UNL1        0.0000
@<TRIPOS>BOND
     1     5     4    1
     2     4     2    1
     3     3     2    2
     4     2     1    1
     5     1     6    1
     6     9    11    1
     7     9     7    2
     8     6     7    1
     9    11    12    2
    10     7     8    1
    11    12    10    1
    12     8    10    2
