@<TRIPOS>MOLECULE
/home/cewinharhar/GITHUB/reincatalyze/data/processed/docking_pred/2023_Apr_20-15:07/1e20ac6c45a20644dde897fa0fc5711864bcd284_ligand_2.pdbqt
 12 12 0 0 0
SMALL
GASTEIGER

@<TRIPOS>ATOM
      1  C          8.4020   -0.5760   -2.1710 C.3     1  UNL1        0.1270
      2  C          8.3750   -1.8650   -2.9020 C.2     1  UNL1        0.3030
      3  O          7.2890   -2.4060   -3.2280 O.2     1  UNL1       -0.2520
      4  O          9.5510   -2.5110   -3.2450 O.3     1  UNL1       -0.4810
      5  H         10.4420   -2.1520   -2.8900 H       1  UNL1        0.2960
      6  C          7.0040   -0.0390   -2.1120 C.3     1  UNL1        0.0470
      7  C          6.4740    0.0890   -0.7560 C.2     1  UNL1       -0.0470
      8  C          5.8540    1.2480   -0.3490 C.2     1  UNL1        0.0040
      9  C          6.5980   -0.9670    0.1170 C.2     1  UNL1        0.0040
     10  C          5.3700    1.3000    0.9600 C.2     1  UNL1        0.0000
     11  C          6.1200   -0.9140    1.4110 C.2     1  UNL1        0.0000
     12  C          5.4990    0.2440    1.8260 C.2     1  UNL1        0.0000
@<TRIPOS>BOND
     1     4     2    1
     2     4     5    1
     3     3     2    2
     4     2     1    1
     5     1     6    1
     6     6     7    1
     7     7     8    2
     8     7     9    1
     9     8    10    1
    10     9    11    2
    11    10    12    2
    12    11    12    1
