MODEL 1
REMARK VINA RESULT:      -7.3      0.000      0.000
REMARK SMILES O=C(O)CCc1ccccc1
REMARK SMILES IDX 4 1 2 2 1 3 3 4 5 6 6 7 7 8 11 9 8 10 10 11 9 12
REMARK H PARENT 3 5
REMARK Flexibility Score: inf
ROOT
ATOM      1  C   UNL     1       8.436  -0.564  -2.249  1.00  0.00     0.127 C 
ENDROOT
BRANCH   1   2
ATOM      2  C   UNL     1       8.492  -1.876  -2.935  1.00  0.00     0.303 C 
ATOM      3  O   UNL     1       9.582  -2.475  -3.107  1.00  0.00    -0.252 OA
BRANCH   2   4
ATOM      4  O   UNL     1       7.337  -2.480  -3.407  1.00  0.00    -0.481 OA
ATOM      5  H   UNL     1       6.463  -1.948  -3.421  1.00  0.00     0.296 HD
ENDBRANCH   2   4
ENDBRANCH   1   2
BRANCH   1   6
ATOM      6  C   UNL     1       7.005  -0.126  -2.185  1.00  0.00     0.047 C 
BRANCH   6   7
ATOM      7  C   UNL     1       6.489   0.025  -0.826  1.00  0.00    -0.047 A 
ATOM      8  C   UNL     1       6.630  -0.986   0.097  1.00  0.00     0.004 A 
ATOM      9  C   UNL     1       5.858   1.195  -0.473  1.00  0.00     0.004 A 
ATOM     10  C   UNL     1       6.114  -0.772   1.377  1.00  0.00     0.000 A 
ATOM     11  C   UNL     1       5.348   1.405   0.793  1.00  0.00     0.000 A 
ATOM     12  C   UNL     1       5.485   0.397   1.722  1.00  0.00     0.000 A 
ENDBRANCH   6   7
ENDBRANCH   1   6
TORSDOF 4
ENDMDL
MODEL 2
REMARK VINA RESULT:      -7.2      0.142      1.733
REMARK SMILES O=C(O)CCc1ccccc1
REMARK SMILES IDX 4 1 2 2 1 3 3 4 5 6 6 7 7 8 11 9 8 10 10 11 9 12
REMARK H PARENT 3 5
REMARK Flexibility Score: inf
ROOT
ATOM      1  C   UNL     1       8.402  -0.576  -2.171  1.00  0.00     0.127 C 
ENDROOT
BRANCH   1   2
ATOM      2  C   UNL     1       8.375  -1.865  -2.902  1.00  0.00     0.303 C 
ATOM      3  O   UNL     1       7.289  -2.406  -3.228  1.00  0.00    -0.252 OA
BRANCH   2   4
ATOM      4  O   UNL     1       9.551  -2.511  -3.245  1.00  0.00    -0.481 OA
ATOM      5  H   UNL     1      10.442  -2.152  -2.890  1.00  0.00     0.296 HD
ENDBRANCH   2   4
ENDBRANCH   1   2
BRANCH   1   6
ATOM      6  C   UNL     1       7.004  -0.039  -2.112  1.00  0.00     0.047 C 
BRANCH   6   7
ATOM      7  C   UNL     1       6.474   0.089  -0.756  1.00  0.00    -0.047 A 
ATOM      8  C   UNL     1       5.854   1.248  -0.349  1.00  0.00     0.004 A 
ATOM      9  C   UNL     1       6.598  -0.967   0.117  1.00  0.00     0.004 A 
ATOM     10  C   UNL     1       5.370   1.300   0.960  1.00  0.00     0.000 A 
ATOM     11  C   UNL     1       6.120  -0.914   1.411  1.00  0.00     0.000 A 
ATOM     12  C   UNL     1       5.499   0.244   1.826  1.00  0.00     0.000 A 
ENDBRANCH   6   7
ENDBRANCH   1   6
TORSDOF 4
ENDMDL
MODEL 3
REMARK VINA RESULT:      -7.1      0.597      1.065
REMARK SMILES O=C(O)CCc1ccccc1
REMARK SMILES IDX 4 1 2 2 1 3 3 4 5 6 6 7 7 8 11 9 8 10 10 11 9 12
REMARK H PARENT 3 5
REMARK Flexibility Score: inf
ROOT
ATOM      1  C   UNL     1       7.994  -0.799  -2.070  1.00  0.00     0.127 C 
ENDROOT
BRANCH   1   2
ATOM      2  C   UNL     1       8.256  -1.975  -2.933  1.00  0.00     0.303 C 
ATOM      3  O   UNL     1       9.413  -2.450  -3.052  1.00  0.00    -0.252 OA
BRANCH   2   4
ATOM      4  O   UNL     1       7.229  -2.583  -3.636  1.00  0.00    -0.481 OA
ATOM      5  H   UNL     1       7.405  -3.473  -4.111  1.00  0.00     0.296 HD
ENDBRANCH   2   4
ENDBRANCH   1   2
BRANCH   1   6
ATOM      6  C   UNL     1       7.367  -1.281  -0.797  1.00  0.00     0.047 C 
BRANCH   6   7
ATOM      7  C   UNL     1       6.533  -0.282  -0.130  1.00  0.00    -0.047 A 
ATOM      8  C   UNL     1       6.107  -0.472   1.164  1.00  0.00     0.004 A 
ATOM      9  C   UNL     1       6.177   0.858  -0.812  1.00  0.00     0.004 A 
ATOM     10  C   UNL     1       5.314   0.524   1.738  1.00  0.00     0.000 A 
ATOM     11  C   UNL     1       5.392   1.842  -0.243  1.00  0.00     0.000 A 
ATOM     12  C   UNL     1       4.961   1.659   1.053  1.00  0.00     0.000 A 
ENDBRANCH   6   7
ENDBRANCH   1   6
TORSDOF 4
ENDMDL
MODEL 4
REMARK VINA RESULT:      -6.7      3.386      5.067
REMARK SMILES O=C(O)CCc1ccccc1
REMARK SMILES IDX 4 1 2 2 1 3 3 4 5 6 6 7 7 8 11 9 8 10 10 11 9 12
REMARK H PARENT 3 5
REMARK Flexibility Score: inf
ROOT
ATOM      1  C   UNL     1       4.989   1.779   0.690  1.00  0.00     0.127 C 
ENDROOT
BRANCH   1   2
ATOM      2  C   UNL     1       4.484   1.112   1.913  1.00  0.00     0.303 C 
ATOM      3  O   UNL     1       5.151   0.218   2.490  1.00  0.00    -0.252 OA
BRANCH   2   4
ATOM      4  O   UNL     1       3.257   1.459   2.456  1.00  0.00    -0.481 OA
ATOM      5  H   UNL     1       3.196   2.268   3.080  1.00  0.00     0.296 HD
ENDBRANCH   2   4
ENDBRANCH   1   2
BRANCH   1   6
ATOM      6  C   UNL     1       6.487   1.781   0.739  1.00  0.00     0.047 C 
BRANCH   6   7
ATOM      7  C   UNL     1       7.118   1.029  -0.344  1.00  0.00    -0.047 A 
ATOM      8  C   UNL     1       6.395   0.126  -1.088  1.00  0.00     0.004 A 
ATOM      9  C   UNL     1       8.451   1.235  -0.616  1.00  0.00     0.004 A 
ATOM     10  C   UNL     1       7.063  -0.556  -2.107  1.00  0.00     0.000 A 
ATOM     11  C   UNL     1       9.110   0.560  -1.624  1.00  0.00     0.000 A 
ATOM     12  C   UNL     1       8.392  -0.347  -2.374  1.00  0.00     0.000 A 
ENDBRANCH   6   7
ENDBRANCH   1   6
TORSDOF 4
ENDMDL
MODEL 5
REMARK VINA RESULT:      -6.6      1.973      2.651
REMARK SMILES O=C(O)CCc1ccccc1
REMARK SMILES IDX 4 1 2 2 1 3 3 4 5 6 6 7 7 8 11 9 8 10 10 11 9 12
REMARK H PARENT 3 5
REMARK Flexibility Score: inf
ROOT
ATOM      1  C   UNL     1       8.223   0.343  -2.038  1.00  0.00     0.127 C 
ENDROOT
BRANCH   1   2
ATOM      2  C   UNL     1       9.407   0.392  -1.147  1.00  0.00     0.303 C 
ATOM      3  O   UNL     1       9.509  -0.374  -0.158  1.00  0.00    -0.252 OA
BRANCH   2   4
ATOM      4  O   UNL     1      10.436   1.289  -1.383  1.00  0.00    -0.481 OA
ATOM      5  H   UNL     1      10.983   1.643  -0.593  1.00  0.00     0.296 HD
ENDBRANCH   2   4
ENDBRANCH   1   2
BRANCH   1   6
ATOM      6  C   UNL     1       7.186  -0.527  -1.395  1.00  0.00     0.047 C 
BRANCH   6   7
ATOM      7  C   UNL     1       6.375   0.159  -0.391  1.00  0.00    -0.047 A 
ATOM      8  C   UNL     1       5.813   1.385  -0.659  1.00  0.00     0.004 A 
ATOM      9  C   UNL     1       6.175  -0.438   0.833  1.00  0.00     0.004 A 
ATOM     10  C   UNL     1       5.049   1.982   0.347  1.00  0.00     0.000 A 
ATOM     11  C   UNL     1       5.420   0.154   1.826  1.00  0.00     0.000 A 
ATOM     12  C   UNL     1       4.853   1.383   1.565  1.00  0.00     0.000 A 
ENDBRANCH   6   7
ENDBRANCH   1   6
TORSDOF 4
ENDMDL
