@<TRIPOS>MOLECULE
/home/cewinharhar/GITHUB/reincatalyze/data/processed/docking_pred/2023_Apr_20-15:07/1e20ac6c45a20644dde897fa0fc5711864bcd284_ligand_2.pdbqt
 12 12 0 0 0
SMALL
GASTEIGER

@<TRIPOS>ATOM
      1  C          8.2230    0.3430   -2.0380 C.3     1  UNL1        0.1270
      2  C          9.4070    0.3920   -1.1470 C.2     1  UNL1        0.3030
      3  O          9.5090   -0.3740   -0.1580 O.2     1  UNL1       -0.2520
      4  O         10.4360    1.2890   -1.3830 O.3     1  UNL1       -0.4810
      5  H         10.9830    1.6430   -0.5930 H       1  UNL1        0.2960
      6  C          7.1860   -0.5270   -1.3950 C.3     1  UNL1        0.0470
      7  C          6.3750    0.1590   -0.3910 C.2     1  UNL1       -0.0470
      8  C          5.8130    1.3850   -0.6590 C.2     1  UNL1        0.0040
      9  C          6.1750   -0.4380    0.8330 C.2     1  UNL1        0.0040
     10  C          5.0490    1.9820    0.3470 C.2     1  UNL1        0.0000
     11  C          5.4200    0.1540    1.8260 C.2     1  UNL1        0.0000
     12  C          4.8530    1.3830    1.5650 C.2     1  UNL1        0.0000
@<TRIPOS>BOND
     1     1     6    1
     2     1     2    1
     3     6     7    1
     4     4     2    1
     5     4     5    1
     6     2     3    2
     7     8     7    2
     8     8    10    1
     9     7     9    1
    10    10    12    2
    11     9    11    2
    12    12    11    1
