@<TRIPOS>MOLECULE
/home/cewinharhar/GITHUB/reincatalyze/data/processed/docking_pred/2023_Apr_20-15:07/1e8ffecbec14ce573bf52adb8829230239be76a8_ligand_2.pdbqt
 12 12 0 0 0
SMALL
GASTEIGER

@<TRIPOS>ATOM
      1  C          8.4640   -0.5890   -2.1920 C.3     1  UNL1        0.1270
      2  C          8.4840   -1.8820   -2.9170 C.2     1  UNL1        0.3030
      3  O          9.5540   -2.5190   -3.0820 O.2     1  UNL1       -0.2520
      4  O          7.3190   -2.4240   -3.4340 O.3     1  UNL1       -0.4810
      5  H          6.4810   -1.8400   -3.5000 H       1  UNL1        0.2960
      6  C          7.0510   -0.0920   -2.1550 C.3     1  UNL1        0.0470
      7  C          6.5100    0.0630   -0.8060 C.2     1  UNL1       -0.0470
      8  C          5.8820    1.2270   -0.4290 C.2     1  UNL1        0.0040
      9  C          6.6340   -0.9740    0.0900 C.2     1  UNL1        0.0040
     10  C          5.3890    1.3050    0.8750 C.2     1  UNL1        0.0000
     11  C          6.1460   -0.8960    1.3790 C.2     1  UNL1        0.0000
     12  C          5.5160    0.2680    1.7650 C.2     1  UNL1        0.0000
@<TRIPOS>BOND
     1     5     4    1
     2     4     2    1
     3     3     2    2
     4     2     1    1
     5     1     6    1
     6     6     7    1
     7     7     8    2
     8     7     9    1
     9     8    10    1
    10     9    11    2
    11    10    12    2
    12    11    12    1
