@<TRIPOS>MOLECULE
/home/cewinharhar/GITHUB/reincatalyze/data/processed/docking_pred/2023_Apr_20-15:07/1e8ffecbec14ce573bf52adb8829230239be76a8_ligand_2.pdbqt
 12 12 0 0 0
SMALL
GASTEIGER

@<TRIPOS>ATOM
      1  C          8.2180    0.2490   -2.2480 C.3     1  UNL1        0.1270
      2  C          9.3390    0.3500   -1.2840 C.2     1  UNL1        0.3030
      3  O          9.4210   -0.4250   -0.2990 O.2     1  UNL1       -0.2520
      4  O         10.3300    1.3050   -1.4440 O.3     1  UNL1       -0.4810
      5  H         10.7030    1.7820   -0.6190 H       1  UNL1        0.2960
      6  C          7.0910   -0.4830   -1.5850 C.3     1  UNL1        0.0470
      7  C          6.3180    0.3340   -0.6520 C.2     1  UNL1       -0.0470
      8  C          5.8070    1.5510   -1.0400 C.2     1  UNL1        0.0040
      9  C          6.1040   -0.1270    0.6260 C.2     1  UNL1        0.0040
     10  C          5.0770    2.2780   -0.0960 C.2     1  UNL1        0.0000
     11  C          5.3830    0.5930    1.5580 C.2     1  UNL1        0.0000
     12  C          4.8670    1.8130    1.1770 C.2     1  UNL1        0.0000
@<TRIPOS>BOND
     1     1     6    1
     2     1     2    1
     3     6     7    1
     4     4     2    1
     5     4     5    1
     6     2     3    2
     7     8     7    2
     8     8    10    1
     9     7     9    1
    10    10    12    2
    11     9    11    2
    12    12    11    1
