@<TRIPOS>MOLECULE
/home/cewinharhar/GITHUB/reincatalyze/data/processed/docking_pred/2023_Apr_20-15:07/1e8ffecbec14ce573bf52adb8829230239be76a8_ligand_2.pdbqt
 12 12 0 0 0
SMALL
GASTEIGER

@<TRIPOS>ATOM
      1  C          8.4210   -0.5250   -2.2640 C.3     1  UNL1        0.1270
      2  C          8.4760   -1.8490   -2.9280 C.2     1  UNL1        0.3030
      3  O          9.5620   -2.4630   -3.0670 O.2     1  UNL1       -0.2520
      4  O          7.3240   -2.4480   -3.4140 O.3     1  UNL1       -0.4810
      5  H          7.1290   -3.4250   -3.1770 H       1  UNL1        0.2960
      6  C          6.9880   -0.0920   -2.1950 C.3     1  UNL1        0.0470
      7  C          6.4780    0.0600   -0.8330 C.2     1  UNL1       -0.0470
      8  C          6.6010   -0.9600    0.0820 C.2     1  UNL1        0.0040
      9  C          5.8720    1.2410   -0.4710 C.2     1  UNL1        0.0040
     10  C          6.0920   -0.7450    1.3640 C.2     1  UNL1        0.0000
     11  C          5.3700    1.4510    0.7970 C.2     1  UNL1        0.0000
     12  C          5.4880    0.4350    1.7200 C.2     1  UNL1        0.0000
@<TRIPOS>BOND
     1     4     5    1
     2     4     2    1
     3     3     2    2
     4     2     1    1
     5     1     6    1
     6     6     7    1
     7     7     9    2
     8     7     8    1
     9     9    11    1
    10     8    10    2
    11    11    12    2
    12    10    12    1
