@<TRIPOS>MOLECULE
/home/cewinharhar/GITHUB/reincatalyze/data/processed/docking_pred/2023_Apr_20-15:07/1e8ffecbec14ce573bf52adb8829230239be76a8_ligand_2.pdbqt
 12 12 0 0 0
SMALL
GASTEIGER

@<TRIPOS>ATOM
      1  C          7.8420   -2.2860    0.8530 C.3     1  UNL1        0.1270
      2  C          8.7330   -3.3620    0.3570 C.2     1  UNL1        0.3030
      3  O          9.6500   -3.8310    1.0760 O.2     1  UNL1       -0.2520
      4  O          8.5780   -3.8800   -0.9180 O.3     1  UNL1       -0.4810
      5  H          7.6440   -4.1490   -1.2400 H       1  UNL1        0.2960
      6  C          7.4590   -1.4200   -0.3080 C.3     1  UNL1        0.0470
      7  C          6.5980   -0.2940    0.0490 C.2     1  UNL1       -0.0470
      8  C          6.3340    0.7050   -0.8580 C.2     1  UNL1        0.0040
      9  C          6.0480   -0.2430    1.3090 C.2     1  UNL1        0.0040
     10  C          5.5010    1.7490   -0.4490 C.2     1  UNL1        0.0000
     11  C          5.2250    0.7900    1.7130 C.2     1  UNL1        0.0000
     12  C          4.9560    1.7950    0.8100 C.2     1  UNL1        0.0000
@<TRIPOS>BOND
     1     5     4    1
     2     4     2    1
     3     8    10    1
     4     8     7    2
     5    10    12    2
     6     6     7    1
     7     6     1    1
     8     7     9    1
     9     2     1    1
    10     2     3    2
    11    12    11    1
    12     9    11    2
