MODEL 1
REMARK VINA RESULT:      -7.3      0.000      0.000
REMARK SMILES O=C(O)CCc1ccccc1
REMARK SMILES IDX 4 1 2 2 1 3 3 4 5 6 6 7 7 8 11 9 8 10 10 11 9 12
REMARK H PARENT 3 5
REMARK Flexibility Score: inf
ROOT
ATOM      1  C   UNL     1       8.464  -0.589  -2.192  1.00  0.00     0.127 C 
ENDROOT
BRANCH   1   2
ATOM      2  C   UNL     1       8.484  -1.882  -2.917  1.00  0.00     0.303 C 
ATOM      3  O   UNL     1       9.554  -2.519  -3.082  1.00  0.00    -0.252 OA
BRANCH   2   4
ATOM      4  O   UNL     1       7.319  -2.424  -3.434  1.00  0.00    -0.481 OA
ATOM      5  H   UNL     1       6.481  -1.840  -3.500  1.00  0.00     0.296 HD
ENDBRANCH   2   4
ENDBRANCH   1   2
BRANCH   1   6
ATOM      6  C   UNL     1       7.051  -0.092  -2.155  1.00  0.00     0.047 C 
BRANCH   6   7
ATOM      7  C   UNL     1       6.510   0.063  -0.806  1.00  0.00    -0.047 A 
ATOM      8  C   UNL     1       5.882   1.227  -0.429  1.00  0.00     0.004 A 
ATOM      9  C   UNL     1       6.634  -0.974   0.090  1.00  0.00     0.004 A 
ATOM     10  C   UNL     1       5.389   1.305   0.875  1.00  0.00     0.000 A 
ATOM     11  C   UNL     1       6.146  -0.896   1.379  1.00  0.00     0.000 A 
ATOM     12  C   UNL     1       5.516   0.268   1.765  1.00  0.00     0.000 A 
ENDBRANCH   6   7
ENDBRANCH   1   6
TORSDOF 4
ENDMDL
MODEL 2
REMARK VINA RESULT:      -7.3      0.101      1.440
REMARK SMILES O=C(O)CCc1ccccc1
REMARK SMILES IDX 4 1 2 2 1 3 3 4 5 6 6 7 7 8 11 9 8 10 10 11 9 12
REMARK H PARENT 3 5
REMARK Flexibility Score: inf
ROOT
ATOM      1  C   UNL     1       8.421  -0.525  -2.264  1.00  0.00     0.127 C 
ENDROOT
BRANCH   1   2
ATOM      2  C   UNL     1       8.476  -1.849  -2.928  1.00  0.00     0.303 C 
ATOM      3  O   UNL     1       9.562  -2.463  -3.067  1.00  0.00    -0.252 OA
BRANCH   2   4
ATOM      4  O   UNL     1       7.324  -2.448  -3.414  1.00  0.00    -0.481 OA
ATOM      5  H   UNL     1       7.129  -3.425  -3.177  1.00  0.00     0.296 HD
ENDBRANCH   2   4
ENDBRANCH   1   2
BRANCH   1   6
ATOM      6  C   UNL     1       6.988  -0.092  -2.195  1.00  0.00     0.047 C 
BRANCH   6   7
ATOM      7  C   UNL     1       6.478   0.060  -0.833  1.00  0.00    -0.047 A 
ATOM      8  C   UNL     1       6.601  -0.960   0.082  1.00  0.00     0.004 A 
ATOM      9  C   UNL     1       5.872   1.241  -0.471  1.00  0.00     0.004 A 
ATOM     10  C   UNL     1       6.092  -0.745   1.364  1.00  0.00     0.000 A 
ATOM     11  C   UNL     1       5.370   1.451   0.797  1.00  0.00     0.000 A 
ATOM     12  C   UNL     1       5.488   0.435   1.720  1.00  0.00     0.000 A 
ENDBRANCH   6   7
ENDBRANCH   1   6
TORSDOF 4
ENDMDL
MODEL 3
REMARK VINA RESULT:      -6.7      3.362      5.063
REMARK SMILES O=C(O)CCc1ccccc1
REMARK SMILES IDX 4 1 2 2 1 3 3 4 5 6 6 7 7 8 11 9 8 10 10 11 9 12
REMARK H PARENT 3 5
REMARK Flexibility Score: inf
ROOT
ATOM      1  C   UNL     1       5.027   1.737   0.737  1.00  0.00     0.127 C 
ENDROOT
BRANCH   1   2
ATOM      2  C   UNL     1       4.529   1.038   1.946  1.00  0.00     0.303 C 
ATOM      3  O   UNL     1       5.206   0.137   2.501  1.00  0.00    -0.252 OA
BRANCH   2   4
ATOM      4  O   UNL     1       3.300   1.361   2.498  1.00  0.00    -0.481 OA
ATOM      5  H   UNL     1       3.182   2.266   2.962  1.00  0.00     0.296 HD
ENDBRANCH   2   4
ENDBRANCH   1   2
BRANCH   1   6
ATOM      6  C   UNL     1       6.525   1.723   0.769  1.00  0.00     0.047 C 
BRANCH   6   7
ATOM      7  C   UNL     1       7.136   0.974  -0.328  1.00  0.00    -0.047 A 
ATOM      8  C   UNL     1       6.417   0.025  -1.017  1.00  0.00     0.004 A 
ATOM      9  C   UNL     1       8.444   1.229  -0.669  1.00  0.00     0.004 A 
ATOM     10  C   UNL     1       7.064  -0.652  -2.054  1.00  0.00     0.000 A 
ATOM     11  C   UNL     1       9.082   0.559  -1.693  1.00  0.00     0.000 A 
ATOM     12  C   UNL     1       8.370  -0.394  -2.389  1.00  0.00     0.000 A 
ENDBRANCH   6   7
ENDBRANCH   1   6
TORSDOF 4
ENDMDL
MODEL 4
REMARK VINA RESULT:      -6.6      1.920      2.308
REMARK SMILES O=C(O)CCc1ccccc1
REMARK SMILES IDX 4 1 2 2 1 3 3 4 5 6 6 7 7 8 11 9 8 10 10 11 9 12
REMARK H PARENT 3 5
REMARK Flexibility Score: inf
ROOT
ATOM      1  C   UNL     1       8.218   0.249  -2.248  1.00  0.00     0.127 C 
ENDROOT
BRANCH   1   2
ATOM      2  C   UNL     1       9.339   0.350  -1.284  1.00  0.00     0.303 C 
ATOM      3  O   UNL     1       9.421  -0.425  -0.299  1.00  0.00    -0.252 OA
BRANCH   2   4
ATOM      4  O   UNL     1      10.330   1.305  -1.444  1.00  0.00    -0.481 OA
ATOM      5  H   UNL     1      10.703   1.782  -0.619  1.00  0.00     0.296 HD
ENDBRANCH   2   4
ENDBRANCH   1   2
BRANCH   1   6
ATOM      6  C   UNL     1       7.091  -0.483  -1.585  1.00  0.00     0.047 C 
BRANCH   6   7
ATOM      7  C   UNL     1       6.318   0.334  -0.652  1.00  0.00    -0.047 A 
ATOM      8  C   UNL     1       5.807   1.551  -1.040  1.00  0.00     0.004 A 
ATOM      9  C   UNL     1       6.104  -0.127   0.626  1.00  0.00     0.004 A 
ATOM     10  C   UNL     1       5.077   2.278  -0.096  1.00  0.00     0.000 A 
ATOM     11  C   UNL     1       5.383   0.593   1.558  1.00  0.00     0.000 A 
ATOM     12  C   UNL     1       4.867   1.813   1.177  1.00  0.00     0.000 A 
ENDBRANCH   6   7
ENDBRANCH   1   6
TORSDOF 4
ENDMDL
MODEL 5
REMARK VINA RESULT:      -6.6      2.001      2.578
REMARK SMILES O=C(O)CCc1ccccc1
REMARK SMILES IDX 4 1 2 2 1 3 3 4 5 6 6 7 7 8 11 9 8 10 10 11 9 12
REMARK H PARENT 3 5
REMARK Flexibility Score: inf
ROOT
ATOM      1  C   UNL     1       7.842  -2.286   0.853  1.00  0.00     0.127 C 
ENDROOT
BRANCH   1   2
ATOM      2  C   UNL     1       8.733  -3.362   0.357  1.00  0.00     0.303 C 
ATOM      3  O   UNL     1       9.650  -3.831   1.076  1.00  0.00    -0.252 OA
BRANCH   2   4
ATOM      4  O   UNL     1       8.578  -3.880  -0.918  1.00  0.00    -0.481 OA
ATOM      5  H   UNL     1       7.644  -4.149  -1.240  1.00  0.00     0.296 HD
ENDBRANCH   2   4
ENDBRANCH   1   2
BRANCH   1   6
ATOM      6  C   UNL     1       7.459  -1.420  -0.308  1.00  0.00     0.047 C 
BRANCH   6   7
ATOM      7  C   UNL     1       6.598  -0.294   0.049  1.00  0.00    -0.047 A 
ATOM      8  C   UNL     1       6.334   0.705  -0.858  1.00  0.00     0.004 A 
ATOM      9  C   UNL     1       6.048  -0.243   1.309  1.00  0.00     0.004 A 
ATOM     10  C   UNL     1       5.501   1.749  -0.449  1.00  0.00     0.000 A 
ATOM     11  C   UNL     1       5.225   0.790   1.713  1.00  0.00     0.000 A 
ATOM     12  C   UNL     1       4.956   1.795   0.810  1.00  0.00     0.000 A 
ENDBRANCH   6   7
ENDBRANCH   1   6
TORSDOF 4
ENDMDL
