@<TRIPOS>MOLECULE
/home/cewinharhar/GITHUB/reincatalyze/data/processed/docking_pred/2023_Apr_20-15:07/1e8ffecbec14ce573bf52adb8829230239be76a8_ligand_2.pdbqt
 12 12 0 0 0
SMALL
GASTEIGER

@<TRIPOS>ATOM
      1  C          5.0270    1.7370    0.7370 C.3     1  UNL1        0.1270
      2  C          4.5290    1.0380    1.9460 C.2     1  UNL1        0.3030
      3  O          5.2060    0.1370    2.5010 O.2     1  UNL1       -0.2520
      4  O          3.3000    1.3610    2.4980 O.3     1  UNL1       -0.4810
      5  H          3.1820    2.2660    2.9620 H       1  UNL1        0.2960
      6  C          6.5250    1.7230    0.7690 C.3     1  UNL1        0.0470
      7  C          7.1360    0.9740   -0.3280 C.2     1  UNL1       -0.0470
      8  C          6.4170    0.0250   -1.0170 C.2     1  UNL1        0.0040
      9  C          8.4440    1.2290   -0.6690 C.2     1  UNL1        0.0040
     10  C          7.0640   -0.6520   -2.0540 C.2     1  UNL1        0.0000
     11  C          9.0820    0.5590   -1.6930 C.2     1  UNL1        0.0000
     12  C          8.3700   -0.3940   -2.3890 C.2     1  UNL1        0.0000
@<TRIPOS>BOND
     1    12    10    2
     2    12    11    1
     3    10     8    1
     4    11     9    2
     5     8     7    2
     6     9     7    1
     7     7     6    1
     8     1     6    1
     9     1     2    1
    10     2     4    1
    11     2     3    2
    12     4     5    1
