@<TRIPOS>MOLECULE
/home/cewinharhar/GITHUB/reincatalyze/data/processed/docking_pred/2023_Apr_20-15:07/1ec3d4ded79b7f38a98788c4b0a5da992fc20b58_ligand_2.pdbqt
 12 12 0 0 0
SMALL
GASTEIGER

@<TRIPOS>ATOM
      1  C          8.2590    0.2000   -2.1820 C.3     1  UNL1        0.1270
      2  C          9.3850    0.3460   -1.2290 C.2     1  UNL1        0.3030
      3  O          9.4780   -0.3890   -0.2150 O.2     1  UNL1       -0.2520
      4  O         10.3690    1.3000   -1.4330 O.3     1  UNL1       -0.4810
      5  H         10.1240    2.1820   -1.8900 H       1  UNL1        0.2960
      6  C          7.1690   -0.5750   -1.5080 C.3     1  UNL1        0.0470
      7  C          6.3780    0.2110   -0.5620 C.2     1  UNL1       -0.0470
      8  C          5.8440    1.4240   -0.9290 C.2     1  UNL1        0.0040
      9  C          6.1700   -0.2770    0.7070 C.2     1  UNL1        0.0040
     10  C          5.0990    2.1200    0.0260 C.2     1  UNL1        0.0000
     11  C          5.4330    0.4120    1.6500 C.2     1  UNL1        0.0000
     12  C          4.8960    1.6290    1.2910 C.2     1  UNL1        0.0000
@<TRIPOS>BOND
     1     1     6    1
     2     1     2    1
     3     5     4    1
     4     6     7    1
     5     4     2    1
     6     2     3    2
     7     8     7    2
     8     8    10    1
     9     7     9    1
    10    10    12    2
    11     9    11    2
    12    12    11    1
