@<TRIPOS>MOLECULE
/home/cewinharhar/GITHUB/reincatalyze/data/processed/docking_pred/2023_Apr_20-15:07/1ec3d4ded79b7f38a98788c4b0a5da992fc20b58_ligand_2.pdbqt
 12 12 0 0 0
SMALL
GASTEIGER

@<TRIPOS>ATOM
      1  C          5.3530    2.9890    0.0270 C.3     1  UNL1        0.1270
      2  C          6.2020    3.9340    0.7910 C.2     1  UNL1        0.3030
      3  O          6.9450    4.7600    0.2060 O.2     1  UNL1       -0.2520
      4  O          6.1990    3.9300    2.1770 O.3     1  UNL1       -0.4810
      5  H          5.6390    4.6250    2.6780 H       1  UNL1        0.2960
      6  C          4.8760    1.9220    0.9640 C.3     1  UNL1        0.0470
      7  C          5.6770    0.6990    0.9300 C.2     1  UNL1       -0.0470
      8  C          6.3080    0.3040   -0.2260 C.2     1  UNL1        0.0040
      9  C          5.7960   -0.0570    2.0730 C.2     1  UNL1        0.0040
     10  C          7.0570   -0.8740   -0.1860 C.2     1  UNL1        0.0000
     11  C          6.5370   -1.2220    2.1110 C.2     1  UNL1        0.0000
     12  C          7.1710   -1.6250    0.9570 C.2     1  UNL1        0.0000
@<TRIPOS>BOND
     1     8    10    1
     2     8     7    2
     3    10    12    2
     4     1     2    1
     5     1     6    1
     6     3     2    2
     7     2     4    1
     8     7     6    1
     9     7     9    1
    10    12    11    1
    11     9    11    2
    12     4     5    1
