@<TRIPOS>MOLECULE
/home/cewinharhar/GITHUB/reincatalyze/data/processed/docking_pred/2023_Apr_20-15:07/1ec3d4ded79b7f38a98788c4b0a5da992fc20b58_ligand_2.pdbqt
 12 12 0 0 0
SMALL
GASTEIGER

@<TRIPOS>ATOM
      1  C          5.0080    1.7920    0.6980 C.3     1  UNL1        0.1270
      2  C          4.4940    1.1130    1.9110 C.2     1  UNL1        0.3030
      3  O          5.1550    0.2120    2.4820 O.2     1  UNL1       -0.2520
      4  O          3.2640    1.4570    2.4490 O.3     1  UNL1       -0.4810
      5  H          2.4080    1.1530    1.9770 H       1  UNL1        0.2960
      6  C          6.5050    1.7700    0.7450 C.3     1  UNL1        0.0470
      7  C          7.1240    1.0180   -0.3460 C.2     1  UNL1       -0.0470
      8  C          6.3870    0.1280   -1.0930 C.2     1  UNL1        0.0040
      9  C          8.4570    1.2130   -0.6240 C.2     1  UNL1        0.0040
     10  C          7.0430   -0.5540   -2.1200 C.2     1  UNL1        0.0000
     11  C          9.1030    0.5370   -1.6400 C.2     1  UNL1        0.0000
     12  C          8.3730   -0.3570   -2.3920 C.2     1  UNL1        0.0000
@<TRIPOS>BOND
     1    12    10    2
     2    12    11    1
     3    10     8    1
     4    11     9    2
     5     8     7    2
     6     9     7    1
     7     7     6    1
     8     1     6    1
     9     1     2    1
    10     2     4    1
    11     2     3    2
    12     5     4    1
