@<TRIPOS>MOLECULE
/home/cewinharhar/GITHUB/reincatalyze/data/processed/docking_pred/2023_Apr_20-15:07/1ec3d4ded79b7f38a98788c4b0a5da992fc20b58_ligand_2.pdbqt
 12 12 0 0 0
SMALL
GASTEIGER

@<TRIPOS>ATOM
      1  C          8.4210   -0.5470   -2.2410 C.3     1  UNL1        0.1270
      2  C          8.4850   -1.8570   -2.9310 C.2     1  UNL1        0.3030
      3  O          9.5760   -2.4600   -3.0810 O.2     1  UNL1       -0.2520
      4  O          7.3390   -2.4530   -3.4310 O.3     1  UNL1       -0.4810
      5  H          7.0220   -2.2160   -4.3750 H       1  UNL1        0.2960
      6  C          6.9860   -0.1240   -2.1680 C.3     1  UNL1        0.0470
      7  C          6.4740    0.0140   -0.8050 C.2     1  UNL1       -0.0470
      8  C          6.6290   -1.0020    0.1100 C.2     1  UNL1        0.0040
      9  C          5.8350    1.1760   -0.4420 C.2     1  UNL1        0.0040
     10  C          6.1170   -0.8020    1.3930 C.2     1  UNL1        0.0000
     11  C          5.3290    1.3720    0.8280 C.2     1  UNL1        0.0000
     12  C          5.4790    0.3600    1.7500 C.2     1  UNL1        0.0000
@<TRIPOS>BOND
     1     5     4    1
     2     4     2    1
     3     3     2    2
     4     2     1    1
     5     1     6    1
     6     6     7    1
     7     7     9    2
     8     7     8    1
     9     9    11    1
    10     8    10    2
    11    11    12    2
    12    10    12    1
