@<TRIPOS>MOLECULE
/home/cewinharhar/GITHUB/reincatalyze/data/processed/docking_pred/2023_Apr_20-15:07/1ec3d4ded79b7f38a98788c4b0a5da992fc20b58_ligand_2.pdbqt
 12 12 0 0 0
SMALL
GASTEIGER

@<TRIPOS>ATOM
      1  C          8.4090   -0.6690   -2.0600 C.3     1  UNL1        0.1270
      2  C          8.3740   -1.9060   -2.8760 C.2     1  UNL1        0.3030
      3  O          7.2850   -2.4090   -3.2490 O.2     1  UNL1       -0.2520
      4  O          9.5460   -2.5430   -3.2510 O.3     1  UNL1       -0.4810
      5  H         10.4210   -2.0120   -3.2680 H       1  UNL1        0.2960
      6  C          7.0390   -0.0640   -2.0640 C.3     1  UNL1        0.0470
      7  C          6.4610    0.1090   -0.7320 C.2     1  UNL1       -0.0470
      8  C          5.8100    1.2720   -0.3930 C.2     1  UNL1        0.0040
      9  C          6.5740   -0.9100    0.1860 C.2     1  UNL1        0.0040
     10  C          5.2820    1.3680    0.8960 C.2     1  UNL1        0.0000
     11  C          6.0520   -0.8130    1.4600 C.2     1  UNL1        0.0000
     12  C          5.3990    0.3490    1.8080 C.2     1  UNL1        0.0000
@<TRIPOS>BOND
     1     5     4    1
     2     4     2    1
     3     3     2    2
     4     2     1    1
     5     6     1    1
     6     6     7    1
     7     7     8    2
     8     7     9    1
     9     8    10    1
    10     9    11    2
    11    10    12    2
    12    11    12    1
