MODEL 1
REMARK VINA RESULT:      -7.3      0.000      0.000
REMARK SMILES O=C(O)CCc1ccccc1
REMARK SMILES IDX 4 1 2 2 1 3 3 4 5 6 6 7 7 8 11 9 8 10 10 11 9 12
REMARK H PARENT 3 5
REMARK Flexibility Score: inf
ROOT
ATOM      1  C   UNL     1       8.421  -0.547  -2.241  1.00  0.00     0.127 C 
ENDROOT
BRANCH   1   2
ATOM      2  C   UNL     1       8.485  -1.857  -2.931  1.00  0.00     0.303 C 
ATOM      3  O   UNL     1       9.576  -2.460  -3.081  1.00  0.00    -0.252 OA
BRANCH   2   4
ATOM      4  O   UNL     1       7.339  -2.453  -3.431  1.00  0.00    -0.481 OA
ATOM      5  H   UNL     1       7.022  -2.216  -4.375  1.00  0.00     0.296 HD
ENDBRANCH   2   4
ENDBRANCH   1   2
BRANCH   1   6
ATOM      6  C   UNL     1       6.986  -0.124  -2.168  1.00  0.00     0.047 C 
BRANCH   6   7
ATOM      7  C   UNL     1       6.474   0.014  -0.805  1.00  0.00    -0.047 A 
ATOM      8  C   UNL     1       6.629  -1.002   0.110  1.00  0.00     0.004 A 
ATOM      9  C   UNL     1       5.835   1.176  -0.442  1.00  0.00     0.004 A 
ATOM     10  C   UNL     1       6.117  -0.802   1.393  1.00  0.00     0.000 A 
ATOM     11  C   UNL     1       5.329   1.372   0.828  1.00  0.00     0.000 A 
ATOM     12  C   UNL     1       5.479   0.360   1.750  1.00  0.00     0.000 A 
ENDBRANCH   6   7
ENDBRANCH   1   6
TORSDOF 4
ENDMDL
MODEL 2
REMARK VINA RESULT:      -7.3      0.144      1.733
REMARK SMILES O=C(O)CCc1ccccc1
REMARK SMILES IDX 4 1 2 2 1 3 3 4 5 6 6 7 7 8 11 9 8 10 10 11 9 12
REMARK H PARENT 3 5
REMARK Flexibility Score: inf
ROOT
ATOM      1  C   UNL     1       8.409  -0.669  -2.060  1.00  0.00     0.127 C 
ENDROOT
BRANCH   1   2
ATOM      2  C   UNL     1       8.374  -1.906  -2.876  1.00  0.00     0.303 C 
ATOM      3  O   UNL     1       7.285  -2.409  -3.249  1.00  0.00    -0.252 OA
BRANCH   2   4
ATOM      4  O   UNL     1       9.546  -2.543  -3.251  1.00  0.00    -0.481 OA
ATOM      5  H   UNL     1      10.421  -2.012  -3.268  1.00  0.00     0.296 HD
ENDBRANCH   2   4
ENDBRANCH   1   2
BRANCH   1   6
ATOM      6  C   UNL     1       7.039  -0.064  -2.064  1.00  0.00     0.047 C 
BRANCH   6   7
ATOM      7  C   UNL     1       6.461   0.109  -0.732  1.00  0.00    -0.047 A 
ATOM      8  C   UNL     1       5.810   1.272  -0.393  1.00  0.00     0.004 A 
ATOM      9  C   UNL     1       6.574  -0.910   0.186  1.00  0.00     0.004 A 
ATOM     10  C   UNL     1       5.282   1.368   0.896  1.00  0.00     0.000 A 
ATOM     11  C   UNL     1       6.052  -0.813   1.460  1.00  0.00     0.000 A 
ATOM     12  C   UNL     1       5.399   0.349   1.808  1.00  0.00     0.000 A 
ENDBRANCH   6   7
ENDBRANCH   1   6
TORSDOF 4
ENDMDL
MODEL 3
REMARK VINA RESULT:      -6.8      3.386      5.063
REMARK SMILES O=C(O)CCc1ccccc1
REMARK SMILES IDX 4 1 2 2 1 3 3 4 5 6 6 7 7 8 11 9 8 10 10 11 9 12
REMARK H PARENT 3 5
REMARK Flexibility Score: inf
ROOT
ATOM      1  C   UNL     1       5.008   1.792   0.698  1.00  0.00     0.127 C 
ENDROOT
BRANCH   1   2
ATOM      2  C   UNL     1       4.494   1.113   1.911  1.00  0.00     0.303 C 
ATOM      3  O   UNL     1       5.155   0.212   2.482  1.00  0.00    -0.252 OA
BRANCH   2   4
ATOM      4  O   UNL     1       3.264   1.457   2.449  1.00  0.00    -0.481 OA
ATOM      5  H   UNL     1       2.408   1.153   1.977  1.00  0.00     0.296 HD
ENDBRANCH   2   4
ENDBRANCH   1   2
BRANCH   1   6
ATOM      6  C   UNL     1       6.505   1.770   0.745  1.00  0.00     0.047 C 
BRANCH   6   7
ATOM      7  C   UNL     1       7.124   1.018  -0.346  1.00  0.00    -0.047 A 
ATOM      8  C   UNL     1       6.387   0.128  -1.093  1.00  0.00     0.004 A 
ATOM      9  C   UNL     1       8.457   1.213  -0.624  1.00  0.00     0.004 A 
ATOM     10  C   UNL     1       7.043  -0.554  -2.120  1.00  0.00     0.000 A 
ATOM     11  C   UNL     1       9.103   0.537  -1.640  1.00  0.00     0.000 A 
ATOM     12  C   UNL     1       8.373  -0.357  -2.392  1.00  0.00     0.000 A 
ENDBRANCH   6   7
ENDBRANCH   1   6
TORSDOF 4
ENDMDL
MODEL 4
REMARK VINA RESULT:      -6.6      1.920      2.629
REMARK SMILES O=C(O)CCc1ccccc1
REMARK SMILES IDX 4 1 2 2 1 3 3 4 5 6 6 7 7 8 11 9 8 10 10 11 9 12
REMARK H PARENT 3 5
REMARK Flexibility Score: inf
ROOT
ATOM      1  C   UNL     1       8.259   0.200  -2.182  1.00  0.00     0.127 C 
ENDROOT
BRANCH   1   2
ATOM      2  C   UNL     1       9.385   0.346  -1.229  1.00  0.00     0.303 C 
ATOM      3  O   UNL     1       9.478  -0.389  -0.215  1.00  0.00    -0.252 OA
BRANCH   2   4
ATOM      4  O   UNL     1      10.369   1.300  -1.433  1.00  0.00    -0.481 OA
ATOM      5  H   UNL     1      10.124   2.182  -1.890  1.00  0.00     0.296 HD
ENDBRANCH   2   4
ENDBRANCH   1   2
BRANCH   1   6
ATOM      6  C   UNL     1       7.169  -0.575  -1.508  1.00  0.00     0.047 C 
BRANCH   6   7
ATOM      7  C   UNL     1       6.378   0.211  -0.562  1.00  0.00    -0.047 A 
ATOM      8  C   UNL     1       5.844   1.424  -0.929  1.00  0.00     0.004 A 
ATOM      9  C   UNL     1       6.170  -0.277   0.707  1.00  0.00     0.004 A 
ATOM     10  C   UNL     1       5.099   2.120   0.026  1.00  0.00     0.000 A 
ATOM     11  C   UNL     1       5.433   0.412   1.650  1.00  0.00     0.000 A 
ATOM     12  C   UNL     1       4.896   1.629   1.291  1.00  0.00     0.000 A 
ENDBRANCH   6   7
ENDBRANCH   1   6
TORSDOF 4
ENDMDL
MODEL 5
REMARK VINA RESULT:      -6.6      3.813      5.009
REMARK SMILES O=C(O)CCc1ccccc1
REMARK SMILES IDX 4 1 2 2 1 3 3 4 5 6 6 7 7 8 11 9 8 10 10 11 9 12
REMARK H PARENT 3 5
REMARK Flexibility Score: inf
ROOT
ATOM      1  C   UNL     1       5.353   2.989   0.027  1.00  0.00     0.127 C 
ENDROOT
BRANCH   1   2
ATOM      2  C   UNL     1       6.202   3.934   0.791  1.00  0.00     0.303 C 
ATOM      3  O   UNL     1       6.945   4.760   0.206  1.00  0.00    -0.252 OA
BRANCH   2   4
ATOM      4  O   UNL     1       6.199   3.930   2.177  1.00  0.00    -0.481 OA
ATOM      5  H   UNL     1       5.639   4.625   2.678  1.00  0.00     0.296 HD
ENDBRANCH   2   4
ENDBRANCH   1   2
BRANCH   1   6
ATOM      6  C   UNL     1       4.876   1.922   0.964  1.00  0.00     0.047 C 
BRANCH   6   7
ATOM      7  C   UNL     1       5.677   0.699   0.930  1.00  0.00    -0.047 A 
ATOM      8  C   UNL     1       6.308   0.304  -0.226  1.00  0.00     0.004 A 
ATOM      9  C   UNL     1       5.796  -0.057   2.073  1.00  0.00     0.004 A 
ATOM     10  C   UNL     1       7.057  -0.874  -0.186  1.00  0.00     0.000 A 
ATOM     11  C   UNL     1       6.537  -1.222   2.111  1.00  0.00     0.000 A 
ATOM     12  C   UNL     1       7.171  -1.625   0.957  1.00  0.00     0.000 A 
ENDBRANCH   6   7
ENDBRANCH   1   6
TORSDOF 4
ENDMDL
