@<TRIPOS>MOLECULE
/home/cewinharhar/GITHUB/reincatalyze/data/processed/docking_pred/2023_Apr_20-15:07/1f3204452a604bf2b5a1468570937d609aafa137_ligand_2.pdbqt
 12 12 0 0 0
SMALL
GASTEIGER

@<TRIPOS>ATOM
      1  C          8.2970   -1.0040   -1.7250 C.3     1  UNL1        0.1270
      2  C          8.4390   -2.0100   -2.8040 C.2     1  UNL1        0.3030
      3  O          9.5660   -2.4470   -3.1420 O.2     1  UNL1       -0.2520
      4  O          7.3260   -2.4960   -3.4710 O.3     1  UNL1       -0.4810
      5  H          6.4160   -2.4850   -3.0020 H       1  UNL1        0.2960
      6  C          7.2110   -1.4570   -0.7980 C.3     1  UNL1        0.0470
      7  C          6.4670   -0.3640   -0.1740 C.2     1  UNL1       -0.0470
      8  C          6.0730   -0.4430    1.1420 C.2     1  UNL1        0.0040
      9  C          6.1660    0.7540   -0.9170 C.2     1  UNL1        0.0040
     10  C          5.3670    0.6390    1.6730 C.2     1  UNL1        0.0000
     11  C          5.4680    1.8220   -0.3900 C.2     1  UNL1        0.0000
     12  C          5.0680    1.7500    0.9270 C.2     1  UNL1        0.0000
@<TRIPOS>BOND
     1     4     5    1
     2     4     2    1
     3     3     2    2
     4     2     1    1
     5     1     6    1
     6     9    11    1
     7     9     7    2
     8     6     7    1
     9    11    12    2
    10     7     8    1
    11    12    10    1
    12     8    10    2
