@<TRIPOS>MOLECULE
/home/cewinharhar/GITHUB/reincatalyze/data/processed/docking_pred/2023_Apr_20-15:07/1f3204452a604bf2b5a1468570937d609aafa137_ligand_2.pdbqt
 12 12 0 0 0
SMALL
GASTEIGER

@<TRIPOS>ATOM
      1  C          7.2900   -1.3340   -2.1290 C.3     1  UNL1        0.1270
      2  C          8.7160   -1.3960   -2.5270 C.2     1  UNL1        0.3030
      3  O          9.5300   -0.5080   -2.1720 O.2     1  UNL1       -0.2520
      4  O          9.1920   -2.4400   -3.3040 O.3     1  UNL1       -0.4810
      5  H          9.4080   -3.3370   -2.8610 H       1  UNL1        0.2960
      6  C          7.2190   -1.3050   -0.6330 C.3     1  UNL1        0.0470
      7  C          6.4180   -0.2060   -0.0970 C.2     1  UNL1       -0.0470
      8  C          6.1440    0.9030   -0.8620 C.2     1  UNL1        0.0040
      9  C          5.9360   -0.2920    1.1890 C.2     1  UNL1        0.0040
     10  C          5.3720    1.9140   -0.2860 C.2     1  UNL1        0.0000
     11  C          5.1730    0.7090    1.7570 C.2     1  UNL1        0.0000
     12  C          4.8940    1.8240    0.9970 C.2     1  UNL1        0.0000
@<TRIPOS>BOND
     1     4     5    1
     2     4     2    1
     3     2     3    2
     4     2     1    1
     5     1     6    1
     6     8    10    1
     7     8     7    2
     8     6     7    1
     9    10    12    2
    10     7     9    1
    11    12    11    1
    12     9    11    2
