@<TRIPOS>MOLECULE
/home/cewinharhar/GITHUB/reincatalyze/data/processed/docking_pred/2023_Apr_20-15:07/1f3204452a604bf2b5a1468570937d609aafa137_ligand_2.pdbqt
 12 12 0 0 0
SMALL
GASTEIGER

@<TRIPOS>ATOM
      1  C          5.0440    1.7070    0.7010 C.3     1  UNL1        0.1270
      2  C          4.5890    1.0210    1.9330 C.2     1  UNL1        0.3030
      3  O          5.3060    0.1590    2.5000 O.2     1  UNL1       -0.2520
      4  O          3.3570    1.3120    2.4950 O.3     1  UNL1       -0.4810
      5  H          2.7860    2.0600    2.0900 H       1  UNL1        0.2960
      6  C          6.5410    1.7530    0.7120 C.3     1  UNL1        0.0470
      7  C          7.1680    0.9930   -0.3680 C.2     1  UNL1       -0.0470
      8  C          6.4420    0.0810   -1.0990 C.2     1  UNL1        0.0040
      9  C          8.4980    1.2020   -0.6520 C.2     1  UNL1        0.0040
     10  C          7.1050   -0.6080   -2.1170 C.2     1  UNL1        0.0000
     11  C          9.1510    0.5200   -1.6590 C.2     1  UNL1        0.0000
     12  C          8.4320   -0.3970   -2.3950 C.2     1  UNL1        0.0000
@<TRIPOS>BOND
     1    12    10    2
     2    12    11    1
     3    10     8    1
     4    11     9    2
     5     8     7    2
     6     9     7    1
     7     7     6    1
     8     1     6    1
     9     1     2    1
    10     2     4    1
    11     2     3    2
    12     5     4    1
