@<TRIPOS>MOLECULE
/home/cewinharhar/GITHUB/reincatalyze/data/processed/docking_pred/2023_Apr_20-15:07/1f3204452a604bf2b5a1468570937d609aafa137_ligand_2.pdbqt
 12 12 0 0 0
SMALL
GASTEIGER

@<TRIPOS>ATOM
      1  C          8.4120   -0.5680   -2.1940 C.3     1  UNL1        0.1270
      2  C          8.4730   -1.8580   -2.9200 C.2     1  UNL1        0.3030
      3  O          9.5640   -2.4560   -3.0940 O.2     1  UNL1       -0.2520
      4  O          7.3240   -2.4420   -3.4290 O.3     1  UNL1       -0.4810
      5  H          6.4650   -1.8890   -3.4880 H       1  UNL1        0.2960
      6  C          6.9830   -0.1190   -2.1520 C.3     1  UNL1        0.0470
      7  C          6.4570    0.0640   -0.8000 C.2     1  UNL1       -0.0470
      8  C          5.8330    1.2360   -0.4410 C.2     1  UNL1        0.0040
      9  C          6.5900   -0.9540    0.1150 C.2     1  UNL1        0.0040
     10  C          5.3540    1.3410    0.8660 C.2     1  UNL1        0.0000
     11  C          6.1170   -0.8480    1.4080 C.2     1  UNL1        0.0000
     12  C          5.4910    0.3230    1.7760 C.2     1  UNL1        0.0000
@<TRIPOS>BOND
     1     5     4    1
     2     4     2    1
     3     3     2    2
     4     2     1    1
     5     1     6    1
     6     6     7    1
     7     7     8    2
     8     7     9    1
     9     8    10    1
    10     9    11    2
    11    10    12    2
    12    11    12    1
