MODEL 1
REMARK VINA RESULT:      -7.3      0.000      0.000
REMARK SMILES O=C(O)CCc1ccccc1
REMARK SMILES IDX 4 1 2 2 1 3 3 4 5 6 6 7 7 8 11 9 8 10 10 11 9 12
REMARK H PARENT 3 5
REMARK Flexibility Score: inf
ROOT
ATOM      1  C   UNL     1       8.412  -0.568  -2.194  1.00  0.00     0.127 C 
ENDROOT
BRANCH   1   2
ATOM      2  C   UNL     1       8.473  -1.858  -2.920  1.00  0.00     0.303 C 
ATOM      3  O   UNL     1       9.564  -2.456  -3.094  1.00  0.00    -0.252 OA
BRANCH   2   4
ATOM      4  O   UNL     1       7.324  -2.442  -3.429  1.00  0.00    -0.481 OA
ATOM      5  H   UNL     1       6.465  -1.889  -3.488  1.00  0.00     0.296 HD
ENDBRANCH   2   4
ENDBRANCH   1   2
BRANCH   1   6
ATOM      6  C   UNL     1       6.983  -0.119  -2.152  1.00  0.00     0.047 C 
BRANCH   6   7
ATOM      7  C   UNL     1       6.457   0.064  -0.800  1.00  0.00    -0.047 A 
ATOM      8  C   UNL     1       5.833   1.236  -0.441  1.00  0.00     0.004 A 
ATOM      9  C   UNL     1       6.590  -0.954   0.115  1.00  0.00     0.004 A 
ATOM     10  C   UNL     1       5.354   1.341   0.866  1.00  0.00     0.000 A 
ATOM     11  C   UNL     1       6.117  -0.848   1.408  1.00  0.00     0.000 A 
ATOM     12  C   UNL     1       5.491   0.323   1.776  1.00  0.00     0.000 A 
ENDBRANCH   6   7
ENDBRANCH   1   6
TORSDOF 4
ENDMDL
MODEL 2
REMARK VINA RESULT:      -7.3      0.124      1.731
REMARK SMILES O=C(O)CCc1ccccc1
REMARK SMILES IDX 4 1 2 2 1 3 3 4 5 6 6 7 7 8 11 9 8 10 10 11 9 12
REMARK H PARENT 3 5
REMARK Flexibility Score: inf
ROOT
ATOM      1  C   UNL     1       8.439  -0.625  -2.130  1.00  0.00     0.127 C 
ENDROOT
BRANCH   1   2
ATOM      2  C   UNL     1       8.390  -1.896  -2.890  1.00  0.00     0.303 C 
ATOM      3  O   UNL     1       7.296  -2.410  -3.228  1.00  0.00    -0.252 OA
BRANCH   2   4
ATOM      4  O   UNL     1       9.556  -2.554  -3.249  1.00  0.00    -0.481 OA
ATOM      5  H   UNL     1       9.559  -3.149  -4.082  1.00  0.00     0.296 HD
ENDBRANCH   2   4
ENDBRANCH   1   2
BRANCH   1   6
ATOM      6  C   UNL     1       7.061  -0.038  -2.105  1.00  0.00     0.047 C 
BRANCH   6   7
ATOM      7  C   UNL     1       6.494   0.091  -0.764  1.00  0.00    -0.047 A 
ATOM      8  C   UNL     1       6.627  -0.923   0.156  1.00  0.00     0.004 A 
ATOM      9  C   UNL     1       5.824   1.244  -0.426  1.00  0.00     0.004 A 
ATOM     10  C   UNL     1       6.062  -0.731   1.419  1.00  0.00     0.000 A 
ATOM     11  C   UNL     1       5.265   1.432   0.823  1.00  0.00     0.000 A 
ATOM     12  C   UNL     1       5.393   0.420   1.750  1.00  0.00     0.000 A 
ENDBRANCH   6   7
ENDBRANCH   1   6
TORSDOF 4
ENDMDL
MODEL 3
REMARK VINA RESULT:      -7.2      0.693      1.627
REMARK SMILES O=C(O)CCc1ccccc1
REMARK SMILES IDX 4 1 2 2 1 3 3 4 5 6 6 7 7 8 11 9 8 10 10 11 9 12
REMARK H PARENT 3 5
REMARK Flexibility Score: inf
ROOT
ATOM      1  C   UNL     1       8.297  -1.004  -1.725  1.00  0.00     0.127 C 
ENDROOT
BRANCH   1   2
ATOM      2  C   UNL     1       8.439  -2.010  -2.804  1.00  0.00     0.303 C 
ATOM      3  O   UNL     1       9.566  -2.447  -3.142  1.00  0.00    -0.252 OA
BRANCH   2   4
ATOM      4  O   UNL     1       7.326  -2.496  -3.471  1.00  0.00    -0.481 OA
ATOM      5  H   UNL     1       6.416  -2.485  -3.002  1.00  0.00     0.296 HD
ENDBRANCH   2   4
ENDBRANCH   1   2
BRANCH   1   6
ATOM      6  C   UNL     1       7.211  -1.457  -0.798  1.00  0.00     0.047 C 
BRANCH   6   7
ATOM      7  C   UNL     1       6.467  -0.364  -0.174  1.00  0.00    -0.047 A 
ATOM      8  C   UNL     1       6.073  -0.443   1.142  1.00  0.00     0.004 A 
ATOM      9  C   UNL     1       6.166   0.754  -0.917  1.00  0.00     0.004 A 
ATOM     10  C   UNL     1       5.367   0.639   1.673  1.00  0.00     0.000 A 
ATOM     11  C   UNL     1       5.468   1.822  -0.390  1.00  0.00     0.000 A 
ATOM     12  C   UNL     1       5.068   1.750   0.927  1.00  0.00     0.000 A 
ENDBRANCH   6   7
ENDBRANCH   1   6
TORSDOF 4
ENDMDL
MODEL 4
REMARK VINA RESULT:      -7.0      0.984      1.522
REMARK SMILES O=C(O)CCc1ccccc1
REMARK SMILES IDX 4 1 2 2 1 3 3 4 5 6 6 7 7 8 11 9 8 10 10 11 9 12
REMARK H PARENT 3 5
REMARK Flexibility Score: inf
ROOT
ATOM      1  C   UNL     1       7.290  -1.334  -2.129  1.00  0.00     0.127 C 
ENDROOT
BRANCH   1   2
ATOM      2  C   UNL     1       8.716  -1.396  -2.527  1.00  0.00     0.303 C 
ATOM      3  O   UNL     1       9.530  -0.508  -2.172  1.00  0.00    -0.252 OA
BRANCH   2   4
ATOM      4  O   UNL     1       9.192  -2.440  -3.304  1.00  0.00    -0.481 OA
ATOM      5  H   UNL     1       9.408  -3.337  -2.861  1.00  0.00     0.296 HD
ENDBRANCH   2   4
ENDBRANCH   1   2
BRANCH   1   6
ATOM      6  C   UNL     1       7.219  -1.305  -0.633  1.00  0.00     0.047 C 
BRANCH   6   7
ATOM      7  C   UNL     1       6.418  -0.206  -0.097  1.00  0.00    -0.047 A 
ATOM      8  C   UNL     1       6.144   0.903  -0.862  1.00  0.00     0.004 A 
ATOM      9  C   UNL     1       5.936  -0.292   1.189  1.00  0.00     0.004 A 
ATOM     10  C   UNL     1       5.372   1.914  -0.286  1.00  0.00     0.000 A 
ATOM     11  C   UNL     1       5.173   0.709   1.757  1.00  0.00     0.000 A 
ATOM     12  C   UNL     1       4.894   1.824   0.997  1.00  0.00     0.000 A 
ENDBRANCH   6   7
ENDBRANCH   1   6
TORSDOF 4
ENDMDL
MODEL 5
REMARK VINA RESULT:      -6.7      3.352      5.048
REMARK SMILES O=C(O)CCc1ccccc1
REMARK SMILES IDX 4 1 2 2 1 3 3 4 5 6 6 7 7 8 11 9 8 10 10 11 9 12
REMARK H PARENT 3 5
REMARK Flexibility Score: inf
ROOT
ATOM      1  C   UNL     1       5.044   1.707   0.701  1.00  0.00     0.127 C 
ENDROOT
BRANCH   1   2
ATOM      2  C   UNL     1       4.589   1.021   1.933  1.00  0.00     0.303 C 
ATOM      3  O   UNL     1       5.306   0.159   2.500  1.00  0.00    -0.252 OA
BRANCH   2   4
ATOM      4  O   UNL     1       3.357   1.312   2.495  1.00  0.00    -0.481 OA
ATOM      5  H   UNL     1       2.786   2.060   2.090  1.00  0.00     0.296 HD
ENDBRANCH   2   4
ENDBRANCH   1   2
BRANCH   1   6
ATOM      6  C   UNL     1       6.541   1.753   0.712  1.00  0.00     0.047 C 
BRANCH   6   7
ATOM      7  C   UNL     1       7.168   0.993  -0.368  1.00  0.00    -0.047 A 
ATOM      8  C   UNL     1       6.442   0.081  -1.099  1.00  0.00     0.004 A 
ATOM      9  C   UNL     1       8.498   1.202  -0.652  1.00  0.00     0.004 A 
ATOM     10  C   UNL     1       7.105  -0.608  -2.117  1.00  0.00     0.000 A 
ATOM     11  C   UNL     1       9.151   0.520  -1.659  1.00  0.00     0.000 A 
ATOM     12  C   UNL     1       8.432  -0.397  -2.395  1.00  0.00     0.000 A 
ENDBRANCH   6   7
ENDBRANCH   1   6
TORSDOF 4
ENDMDL
