@<TRIPOS>MOLECULE
/home/cewinharhar/GITHUB/reincatalyze/data/processed/docking_pred/2023_Apr_20-15:07/1f3204452a604bf2b5a1468570937d609aafa137_ligand_2.pdbqt
 12 12 0 0 0
SMALL
GASTEIGER

@<TRIPOS>ATOM
      1  C          8.4390   -0.6250   -2.1300 C.3     1  UNL1        0.1270
      2  C          8.3900   -1.8960   -2.8900 C.2     1  UNL1        0.3030
      3  O          7.2960   -2.4100   -3.2280 O.2     1  UNL1       -0.2520
      4  O          9.5560   -2.5540   -3.2490 O.3     1  UNL1       -0.4810
      5  H          9.5590   -3.1490   -4.0820 H       1  UNL1        0.2960
      6  C          7.0610   -0.0380   -2.1050 C.3     1  UNL1        0.0470
      7  C          6.4940    0.0910   -0.7640 C.2     1  UNL1       -0.0470
      8  C          6.6270   -0.9230    0.1560 C.2     1  UNL1        0.0040
      9  C          5.8240    1.2440   -0.4260 C.2     1  UNL1        0.0040
     10  C          6.0620   -0.7310    1.4190 C.2     1  UNL1        0.0000
     11  C          5.2650    1.4320    0.8230 C.2     1  UNL1        0.0000
     12  C          5.3930    0.4200    1.7500 C.2     1  UNL1        0.0000
@<TRIPOS>BOND
     1     5     4    1
     2     4     2    1
     3     3     2    2
     4     2     1    1
     5     1     6    1
     6     6     7    1
     7     7     9    2
     8     7     8    1
     9     9    11    1
    10     8    10    2
    11    11    12    2
    12    10    12    1
