MODEL 1
REMARK VINA RESULT:      -7.1      0.000      0.000
REMARK SMILES O=C(O)CCc1ccccc1
REMARK SMILES IDX 4 1 2 2 1 3 3 4 5 6 6 7 7 8 11 9 8 10 10 11 9 12
REMARK H PARENT 3 5
REMARK Flexibility Score: inf
ROOT
ATOM      1  C   UNL     1       8.469  -0.607  -2.138  1.00  0.00     0.127 C 
ENDROOT
BRANCH   1   2
ATOM      2  C   UNL     1       8.496  -1.876  -2.902  1.00  0.00     0.303 C 
ATOM      3  O   UNL     1       9.574  -2.484  -3.116  1.00  0.00    -0.252 OA
BRANCH   2   4
ATOM      4  O   UNL     1       7.328  -2.427  -3.404  1.00  0.00    -0.481 OA
ATOM      5  H   UNL     1       6.826  -1.941  -4.153  1.00  0.00     0.296 HD
ENDBRANCH   2   4
ENDBRANCH   1   2
BRANCH   1   6
ATOM      6  C   UNL     1       7.063  -0.089  -2.133  1.00  0.00     0.047 C 
BRANCH   6   7
ATOM      7  C   UNL     1       6.490   0.065  -0.797  1.00  0.00    -0.047 A 
ATOM      8  C   UNL     1       6.646  -0.917   0.153  1.00  0.00     0.004 A 
ATOM      9  C   UNL     1       5.792   1.211  -0.495  1.00  0.00     0.004 A 
ATOM     10  C   UNL     1       6.074  -0.702   1.408  1.00  0.00     0.000 A 
ATOM     11  C   UNL     1       5.226   1.422   0.747  1.00  0.00     0.000 A 
ATOM     12  C   UNL     1       5.377   0.442   1.704  1.00  0.00     0.000 A 
ENDBRANCH   6   7
ENDBRANCH   1   6
TORSDOF 4
ENDMDL
MODEL 2
REMARK VINA RESULT:      -7.0      0.145      1.442
REMARK SMILES O=C(O)CCc1ccccc1
REMARK SMILES IDX 4 1 2 2 1 3 3 4 5 6 6 7 7 8 11 9 8 10 10 11 9 12
REMARK H PARENT 3 5
REMARK Flexibility Score: inf
ROOT
ATOM      1  C   UNL     1       8.380  -0.532  -2.268  1.00  0.00     0.127 C 
ENDROOT
BRANCH   1   2
ATOM      2  C   UNL     1       8.457  -1.851  -2.940  1.00  0.00     0.303 C 
ATOM      3  O   UNL     1       9.550  -2.457  -3.059  1.00  0.00    -0.252 OA
BRANCH   2   4
ATOM      4  O   UNL     1       7.321  -2.452  -3.456  1.00  0.00    -0.481 OA
ATOM      5  H   UNL     1       6.465  -1.900  -3.561  1.00  0.00     0.296 HD
ENDBRANCH   2   4
ENDBRANCH   1   2
BRANCH   1   6
ATOM      6  C   UNL     1       6.939  -0.127  -2.191  1.00  0.00     0.047 C 
BRANCH   6   7
ATOM      7  C   UNL     1       6.442   0.044  -0.827  1.00  0.00    -0.047 A 
ATOM      8  C   UNL     1       5.827   1.213  -0.444  1.00  0.00     0.004 A 
ATOM      9  C   UNL     1       6.593  -0.983   0.076  1.00  0.00     0.004 A 
ATOM     10  C   UNL     1       5.375   1.306   0.875  1.00  0.00     0.000 A 
ATOM     11  C   UNL     1       6.147  -0.889   1.379  1.00  0.00     0.000 A 
ATOM     12  C   UNL     1       5.530   0.279   1.771  1.00  0.00     0.000 A 
ENDBRANCH   6   7
ENDBRANCH   1   6
TORSDOF 4
ENDMDL
MODEL 3
REMARK VINA RESULT:      -6.8      1.329      1.735
REMARK SMILES O=C(O)CCc1ccccc1
REMARK SMILES IDX 4 1 2 2 1 3 3 4 5 6 6 7 7 8 11 9 8 10 10 11 9 12
REMARK H PARENT 3 5
REMARK Flexibility Score: inf
ROOT
ATOM      1  C   UNL     1       8.260  -0.493  -2.311  1.00  0.00     0.127 C 
ENDROOT
BRANCH   1   2
ATOM      2  C   UNL     1       8.379  -1.828  -2.942  1.00  0.00     0.303 C 
ATOM      3  O   UNL     1       9.491  -2.404  -3.043  1.00  0.00    -0.252 OA
BRANCH   2   4
ATOM      4  O   UNL     1       7.262  -2.480  -3.441  1.00  0.00    -0.481 OA
ATOM      5  H   UNL     1       6.930  -2.255  -4.382  1.00  0.00     0.296 HD
ENDBRANCH   2   4
ENDBRANCH   1   2
BRANCH   1   6
ATOM      6  C   UNL     1       7.087  -0.516  -1.379  1.00  0.00     0.047 C 
BRANCH   6   7
ATOM      7  C   UNL     1       6.866   0.744  -0.670  1.00  0.00    -0.047 A 
ATOM      8  C   UNL     1       7.899   1.373  -0.015  1.00  0.00     0.004 A 
ATOM      9  C   UNL     1       5.608   1.300  -0.665  1.00  0.00     0.004 A 
ATOM     10  C   UNL     1       7.616   2.574   0.640  1.00  0.00     0.000 A 
ATOM     11  C   UNL     1       5.329   2.486  -0.017  1.00  0.00     0.000 A 
ATOM     12  C   UNL     1       6.359   3.123   0.642  1.00  0.00     0.000 A 
ENDBRANCH   6   7
ENDBRANCH   1   6
TORSDOF 4
ENDMDL
MODEL 4
REMARK VINA RESULT:      -6.4      3.414      5.117
REMARK SMILES O=C(O)CCc1ccccc1
REMARK SMILES IDX 4 1 2 2 1 3 3 4 5 6 6 7 7 8 11 9 8 10 10 11 9 12
REMARK H PARENT 3 5
REMARK Flexibility Score: inf
ROOT
ATOM      1  C   UNL     1       4.929   1.844   0.734  1.00  0.00     0.127 C 
ENDROOT
BRANCH   1   2
ATOM      2  C   UNL     1       4.438   1.122   1.932  1.00  0.00     0.303 C 
ATOM      3  O   UNL     1       5.106   0.194   2.452  1.00  0.00    -0.252 OA
BRANCH   2   4
ATOM      4  O   UNL     1       3.224   1.452   2.511  1.00  0.00    -0.481 OA
ATOM      5  H   UNL     1       2.695   2.249   2.147  1.00  0.00     0.296 HD
ENDBRANCH   2   4
ENDBRANCH   1   2
BRANCH   1   6
ATOM      6  C   UNL     1       6.419   1.965   0.836  1.00  0.00     0.047 C 
BRANCH   6   7
ATOM      7  C   UNL     1       7.147   1.254  -0.215  1.00  0.00    -0.047 A 
ATOM      8  C   UNL     1       6.475   0.502  -1.150  1.00  0.00     0.004 A 
ATOM      9  C   UNL     1       8.518   1.347  -0.262  1.00  0.00     0.004 A 
ATOM     10  C   UNL     1       7.234  -0.149  -2.125  1.00  0.00     0.000 A 
ATOM     11  C   UNL     1       9.267   0.703  -1.227  1.00  0.00     0.000 A 
ATOM     12  C   UNL     1       8.602  -0.053  -2.167  1.00  0.00     0.000 A 
ENDBRANCH   6   7
ENDBRANCH   1   6
TORSDOF 4
ENDMDL
MODEL 5
REMARK VINA RESULT:      -6.4      4.559      5.279
REMARK SMILES O=C(O)CCc1ccccc1
REMARK SMILES IDX 4 1 2 2 1 3 3 4 5 6 6 7 7 8 11 9 8 10 10 11 9 12
REMARK H PARENT 3 5
REMARK Flexibility Score: inf
ROOT
ATOM      1  C   UNL     1       7.489  -0.325   0.935  1.00  0.00     0.127 C 
ENDROOT
BRANCH   1   2
ATOM      2  C   UNL     1       6.737  -1.250   1.815  1.00  0.00     0.303 C 
ATOM      3  O   UNL     1       6.101  -0.827   2.812  1.00  0.00    -0.252 OA
BRANCH   2   4
ATOM      4  O   UNL     1       6.716  -2.612   1.561  1.00  0.00    -0.481 OA
ATOM      5  H   UNL     1       6.587  -2.940   0.600  1.00  0.00     0.296 HD
ENDBRANCH   2   4
ENDBRANCH   1   2
BRANCH   1   6
ATOM      6  C   UNL     1       7.898   0.867   1.745  1.00  0.00     0.047 C 
BRANCH   6   7
ATOM      7  C   UNL     1       9.320   0.897   2.083  1.00  0.00    -0.047 A 
ATOM      8  C   UNL     1      10.206   0.040   1.474  1.00  0.00     0.004 A 
ATOM      9  C   UNL     1       9.768   1.799   3.021  1.00  0.00     0.004 A 
ATOM     10  C   UNL     1      11.550   0.125   1.845  1.00  0.00     0.000 A 
ATOM     11  C   UNL     1      11.097   1.881   3.387  1.00  0.00     0.000 A 
ATOM     12  C   UNL     1      11.991   1.025   2.782  1.00  0.00     0.000 A 
ENDBRANCH   6   7
ENDBRANCH   1   6
TORSDOF 4
ENDMDL
