@<TRIPOS>MOLECULE
/home/cewinharhar/GITHUB/reincatalyze/data/processed/docking_pred/2023_Apr_20-15:07/1f53ccdef65850680f3a99c865464637782ca6a5_ligand_2.pdbqt
 12 12 0 0 0
SMALL
GASTEIGER

@<TRIPOS>ATOM
      1  C          4.9290    1.8440    0.7340 C.3     1  UNL1        0.1270
      2  C          4.4380    1.1220    1.9320 C.2     1  UNL1        0.3030
      3  O          5.1060    0.1940    2.4520 O.2     1  UNL1       -0.2520
      4  O          3.2240    1.4520    2.5110 O.3     1  UNL1       -0.4810
      5  H          2.6950    2.2490    2.1470 H       1  UNL1        0.2960
      6  C          6.4190    1.9650    0.8360 C.3     1  UNL1        0.0470
      7  C          7.1470    1.2540   -0.2150 C.2     1  UNL1       -0.0470
      8  C          6.4750    0.5020   -1.1500 C.2     1  UNL1        0.0040
      9  C          8.5180    1.3470   -0.2620 C.2     1  UNL1        0.0040
     10  C          7.2340   -0.1490   -2.1250 C.2     1  UNL1        0.0000
     11  C          9.2670    0.7030   -1.2270 C.2     1  UNL1        0.0000
     12  C          8.6020   -0.0530   -2.1670 C.2     1  UNL1        0.0000
@<TRIPOS>BOND
     1    12    10    2
     2    12    11    1
     3    10     8    1
     4    11     9    2
     5     8     7    2
     6     9     7    1
     7     7     6    1
     8     1     6    1
     9     1     2    1
    10     2     3    2
    11     2     4    1
    12     5     4    1
