@<TRIPOS>MOLECULE
/home/cewinharhar/GITHUB/reincatalyze/data/processed/docking_pred/2023_Apr_20-15:07/1f53ccdef65850680f3a99c865464637782ca6a5_ligand_2.pdbqt
 12 12 0 0 0
SMALL
GASTEIGER

@<TRIPOS>ATOM
      1  C          8.4690   -0.6070   -2.1380 C.3     1  UNL1        0.1270
      2  C          8.4960   -1.8760   -2.9020 C.2     1  UNL1        0.3030
      3  O          9.5740   -2.4840   -3.1160 O.2     1  UNL1       -0.2520
      4  O          7.3280   -2.4270   -3.4040 O.3     1  UNL1       -0.4810
      5  H          6.8260   -1.9410   -4.1530 H       1  UNL1        0.2960
      6  C          7.0630   -0.0890   -2.1330 C.3     1  UNL1        0.0470
      7  C          6.4900    0.0650   -0.7970 C.2     1  UNL1       -0.0470
      8  C          6.6460   -0.9170    0.1530 C.2     1  UNL1        0.0040
      9  C          5.7920    1.2110   -0.4950 C.2     1  UNL1        0.0040
     10  C          6.0740   -0.7020    1.4080 C.2     1  UNL1        0.0000
     11  C          5.2260    1.4220    0.7470 C.2     1  UNL1        0.0000
     12  C          5.3770    0.4420    1.7040 C.2     1  UNL1        0.0000
@<TRIPOS>BOND
     1     5     4    1
     2     4     2    1
     3     3     2    2
     4     2     1    1
     5     1     6    1
     6     6     7    1
     7     7     9    2
     8     7     8    1
     9     9    11    1
    10     8    10    2
    11    11    12    2
    12    10    12    1
