@<TRIPOS>MOLECULE
/home/cewinharhar/GITHUB/reincatalyze/data/processed/docking_pred/2023_Apr_20-15:07/1f53ccdef65850680f3a99c865464637782ca6a5_ligand_2.pdbqt
 12 12 0 0 0
SMALL
GASTEIGER

@<TRIPOS>ATOM
      1  C          8.2600   -0.4930   -2.3110 C.3     1  UNL1        0.1270
      2  C          8.3790   -1.8280   -2.9420 C.2     1  UNL1        0.3030
      3  O          9.4910   -2.4040   -3.0430 O.2     1  UNL1       -0.2520
      4  O          7.2620   -2.4800   -3.4410 O.3     1  UNL1       -0.4810
      5  H          6.9300   -2.2550   -4.3820 H       1  UNL1        0.2960
      6  C          7.0870   -0.5160   -1.3790 C.3     1  UNL1        0.0470
      7  C          6.8660    0.7440   -0.6700 C.2     1  UNL1       -0.0470
      8  C          7.8990    1.3730   -0.0150 C.2     1  UNL1        0.0040
      9  C          5.6080    1.3000   -0.6650 C.2     1  UNL1        0.0040
     10  C          7.6160    2.5740    0.6400 C.2     1  UNL1        0.0000
     11  C          5.3290    2.4860   -0.0170 C.2     1  UNL1        0.0000
     12  C          6.3590    3.1230    0.6420 C.2     1  UNL1        0.0000
@<TRIPOS>BOND
     1     5     4    1
     2     4     2    1
     3     3     2    2
     4     2     1    1
     5     1     6    1
     6     6     7    1
     7     7     9    2
     8     7     8    1
     9     9    11    1
    10    11    12    2
    11     8    10    2
    12    10    12    1
