@<TRIPOS>MOLECULE
/home/cewinharhar/GITHUB/reincatalyze/data/processed/docking_pred/2023_Apr_20-15:07/1f53ccdef65850680f3a99c865464637782ca6a5_ligand_2.pdbqt
 12 12 0 0 0
SMALL
GASTEIGER

@<TRIPOS>ATOM
      1  C          7.4890   -0.3250    0.9350 C.3     1  UNL1        0.1270
      2  C          6.7370   -1.2500    1.8150 C.2     1  UNL1        0.3030
      3  O          6.1010   -0.8270    2.8120 O.2     1  UNL1       -0.2520
      4  O          6.7160   -2.6120    1.5610 O.3     1  UNL1       -0.4810
      5  H          6.5870   -2.9400    0.6000 H       1  UNL1        0.2960
      6  C          7.8980    0.8670    1.7450 C.3     1  UNL1        0.0470
      7  C          9.3200    0.8970    2.0830 C.2     1  UNL1       -0.0470
      8  C         10.2060    0.0400    1.4740 C.2     1  UNL1        0.0040
      9  C          9.7680    1.7990    3.0210 C.2     1  UNL1        0.0040
     10  C         11.5500    0.1250    1.8450 C.2     1  UNL1        0.0000
     11  C         11.0970    1.8810    3.3870 C.2     1  UNL1        0.0000
     12  C         11.9910    1.0250    2.7820 C.2     1  UNL1        0.0000
@<TRIPOS>BOND
     1     5     4    1
     2     1     6    1
     3     1     2    1
     4     8    10    1
     5     8     7    2
     6     4     2    1
     7     6     7    1
     8     2     3    2
     9    10    12    2
    10     7     9    1
    11    12    11    1
    12     9    11    2
