@<TRIPOS>MOLECULE
/home/cewinharhar/GITHUB/reincatalyze/data/processed/docking_pred/2023_Apr_20-15:07/1f774135605f6656ff2aa9e322f53f2a679c664c_ligand_2.pdbqt
 12 12 0 0 0
SMALL
GASTEIGER

@<TRIPOS>ATOM
      1  C          6.0730    1.4310    1.2180 C.3     1  UNL1        0.1270
      2  C          5.2120    0.5290    2.0180 C.2     1  UNL1        0.3030
      3  O          5.5950   -0.6240    2.3370 O.2     1  UNL1       -0.2520
      4  O          3.9550    0.9350    2.4380 O.3     1  UNL1       -0.4810
      5  H          3.6930    1.9210    2.3540 H       1  UNL1        0.2960
      6  C          5.7840    1.1940   -0.2330 C.3     1  UNL1        0.0470
      7  C          6.8830    0.5660   -0.9630 C.2     1  UNL1       -0.0470
      8  C          8.1660    1.0500   -0.8560 C.2     1  UNL1        0.0040
      9  C          6.6220   -0.5230   -1.7630 C.2     1  UNL1        0.0040
     10  C          9.1670    0.4000   -1.5820 C.2     1  UNL1        0.0000
     11  C          7.6130   -1.1640   -2.4800 C.2     1  UNL1        0.0000
     12  C          8.9010   -0.6850   -2.3790 C.2     1  UNL1        0.0000
@<TRIPOS>BOND
     1    11    12    2
     2    11     9    1
     3    12    10    1
     4     9     7    2
     5    10     8    2
     6     7     8    1
     7     7     6    1
     8     6     1    1
     9     1     2    1
    10     2     3    2
    11     2     4    1
    12     5     4    1
