@<TRIPOS>MOLECULE
/home/cewinharhar/GITHUB/reincatalyze/data/processed/docking_pred/2023_Apr_20-15:07/1f774135605f6656ff2aa9e322f53f2a679c664c_ligand_2.pdbqt
 12 12 0 0 0
SMALL
GASTEIGER

@<TRIPOS>ATOM
      1  C          8.4340   -0.5890   -2.1950 C.3     1  UNL1        0.1270
      2  C          8.4720   -1.8680   -2.9410 C.2     1  UNL1        0.3030
      3  O          9.5520   -2.4790   -3.1320 O.2     1  UNL1       -0.2520
      4  O          7.3110   -2.4260   -3.4520 O.3     1  UNL1       -0.4810
      5  H          6.7740   -3.0810   -2.8750 H       1  UNL1        0.2960
      6  C          7.0040   -0.1640   -2.0600 C.3     1  UNL1        0.0470
      7  C          6.5290   -0.1030   -0.6790 C.2     1  UNL1       -0.0470
      8  C          5.8510    1.0010   -0.2150 C.2     1  UNL1        0.0040
      9  C          6.7660   -1.1680    0.1600 C.2     1  UNL1        0.0040
     10  C          5.4260    0.9890    1.1150 C.2     1  UNL1        0.0000
     11  C          6.3450   -1.1770    1.4750 C.2     1  UNL1        0.0000
     12  C          5.6660   -0.0750    1.9470 C.2     1  UNL1        0.0000
@<TRIPOS>BOND
     1     4     2    1
     2     4     5    1
     3     3     2    2
     4     2     1    1
     5     1     6    1
     6     6     7    1
     7     7     8    2
     8     7     9    1
     9     8    10    1
    10     9    11    2
    11    10    12    2
    12    11    12    1
