@<TRIPOS>MOLECULE
/home/cewinharhar/GITHUB/reincatalyze/data/processed/docking_pred/2023_Apr_20-15:07/1f774135605f6656ff2aa9e322f53f2a679c664c_ligand_2.pdbqt
 12 12 0 0 0
SMALL
GASTEIGER

@<TRIPOS>ATOM
      1  C          5.9310   -0.7320    1.7210 C.3     1  UNL1        0.1270
      2  C          5.2700    0.5680    1.9840 C.2     1  UNL1        0.3030
      3  O          4.1100    0.6230    2.4620 O.2     1  UNL1       -0.2520
      4  O          5.9160    1.7620    1.7070 O.3     1  UNL1       -0.4810
      5  H          6.7390    2.0250    2.2560 H       1  UNL1        0.2960
      6  C          7.3670   -0.4700    1.3820 C.3     1  UNL1        0.0470
      7  C          7.6390   -0.4200   -0.0540 C.2     1  UNL1       -0.0470
      8  C          6.9740   -1.2500   -0.9250 C.2     1  UNL1        0.0040
      9  C          8.5700    0.4740   -0.5300 C.2     1  UNL1        0.0040
     10  C          7.2830   -1.1470   -2.2830 C.2     1  UNL1        0.0000
     11  C          8.8750    0.5750   -1.8720 C.2     1  UNL1        0.0000
     12  C          8.2140   -0.2550   -2.7520 C.2     1  UNL1        0.0000
@<TRIPOS>BOND
     1    12    10    2
     2    12    11    1
     3    10     8    1
     4    11     9    2
     5     8     7    2
     6     9     7    1
     7     7     6    1
     8     6     1    1
     9     4     2    1
    10     4     5    1
    11     1     2    1
    12     2     3    2
