@<TRIPOS>MOLECULE
/home/cewinharhar/GITHUB/reincatalyze/data/processed/docking_pred/2023_Apr_20-15:07/1f774135605f6656ff2aa9e322f53f2a679c664c_ligand_2.pdbqt
 12 12 0 0 0
SMALL
GASTEIGER

@<TRIPOS>ATOM
      1  C          8.4790   -0.6110   -2.1920 C.3     1  UNL1        0.1270
      2  C          8.4980   -1.8940   -2.9340 C.2     1  UNL1        0.3030
      3  O          9.5680   -2.5290   -3.1070 O.2     1  UNL1       -0.2520
      4  O          7.3330   -2.4280   -3.4590 O.3     1  UNL1       -0.4810
      5  H          6.4480   -1.9310   -3.3230 H       1  UNL1        0.2960
      6  C          7.0510   -0.1950   -2.0090 C.3     1  UNL1        0.0470
      7  C          6.6040   -0.2000   -0.6170 C.2     1  UNL1       -0.0470
      8  C          6.8900   -1.2630    0.2090 C.2     1  UNL1        0.0040
      9  C          5.8920    0.8740   -0.1360 C.2     1  UNL1        0.0040
     10  C          6.4320   -1.2000    1.5270 C.2     1  UNL1        0.0000
     11  C          5.4410    0.9350    1.1670 C.2     1  UNL1        0.0000
     12  C          5.7220   -0.1260    2.0010 C.2     1  UNL1        0.0000
@<TRIPOS>BOND
     1     4     5    1
     2     4     2    1
     3     3     2    2
     4     2     1    1
     5     1     6    1
     6     6     7    1
     7     7     9    2
     8     7     8    1
     9     9    11    1
    10     8    10    2
    11    11    12    2
    12    10    12    1
