MODEL 1
REMARK VINA RESULT:      -7.3      0.000      0.000
REMARK SMILES O=C(O)CCc1ccccc1
REMARK SMILES IDX 4 1 2 2 1 3 3 4 5 6 6 7 7 8 11 9 8 10 10 11 9 12
REMARK H PARENT 3 5
REMARK Flexibility Score: inf
ROOT
ATOM      1  C   UNL     1       8.434  -0.589  -2.195  1.00  0.00     0.127 C 
ENDROOT
BRANCH   1   2
ATOM      2  C   UNL     1       8.472  -1.868  -2.941  1.00  0.00     0.303 C 
ATOM      3  O   UNL     1       9.552  -2.479  -3.132  1.00  0.00    -0.252 OA
BRANCH   2   4
ATOM      4  O   UNL     1       7.311  -2.426  -3.452  1.00  0.00    -0.481 OA
ATOM      5  H   UNL     1       6.774  -3.081  -2.875  1.00  0.00     0.296 HD
ENDBRANCH   2   4
ENDBRANCH   1   2
BRANCH   1   6
ATOM      6  C   UNL     1       7.004  -0.164  -2.060  1.00  0.00     0.047 C 
BRANCH   6   7
ATOM      7  C   UNL     1       6.529  -0.103  -0.679  1.00  0.00    -0.047 A 
ATOM      8  C   UNL     1       5.851   1.001  -0.215  1.00  0.00     0.004 A 
ATOM      9  C   UNL     1       6.766  -1.168   0.160  1.00  0.00     0.004 A 
ATOM     10  C   UNL     1       5.426   0.989   1.115  1.00  0.00     0.000 A 
ATOM     11  C   UNL     1       6.345  -1.177   1.475  1.00  0.00     0.000 A 
ATOM     12  C   UNL     1       5.666  -0.075   1.947  1.00  0.00     0.000 A 
ENDBRANCH   6   7
ENDBRANCH   1   6
TORSDOF 4
ENDMDL
MODEL 2
REMARK VINA RESULT:      -7.3      0.099      1.439
REMARK SMILES O=C(O)CCc1ccccc1
REMARK SMILES IDX 4 1 2 2 1 3 3 4 5 6 6 7 7 8 11 9 8 10 10 11 9 12
REMARK H PARENT 3 5
REMARK Flexibility Score: inf
ROOT
ATOM      1  C   UNL     1       8.479  -0.611  -2.192  1.00  0.00     0.127 C 
ENDROOT
BRANCH   1   2
ATOM      2  C   UNL     1       8.498  -1.894  -2.934  1.00  0.00     0.303 C 
ATOM      3  O   UNL     1       9.568  -2.529  -3.107  1.00  0.00    -0.252 OA
BRANCH   2   4
ATOM      4  O   UNL     1       7.333  -2.428  -3.459  1.00  0.00    -0.481 OA
ATOM      5  H   UNL     1       6.448  -1.931  -3.323  1.00  0.00     0.296 HD
ENDBRANCH   2   4
ENDBRANCH   1   2
BRANCH   1   6
ATOM      6  C   UNL     1       7.051  -0.195  -2.009  1.00  0.00     0.047 C 
BRANCH   6   7
ATOM      7  C   UNL     1       6.604  -0.200  -0.617  1.00  0.00    -0.047 A 
ATOM      8  C   UNL     1       6.890  -1.263   0.209  1.00  0.00     0.004 A 
ATOM      9  C   UNL     1       5.892   0.874  -0.136  1.00  0.00     0.004 A 
ATOM     10  C   UNL     1       6.432  -1.200   1.527  1.00  0.00     0.000 A 
ATOM     11  C   UNL     1       5.441   0.935   1.167  1.00  0.00     0.000 A 
ATOM     12  C   UNL     1       5.722  -0.126   2.001  1.00  0.00     0.000 A 
ENDBRANCH   6   7
ENDBRANCH   1   6
TORSDOF 4
ENDMDL
MODEL 3
REMARK VINA RESULT:      -6.6      3.228      4.996
REMARK SMILES O=C(O)CCc1ccccc1
REMARK SMILES IDX 4 1 2 2 1 3 3 4 5 6 6 7 7 8 11 9 8 10 10 11 9 12
REMARK H PARENT 3 5
REMARK Flexibility Score: inf
ROOT
ATOM      1  C   UNL     1       5.931  -0.732   1.721  1.00  0.00     0.127 C 
ENDROOT
BRANCH   1   2
ATOM      2  C   UNL     1       5.270   0.568   1.984  1.00  0.00     0.303 C 
ATOM      3  O   UNL     1       4.110   0.623   2.462  1.00  0.00    -0.252 OA
BRANCH   2   4
ATOM      4  O   UNL     1       5.916   1.762   1.707  1.00  0.00    -0.481 OA
ATOM      5  H   UNL     1       6.739   2.025   2.256  1.00  0.00     0.296 HD
ENDBRANCH   2   4
ENDBRANCH   1   2
BRANCH   1   6
ATOM      6  C   UNL     1       7.367  -0.470   1.382  1.00  0.00     0.047 C 
BRANCH   6   7
ATOM      7  C   UNL     1       7.639  -0.420  -0.054  1.00  0.00    -0.047 A 
ATOM      8  C   UNL     1       6.974  -1.250  -0.925  1.00  0.00     0.004 A 
ATOM      9  C   UNL     1       8.570   0.474  -0.530  1.00  0.00     0.004 A 
ATOM     10  C   UNL     1       7.283  -1.147  -2.283  1.00  0.00     0.000 A 
ATOM     11  C   UNL     1       8.875   0.575  -1.872  1.00  0.00     0.000 A 
ATOM     12  C   UNL     1       8.214  -0.255  -2.752  1.00  0.00     0.000 A 
ENDBRANCH   6   7
ENDBRANCH   1   6
TORSDOF 4
ENDMDL
MODEL 4
REMARK VINA RESULT:      -6.6      3.111      4.807
REMARK SMILES O=C(O)CCc1ccccc1
REMARK SMILES IDX 4 1 2 2 1 3 3 4 5 6 6 7 7 8 11 9 8 10 10 11 9 12
REMARK H PARENT 3 5
REMARK Flexibility Score: inf
ROOT
ATOM      1  C   UNL     1       6.073   1.431   1.218  1.00  0.00     0.127 C 
ENDROOT
BRANCH   1   2
ATOM      2  C   UNL     1       5.212   0.529   2.018  1.00  0.00     0.303 C 
ATOM      3  O   UNL     1       5.595  -0.624   2.337  1.00  0.00    -0.252 OA
BRANCH   2   4
ATOM      4  O   UNL     1       3.955   0.935   2.438  1.00  0.00    -0.481 OA
ATOM      5  H   UNL     1       3.693   1.921   2.354  1.00  0.00     0.296 HD
ENDBRANCH   2   4
ENDBRANCH   1   2
BRANCH   1   6
ATOM      6  C   UNL     1       5.784   1.194  -0.233  1.00  0.00     0.047 C 
BRANCH   6   7
ATOM      7  C   UNL     1       6.883   0.566  -0.963  1.00  0.00    -0.047 A 
ATOM      8  C   UNL     1       8.166   1.050  -0.856  1.00  0.00     0.004 A 
ATOM      9  C   UNL     1       6.622  -0.523  -1.763  1.00  0.00     0.004 A 
ATOM     10  C   UNL     1       9.167   0.400  -1.582  1.00  0.00     0.000 A 
ATOM     11  C   UNL     1       7.613  -1.164  -2.480  1.00  0.00     0.000 A 
ATOM     12  C   UNL     1       8.901  -0.685  -2.379  1.00  0.00     0.000 A 
ENDBRANCH   6   7
ENDBRANCH   1   6
TORSDOF 4
ENDMDL
