@<TRIPOS>MOLECULE
/home/cewinharhar/GITHUB/reincatalyze/data/processed/docking_pred/2023_Apr_20-15:07/1f774135605f6656ff2aa9e322f53f2a679c664c_ligand_2.pdbqt
 12 12 0 0 0
SMALL
GASTEIGER

@<TRIPOS>ATOM
      1  C          5.3340    2.9310    0.0960 C.3     1  UNL1        0.1270
      2  C          6.2210    3.8480    0.8500 C.2     1  UNL1        0.3030
      3  O          6.8710    4.7500    0.2670 O.2     1  UNL1       -0.2520
      4  O          6.3570    3.7330    2.2240 O.3     1  UNL1       -0.4810
      5  H          7.2890    3.5990    2.6260 H       1  UNL1        0.2960
      6  C          5.2930    1.6180    0.8170 C.3     1  UNL1        0.0470
      7  C          6.0570    0.5560    0.1630 C.2     1  UNL1       -0.0470
      8  C          6.3030    0.5970   -1.1890 C.2     1  UNL1        0.0040
      9  C          6.5340   -0.4900    0.9190 C.2     1  UNL1        0.0040
     10  C          7.0410   -0.4500   -1.7460 C.2     1  UNL1        0.0000
     11  C          7.2630   -1.5250    0.3670 C.2     1  UNL1        0.0000
     12  C          7.5130   -1.4910   -0.9880 C.2     1  UNL1        0.0000
@<TRIPOS>BOND
     1    10     8    1
     2    10    12    2
     3     8     7    2
     4    12    11    1
     5     1     6    1
     6     1     2    1
     7     7     6    1
     8     7     9    1
     9     3     2    2
    10    11     9    2
    11     2     4    1
    12     4     5    1
