@<TRIPOS>MOLECULE
/home/cewinharhar/GITHUB/reincatalyze/data/processed/docking_pred/2023_Apr_20-15:07/1fd5ec6d4a6889d2560636754963a08404c0587d_ligand_2.pdbqt
 12 12 0 0 0
SMALL
GASTEIGER

@<TRIPOS>ATOM
      1  C          5.0480    1.8030    0.7360 C.3     1  UNL1        0.1270
      2  C          4.5050    1.1020    1.9230 C.2     1  UNL1        0.3030
      3  O          5.1450    0.1780    2.4820 O.2     1  UNL1       -0.2520
      4  O          3.2710    1.4490    2.4490 O.3     1  UNL1       -0.4810
      5  H          2.4190    1.1820    1.9470 H       1  UNL1        0.2960
      6  C          6.5440    1.7180    0.7830 C.3     1  UNL1        0.0470
      7  C          7.1320    0.9740   -0.3290 C.2     1  UNL1       -0.0470
      8  C          6.3910    0.0480   -1.0260 C.2     1  UNL1        0.0040
      9  C          8.4430    1.2090   -0.6760 C.2     1  UNL1        0.0040
     10  C          7.0180   -0.6260   -2.0770 C.2     1  UNL1        0.0000
     11  C          9.0610    0.5420   -1.7140 C.2     1  UNL1        0.0000
     12  C          8.3260   -0.3870   -2.4180 C.2     1  UNL1        0.0000
@<TRIPOS>BOND
     1    12    10    2
     2    12    11    1
     3    10     8    1
     4    11     9    2
     5     8     7    2
     6     9     7    1
     7     7     6    1
     8     1     6    1
     9     1     2    1
    10     2     4    1
    11     2     3    2
    12     5     4    1
