@<TRIPOS>MOLECULE
/home/cewinharhar/GITHUB/reincatalyze/data/processed/docking_pred/2023_Apr_20-15:07/1fd5ec6d4a6889d2560636754963a08404c0587d_ligand_2.pdbqt
 12 12 0 0 0
SMALL
GASTEIGER

@<TRIPOS>ATOM
      1  C          5.4530    2.9080   -0.0020 C.3     1  UNL1        0.1270
      2  C          6.2500    3.8640    0.8030 C.2     1  UNL1        0.3030
      3  O          6.9210    4.7740    0.2550 O.2     1  UNL1       -0.2520
      4  O          6.2780    3.7790    2.1850 O.3     1  UNL1       -0.4810
      5  H          7.1680    3.6020    2.6590 H       1  UNL1        0.2960
      6  C          4.9230    1.8490    0.9160 C.3     1  UNL1        0.0470
      7  C          5.7130    0.6190    0.9230 C.2     1  UNL1       -0.0470
      8  C          6.3890    0.2110   -0.2040 C.2     1  UNL1        0.0040
      9  C          5.7760   -0.1320    2.0740 C.2     1  UNL1        0.0040
     10  C          7.1250   -0.9740   -0.1250 C.2     1  UNL1        0.0000
     11  C          6.5040   -1.3030    2.1500 C.2     1  UNL1        0.0000
     12  C          7.1840   -1.7190    1.0260 C.2     1  UNL1        0.0000
@<TRIPOS>BOND
     1     8    10    1
     2     8     7    2
     3    10    12    2
     4     1     2    1
     5     1     6    1
     6     3     2    2
     7     2     4    1
     8     6     7    1
     9     7     9    1
    10    12    11    1
    11     9    11    2
    12     4     5    1
