@<TRIPOS>MOLECULE
/home/cewinharhar/GITHUB/reincatalyze/data/processed/docking_pred/2023_Apr_20-15:07/1fd5ec6d4a6889d2560636754963a08404c0587d_ligand_2.pdbqt
 12 12 0 0 0
SMALL
GASTEIGER

@<TRIPOS>ATOM
      1  C          8.4180   -0.6250   -2.1200 C.3     1  UNL1        0.1270
      2  C          8.3910   -1.8890   -2.8930 C.2     1  UNL1        0.3030
      3  O          7.3050   -2.4250   -3.2270 O.2     1  UNL1       -0.2520
      4  O          9.5670   -2.5160   -3.2700 O.3     1  UNL1       -0.4810
      5  H         10.4000   -1.9490   -3.4540 H       1  UNL1        0.2960
      6  C          7.0300   -0.0610   -2.0900 C.3     1  UNL1        0.0470
      7  C          6.4770    0.0870   -0.7450 C.2     1  UNL1       -0.0470
      8  C          5.8540    1.2530   -0.3650 C.2     1  UNL1        0.0040
      9  C          6.5830   -0.9580    0.1430 C.2     1  UNL1        0.0040
     10  C          5.3480    1.3240    0.9350 C.2     1  UNL1        0.0000
     11  C          6.0820   -0.8870    1.4280 C.2     1  UNL1        0.0000
     12  C          5.4580    0.2790    1.8170 C.2     1  UNL1        0.0000
@<TRIPOS>BOND
     1     5     4    1
     2     4     2    1
     3     3     2    2
     4     2     1    1
     5     1     6    1
     6     6     7    1
     7     7     8    2
     8     7     9    1
     9     8    10    1
    10     9    11    2
    11    10    12    2
    12    11    12    1
