@<TRIPOS>MOLECULE
/home/cewinharhar/GITHUB/reincatalyze/data/processed/docking_pred/2023_Apr_20-15:07/1fd5ec6d4a6889d2560636754963a08404c0587d_ligand_2.pdbqt
 12 12 0 0 0
SMALL
GASTEIGER

@<TRIPOS>ATOM
      1  C          8.2410    0.2300   -2.1830 C.3     1  UNL1        0.1270
      2  C          9.3710    0.3570   -1.2330 C.2     1  UNL1        0.3030
      3  O          9.4660   -0.3930   -0.2300 O.2     1  UNL1       -0.2520
      4  O         10.3570    1.3110   -1.4270 O.3     1  UNL1       -0.4810
      5  H         10.5170    2.0200   -0.7050 H       1  UNL1        0.2960
      6  C          7.1510   -0.5510   -1.5150 C.3     1  UNL1        0.0470
      7  C          6.3600    0.2270   -0.5630 C.2     1  UNL1       -0.0470
      8  C          5.8190    1.4400   -0.9240 C.2     1  UNL1        0.0040
      9  C          6.1570   -0.2680    0.7040 C.2     1  UNL1        0.0040
     10  C          5.0740    2.1280    0.0360 C.2     1  UNL1        0.0000
     11  C          5.4210    0.4140    1.6520 C.2     1  UNL1        0.0000
     12  C          4.8760    1.6300    1.2990 C.2     1  UNL1        0.0000
@<TRIPOS>BOND
     1     1     6    1
     2     1     2    1
     3     6     7    1
     4     4     2    1
     5     4     5    1
     6     2     3    2
     7     8     7    2
     8     8    10    1
     9     7     9    1
    10    10    12    2
    11     9    11    2
    12    12    11    1
