@<TRIPOS>MOLECULE
/home/cewinharhar/GITHUB/reincatalyze/data/processed/docking_pred/2023_Apr_20-15:07/1fd5ec6d4a6889d2560636754963a08404c0587d_ligand_2.pdbqt
 12 12 0 0 0
SMALL
GASTEIGER

@<TRIPOS>ATOM
      1  C          8.4410   -0.5550   -2.2400 C.3     1  UNL1        0.1270
      2  C          8.5000   -1.8560   -2.9470 C.2     1  UNL1        0.3030
      3  O          9.5930   -2.4480   -3.1310 O.2     1  UNL1       -0.2520
      4  O          7.3470   -2.4570   -3.4270 O.3     1  UNL1       -0.4810
      5  H          7.0640   -3.3670   -3.0530 H       1  UNL1        0.2960
      6  C          7.0110   -0.1090   -2.1940 C.3     1  UNL1        0.0470
      7  C          6.4840    0.0600   -0.8410 C.2     1  UNL1       -0.0470
      8  C          6.6150   -0.9400    0.0950 C.2     1  UNL1        0.0040
      9  C          5.8540    1.2370   -0.5090 C.2     1  UNL1        0.0040
     10  C          6.0890   -0.7090    1.3680 C.2     1  UNL1        0.0000
     11  C          5.3340    1.4630    0.7500 C.2     1  UNL1        0.0000
     12  C          5.4600    0.4670    1.6930 C.2     1  UNL1        0.0000
@<TRIPOS>BOND
     1     4     5    1
     2     4     2    1
     3     3     2    2
     4     2     1    1
     5     1     6    1
     6     6     7    1
     7     7     9    2
     8     7     8    1
     9     9    11    1
    10     8    10    2
    11    11    12    2
    12    10    12    1
