MODEL 1
REMARK VINA RESULT:      -7.4      0.000      0.000
REMARK SMILES O=C(O)CCc1ccccc1
REMARK SMILES IDX 4 1 2 2 1 3 3 4 5 6 6 7 7 8 11 9 8 10 10 11 9 12
REMARK H PARENT 3 5
REMARK Flexibility Score: inf
ROOT
ATOM      1  C   UNL     1       8.441  -0.555  -2.240  1.00  0.00     0.127 C 
ENDROOT
BRANCH   1   2
ATOM      2  C   UNL     1       8.500  -1.856  -2.947  1.00  0.00     0.303 C 
ATOM      3  O   UNL     1       9.593  -2.448  -3.131  1.00  0.00    -0.252 OA
BRANCH   2   4
ATOM      4  O   UNL     1       7.347  -2.457  -3.427  1.00  0.00    -0.481 OA
ATOM      5  H   UNL     1       7.064  -3.367  -3.053  1.00  0.00     0.296 HD
ENDBRANCH   2   4
ENDBRANCH   1   2
BRANCH   1   6
ATOM      6  C   UNL     1       7.011  -0.109  -2.194  1.00  0.00     0.047 C 
BRANCH   6   7
ATOM      7  C   UNL     1       6.484   0.060  -0.841  1.00  0.00    -0.047 A 
ATOM      8  C   UNL     1       6.615  -0.940   0.095  1.00  0.00     0.004 A 
ATOM      9  C   UNL     1       5.854   1.237  -0.509  1.00  0.00     0.004 A 
ATOM     10  C   UNL     1       6.089  -0.709   1.368  1.00  0.00     0.000 A 
ATOM     11  C   UNL     1       5.334   1.463   0.750  1.00  0.00     0.000 A 
ATOM     12  C   UNL     1       5.460   0.467   1.693  1.00  0.00     0.000 A 
ENDBRANCH   6   7
ENDBRANCH   1   6
TORSDOF 4
ENDMDL
MODEL 2
REMARK VINA RESULT:      -7.3      0.163      1.734
REMARK SMILES O=C(O)CCc1ccccc1
REMARK SMILES IDX 4 1 2 2 1 3 3 4 5 6 6 7 7 8 11 9 8 10 10 11 9 12
REMARK H PARENT 3 5
REMARK Flexibility Score: inf
ROOT
ATOM      1  C   UNL     1       8.418  -0.625  -2.120  1.00  0.00     0.127 C 
ENDROOT
BRANCH   1   2
ATOM      2  C   UNL     1       8.391  -1.889  -2.893  1.00  0.00     0.303 C 
ATOM      3  O   UNL     1       7.305  -2.425  -3.227  1.00  0.00    -0.252 OA
BRANCH   2   4
ATOM      4  O   UNL     1       9.567  -2.516  -3.270  1.00  0.00    -0.481 OA
ATOM      5  H   UNL     1      10.400  -1.949  -3.454  1.00  0.00     0.296 HD
ENDBRANCH   2   4
ENDBRANCH   1   2
BRANCH   1   6
ATOM      6  C   UNL     1       7.030  -0.061  -2.090  1.00  0.00     0.047 C 
BRANCH   6   7
ATOM      7  C   UNL     1       6.477   0.087  -0.745  1.00  0.00    -0.047 A 
ATOM      8  C   UNL     1       5.854   1.253  -0.365  1.00  0.00     0.004 A 
ATOM      9  C   UNL     1       6.583  -0.958   0.143  1.00  0.00     0.004 A 
ATOM     10  C   UNL     1       5.348   1.324   0.935  1.00  0.00     0.000 A 
ATOM     11  C   UNL     1       6.082  -0.887   1.428  1.00  0.00     0.000 A 
ATOM     12  C   UNL     1       5.458   0.279   1.817  1.00  0.00     0.000 A 
ENDBRANCH   6   7
ENDBRANCH   1   6
TORSDOF 4
ENDMDL
MODEL 3
REMARK VINA RESULT:      -6.8      3.373      5.057
REMARK SMILES O=C(O)CCc1ccccc1
REMARK SMILES IDX 4 1 2 2 1 3 3 4 5 6 6 7 7 8 11 9 8 10 10 11 9 12
REMARK H PARENT 3 5
REMARK Flexibility Score: inf
ROOT
ATOM      1  C   UNL     1       5.048   1.803   0.736  1.00  0.00     0.127 C 
ENDROOT
BRANCH   1   2
ATOM      2  C   UNL     1       4.505   1.102   1.923  1.00  0.00     0.303 C 
ATOM      3  O   UNL     1       5.145   0.178   2.482  1.00  0.00    -0.252 OA
BRANCH   2   4
ATOM      4  O   UNL     1       3.271   1.449   2.449  1.00  0.00    -0.481 OA
ATOM      5  H   UNL     1       2.419   1.182   1.947  1.00  0.00     0.296 HD
ENDBRANCH   2   4
ENDBRANCH   1   2
BRANCH   1   6
ATOM      6  C   UNL     1       6.544   1.718   0.783  1.00  0.00     0.047 C 
BRANCH   6   7
ATOM      7  C   UNL     1       7.132   0.974  -0.329  1.00  0.00    -0.047 A 
ATOM      8  C   UNL     1       6.391   0.048  -1.026  1.00  0.00     0.004 A 
ATOM      9  C   UNL     1       8.443   1.209  -0.676  1.00  0.00     0.004 A 
ATOM     10  C   UNL     1       7.018  -0.626  -2.077  1.00  0.00     0.000 A 
ATOM     11  C   UNL     1       9.061   0.542  -1.714  1.00  0.00     0.000 A 
ATOM     12  C   UNL     1       8.326  -0.387  -2.418  1.00  0.00     0.000 A 
ENDBRANCH   6   7
ENDBRANCH   1   6
TORSDOF 4
ENDMDL
MODEL 4
REMARK VINA RESULT:      -6.8      3.842      4.996
REMARK SMILES O=C(O)CCc1ccccc1
REMARK SMILES IDX 4 1 2 2 1 3 3 4 5 6 6 7 7 8 11 9 8 10 10 11 9 12
REMARK H PARENT 3 5
REMARK Flexibility Score: inf
ROOT
ATOM      1  C   UNL     1       5.453   2.908  -0.002  1.00  0.00     0.127 C 
ENDROOT
BRANCH   1   2
ATOM      2  C   UNL     1       6.250   3.864   0.803  1.00  0.00     0.303 C 
ATOM      3  O   UNL     1       6.921   4.774   0.255  1.00  0.00    -0.252 OA
BRANCH   2   4
ATOM      4  O   UNL     1       6.278   3.779   2.185  1.00  0.00    -0.481 OA
ATOM      5  H   UNL     1       7.168   3.602   2.659  1.00  0.00     0.296 HD
ENDBRANCH   2   4
ENDBRANCH   1   2
BRANCH   1   6
ATOM      6  C   UNL     1       4.923   1.849   0.916  1.00  0.00     0.047 C 
BRANCH   6   7
ATOM      7  C   UNL     1       5.713   0.619   0.923  1.00  0.00    -0.047 A 
ATOM      8  C   UNL     1       6.389   0.211  -0.204  1.00  0.00     0.004 A 
ATOM      9  C   UNL     1       5.776  -0.132   2.074  1.00  0.00     0.004 A 
ATOM     10  C   UNL     1       7.125  -0.974  -0.125  1.00  0.00     0.000 A 
ATOM     11  C   UNL     1       6.504  -1.303   2.150  1.00  0.00     0.000 A 
ATOM     12  C   UNL     1       7.184  -1.719   1.026  1.00  0.00     0.000 A 
ENDBRANCH   6   7
ENDBRANCH   1   6
TORSDOF 4
ENDMDL
MODEL 5
REMARK VINA RESULT:      -6.6      1.919      2.624
REMARK SMILES O=C(O)CCc1ccccc1
REMARK SMILES IDX 4 1 2 2 1 3 3 4 5 6 6 7 7 8 11 9 8 10 10 11 9 12
REMARK H PARENT 3 5
REMARK Flexibility Score: inf
ROOT
ATOM      1  C   UNL     1       8.241   0.230  -2.183  1.00  0.00     0.127 C 
ENDROOT
BRANCH   1   2
ATOM      2  C   UNL     1       9.371   0.357  -1.233  1.00  0.00     0.303 C 
ATOM      3  O   UNL     1       9.466  -0.393  -0.230  1.00  0.00    -0.252 OA
BRANCH   2   4
ATOM      4  O   UNL     1      10.357   1.311  -1.427  1.00  0.00    -0.481 OA
ATOM      5  H   UNL     1      10.517   2.020  -0.705  1.00  0.00     0.296 HD
ENDBRANCH   2   4
ENDBRANCH   1   2
BRANCH   1   6
ATOM      6  C   UNL     1       7.151  -0.551  -1.515  1.00  0.00     0.047 C 
BRANCH   6   7
ATOM      7  C   UNL     1       6.360   0.227  -0.563  1.00  0.00    -0.047 A 
ATOM      8  C   UNL     1       5.819   1.440  -0.924  1.00  0.00     0.004 A 
ATOM      9  C   UNL     1       6.157  -0.268   0.704  1.00  0.00     0.004 A 
ATOM     10  C   UNL     1       5.074   2.128   0.036  1.00  0.00     0.000 A 
ATOM     11  C   UNL     1       5.421   0.414   1.652  1.00  0.00     0.000 A 
ATOM     12  C   UNL     1       4.876   1.630   1.299  1.00  0.00     0.000 A 
ENDBRANCH   6   7
ENDBRANCH   1   6
TORSDOF 4
ENDMDL
