@<TRIPOS>MOLECULE
/home/cewinharhar/GITHUB/reincatalyze/data/processed/docking_pred/2023_Apr_20-15:07/2037f81c995398ea407fbfc0a5ecaefc5001139a_ligand_2.pdbqt
 12 12 0 0 0
SMALL
GASTEIGER

@<TRIPOS>ATOM
      1  C          5.0480    1.6920    0.6810 C.3     1  UNL1        0.1270
      2  C          4.5970    1.0210    1.9230 C.2     1  UNL1        0.3030
      3  O          5.3130    0.1620    2.4950 O.2     1  UNL1       -0.2520
      4  O          3.3680    1.3230    2.4870 O.3     1  UNL1       -0.4810
      5  H          2.9400    2.2340    2.2980 H       1  UNL1        0.2960
      6  C          6.5440    1.7620    0.7010 C.3     1  UNL1        0.0470
      7  C          7.1890    1.0060   -0.3720 C.2     1  UNL1       -0.0470
      8  C          8.5170    1.2010   -0.6700 C.2     1  UNL1        0.0040
      9  C          6.4500    0.0900   -1.0850 C.2     1  UNL1        0.0040
     10  C          9.0670    0.4430   -1.7060 C.2     1  UNL1        0.0000
     11  C          6.9950   -0.6570   -2.1100 C.2     1  UNL1        0.0000
     12  C          8.3260   -0.4680   -2.4150 C.2     1  UNL1        0.0000
@<TRIPOS>BOND
     1    12    11    2
     2    12    10    1
     3    11     9    1
     4    10     8    2
     5     9     7    2
     6     8     7    1
     7     7     6    1
     8     1     6    1
     9     1     2    1
    10     2     4    1
    11     2     3    2
    12     5     4    1
