@<TRIPOS>MOLECULE
/home/cewinharhar/GITHUB/reincatalyze/data/processed/docking_pred/2023_Apr_20-15:07/2037f81c995398ea407fbfc0a5ecaefc5001139a_ligand_2.pdbqt
 12 12 0 0 0
SMALL
GASTEIGER

@<TRIPOS>ATOM
      1  C          8.3130   -0.0410   -2.1220 C.3     1  UNL1        0.1270
      2  C          9.4030    0.2880   -1.1730 C.2     1  UNL1        0.3030
      3  O          9.5490   -0.3530   -0.1030 O.2     1  UNL1       -0.2520
      4  O         10.2930    1.3140   -1.4430 O.3     1  UNL1       -0.4810
      5  H          9.9380    2.2670   -1.5600 H       1  UNL1        0.2960
      6  C          7.2320   -0.7540   -1.3690 C.3     1  UNL1        0.0470
      7  C          6.4300    0.1180   -0.5120 C.2     1  UNL1       -0.0470
      8  C          6.1740   -0.2230    0.7960 C.2     1  UNL1        0.0040
      9  C          5.9300    1.2910   -1.0280 C.2     1  UNL1        0.0040
     10  C          5.4010    0.6570    1.5560 C.2     1  UNL1        0.0000
     11  C          5.1660    2.1600   -0.2760 C.2     1  UNL1        0.0000
     12  C          4.9050    1.8260    1.0360 C.2     1  UNL1        0.0000
@<TRIPOS>BOND
     1     1     6    1
     2     1     2    1
     3     5     4    1
     4     4     2    1
     5     6     7    1
     6     2     3    2
     7     9     7    2
     8     9    11    1
     9     7     8    1
    10    11    12    2
    11     8    10    2
    12    12    10    1
