MODEL 1
REMARK VINA RESULT:      -7.3      0.000      0.000
REMARK SMILES O=C(O)CCc1ccccc1
REMARK SMILES IDX 4 1 2 2 1 3 3 4 5 6 6 7 7 8 11 9 8 10 10 11 9 12
REMARK H PARENT 3 5
REMARK Flexibility Score: inf
ROOT
ATOM      1  C   UNL     1       8.444  -0.660  -2.090  1.00  0.00     0.127 C 
ENDROOT
BRANCH   1   2
ATOM      2  C   UNL     1       8.466  -1.906  -2.891  1.00  0.00     0.303 C 
ATOM      3  O   UNL     1       9.538  -2.524  -3.104  1.00  0.00    -0.252 OA
BRANCH   2   4
ATOM      4  O   UNL     1       7.299  -2.425  -3.428  1.00  0.00    -0.481 OA
ATOM      5  H   UNL     1       6.535  -1.790  -3.675  1.00  0.00     0.296 HD
ENDBRANCH   2   4
ENDBRANCH   1   2
BRANCH   1   6
ATOM      6  C   UNL     1       7.042  -0.132  -2.078  1.00  0.00     0.047 C 
BRANCH   6   7
ATOM      7  C   UNL     1       6.483   0.042  -0.739  1.00  0.00    -0.047 A 
ATOM      8  C   UNL     1       5.852   1.212  -0.386  1.00  0.00     0.004 A 
ATOM      9  C   UNL     1       6.593  -0.982   0.173  1.00  0.00     0.004 A 
ATOM     10  C   UNL     1       5.341   1.309   0.910  1.00  0.00     0.000 A 
ATOM     11  C   UNL     1       6.088  -0.885   1.455  1.00  0.00     0.000 A 
ATOM     12  C   UNL     1       5.455   0.284   1.815  1.00  0.00     0.000 A 
ENDBRANCH   6   7
ENDBRANCH   1   6
TORSDOF 4
ENDMDL
MODEL 2
REMARK VINA RESULT:      -7.2      0.121      1.732
REMARK SMILES O=C(O)CCc1ccccc1
REMARK SMILES IDX 4 1 2 2 1 3 3 4 5 6 6 7 7 8 11 9 8 10 10 11 9 12
REMARK H PARENT 3 5
REMARK Flexibility Score: inf
ROOT
ATOM      1  C   UNL     1       8.411  -0.590  -2.177  1.00  0.00     0.127 C 
ENDROOT
BRANCH   1   2
ATOM      2  C   UNL     1       8.390  -1.878  -2.910  1.00  0.00     0.303 C 
ATOM      3  O   UNL     1       7.307  -2.427  -3.229  1.00  0.00    -0.252 OA
BRANCH   2   4
ATOM      4  O   UNL     1       9.569  -2.514  -3.262  1.00  0.00    -0.481 OA
ATOM      5  H   UNL     1       9.613  -3.037  -4.141  1.00  0.00     0.296 HD
ENDBRANCH   2   4
ENDBRANCH   1   2
BRANCH   1   6
ATOM      6  C   UNL     1       7.013  -0.052  -2.130  1.00  0.00     0.047 C 
BRANCH   6   7
ATOM      7  C   UNL     1       6.471   0.075  -0.778  1.00  0.00    -0.047 A 
ATOM      8  C   UNL     1       6.582  -0.958   0.124  1.00  0.00     0.004 A 
ATOM      9  C   UNL     1       5.845   1.244  -0.413  1.00  0.00     0.004 A 
ATOM     10  C   UNL     1       6.042  -0.767   1.398  1.00  0.00     0.000 A 
ATOM     11  C   UNL     1       5.311   1.431   0.846  1.00  0.00     0.000 A 
ATOM     12  C   UNL     1       5.418   0.402   1.756  1.00  0.00     0.000 A 
ENDBRANCH   6   7
ENDBRANCH   1   6
TORSDOF 4
ENDMDL
MODEL 3
REMARK VINA RESULT:      -7.2      0.675      1.622
REMARK SMILES O=C(O)CCc1ccccc1
REMARK SMILES IDX 4 1 2 2 1 3 3 4 5 6 6 7 7 8 11 9 8 10 10 11 9 12
REMARK H PARENT 3 5
REMARK Flexibility Score: inf
ROOT
ATOM      1  C   UNL     1       8.332  -1.002  -1.719  1.00  0.00     0.127 C 
ENDROOT
BRANCH   1   2
ATOM      2  C   UNL     1       8.460  -2.017  -2.791  1.00  0.00     0.303 C 
ATOM      3  O   UNL     1       9.582  -2.469  -3.129  1.00  0.00    -0.252 OA
BRANCH   2   4
ATOM      4  O   UNL     1       7.340  -2.496  -3.452  1.00  0.00    -0.481 OA
ATOM      5  H   UNL     1       6.432  -2.472  -2.981  1.00  0.00     0.296 HD
ENDBRANCH   2   4
ENDBRANCH   1   2
BRANCH   1   6
ATOM      6  C   UNL     1       7.273  -1.458  -0.762  1.00  0.00     0.047 C 
BRANCH   6   7
ATOM      7  C   UNL     1       6.514  -0.369  -0.151  1.00  0.00    -0.047 A 
ATOM      8  C   UNL     1       6.108  -0.444   1.161  1.00  0.00     0.004 A 
ATOM      9  C   UNL     1       6.210   0.742  -0.903  1.00  0.00     0.004 A 
ATOM     10  C   UNL     1       5.387   0.634   1.680  1.00  0.00     0.000 A 
ATOM     11  C   UNL     1       5.497   1.807  -0.389  1.00  0.00     0.000 A 
ATOM     12  C   UNL     1       5.085   1.739   0.924  1.00  0.00     0.000 A 
ENDBRANCH   6   7
ENDBRANCH   1   6
TORSDOF 4
ENDMDL
MODEL 4
REMARK VINA RESULT:      -6.7      3.342      5.020
REMARK SMILES O=C(O)CCc1ccccc1
REMARK SMILES IDX 4 1 2 2 1 3 3 4 5 6 6 7 7 8 11 9 8 10 10 11 9 12
REMARK H PARENT 3 5
REMARK Flexibility Score: inf
ROOT
ATOM      1  C   UNL     1       5.048   1.692   0.681  1.00  0.00     0.127 C 
ENDROOT
BRANCH   1   2
ATOM      2  C   UNL     1       4.597   1.021   1.923  1.00  0.00     0.303 C 
ATOM      3  O   UNL     1       5.313   0.162   2.495  1.00  0.00    -0.252 OA
BRANCH   2   4
ATOM      4  O   UNL     1       3.368   1.323   2.487  1.00  0.00    -0.481 OA
ATOM      5  H   UNL     1       2.940   2.234   2.298  1.00  0.00     0.296 HD
ENDBRANCH   2   4
ENDBRANCH   1   2
BRANCH   1   6
ATOM      6  C   UNL     1       6.544   1.762   0.701  1.00  0.00     0.047 C 
BRANCH   6   7
ATOM      7  C   UNL     1       7.189   1.006  -0.372  1.00  0.00    -0.047 A 
ATOM      8  C   UNL     1       8.517   1.201  -0.670  1.00  0.00     0.004 A 
ATOM      9  C   UNL     1       6.450   0.090  -1.085  1.00  0.00     0.004 A 
ATOM     10  C   UNL     1       9.067   0.443  -1.706  1.00  0.00     0.000 A 
ATOM     11  C   UNL     1       6.995  -0.657  -2.110  1.00  0.00     0.000 A 
ATOM     12  C   UNL     1       8.326  -0.468  -2.415  1.00  0.00     0.000 A 
ENDBRANCH   6   7
ENDBRANCH   1   6
TORSDOF 4
ENDMDL
MODEL 5
REMARK VINA RESULT:      -6.6      1.971      2.672
REMARK SMILES O=C(O)CCc1ccccc1
REMARK SMILES IDX 4 1 2 2 1 3 3 4 5 6 6 7 7 8 11 9 8 10 10 11 9 12
REMARK H PARENT 3 5
REMARK Flexibility Score: inf
ROOT
ATOM      1  C   UNL     1       8.313  -0.041  -2.122  1.00  0.00     0.127 C 
ENDROOT
BRANCH   1   2
ATOM      2  C   UNL     1       9.403   0.288  -1.173  1.00  0.00     0.303 C 
ATOM      3  O   UNL     1       9.549  -0.353  -0.103  1.00  0.00    -0.252 OA
BRANCH   2   4
ATOM      4  O   UNL     1      10.293   1.314  -1.443  1.00  0.00    -0.481 OA
ATOM      5  H   UNL     1       9.938   2.267  -1.560  1.00  0.00     0.296 HD
ENDBRANCH   2   4
ENDBRANCH   1   2
BRANCH   1   6
ATOM      6  C   UNL     1       7.232  -0.754  -1.369  1.00  0.00     0.047 C 
BRANCH   6   7
ATOM      7  C   UNL     1       6.430   0.118  -0.512  1.00  0.00    -0.047 A 
ATOM      8  C   UNL     1       6.174  -0.223   0.796  1.00  0.00     0.004 A 
ATOM      9  C   UNL     1       5.930   1.291  -1.028  1.00  0.00     0.004 A 
ATOM     10  C   UNL     1       5.401   0.657   1.556  1.00  0.00     0.000 A 
ATOM     11  C   UNL     1       5.166   2.160  -0.276  1.00  0.00     0.000 A 
ATOM     12  C   UNL     1       4.905   1.826   1.036  1.00  0.00     0.000 A 
ENDBRANCH   6   7
ENDBRANCH   1   6
TORSDOF 4
ENDMDL
