@<TRIPOS>MOLECULE
/home/cewinharhar/GITHUB/reincatalyze/data/processed/docking_pred/2023_Apr_20-15:07/2037f81c995398ea407fbfc0a5ecaefc5001139a_ligand_2.pdbqt
 12 12 0 0 0
SMALL
GASTEIGER

@<TRIPOS>ATOM
      1  C          8.3320   -1.0020   -1.7190 C.3     1  UNL1        0.1270
      2  C          8.4600   -2.0170   -2.7910 C.2     1  UNL1        0.3030
      3  O          9.5820   -2.4690   -3.1290 O.2     1  UNL1       -0.2520
      4  O          7.3400   -2.4960   -3.4520 O.3     1  UNL1       -0.4810
      5  H          6.4320   -2.4720   -2.9810 H       1  UNL1        0.2960
      6  C          7.2730   -1.4580   -0.7620 C.3     1  UNL1        0.0470
      7  C          6.5140   -0.3690   -0.1510 C.2     1  UNL1       -0.0470
      8  C          6.1080   -0.4440    1.1610 C.2     1  UNL1        0.0040
      9  C          6.2100    0.7420   -0.9030 C.2     1  UNL1        0.0040
     10  C          5.3870    0.6340    1.6800 C.2     1  UNL1        0.0000
     11  C          5.4970    1.8070   -0.3890 C.2     1  UNL1        0.0000
     12  C          5.0850    1.7390    0.9240 C.2     1  UNL1        0.0000
@<TRIPOS>BOND
     1     4     5    1
     2     4     2    1
     3     3     2    2
     4     2     1    1
     5     1     6    1
     6     9    11    1
     7     9     7    2
     8     6     7    1
     9    11    12    2
    10     7     8    1
    11    12    10    1
    12     8    10    2
