@<TRIPOS>MOLECULE
/home/cewinharhar/GITHUB/reincatalyze/data/processed/docking_pred/2023_Apr_20-15:07/2037f81c995398ea407fbfc0a5ecaefc5001139a_ligand_2.pdbqt
 12 12 0 0 0
SMALL
GASTEIGER

@<TRIPOS>ATOM
      1  C          8.4110   -0.5900   -2.1770 C.3     1  UNL1        0.1270
      2  C          8.3900   -1.8780   -2.9100 C.2     1  UNL1        0.3030
      3  O          7.3070   -2.4270   -3.2290 O.2     1  UNL1       -0.2520
      4  O          9.5690   -2.5140   -3.2620 O.3     1  UNL1       -0.4810
      5  H          9.6130   -3.0370   -4.1410 H       1  UNL1        0.2960
      6  C          7.0130   -0.0520   -2.1300 C.3     1  UNL1        0.0470
      7  C          6.4710    0.0750   -0.7780 C.2     1  UNL1       -0.0470
      8  C          6.5820   -0.9580    0.1240 C.2     1  UNL1        0.0040
      9  C          5.8450    1.2440   -0.4130 C.2     1  UNL1        0.0040
     10  C          6.0420   -0.7670    1.3980 C.2     1  UNL1        0.0000
     11  C          5.3110    1.4310    0.8460 C.2     1  UNL1        0.0000
     12  C          5.4180    0.4020    1.7560 C.2     1  UNL1        0.0000
@<TRIPOS>BOND
     1     5     4    1
     2     4     2    1
     3     3     2    2
     4     2     1    1
     5     1     6    1
     6     6     7    1
     7     7     9    2
     8     7     8    1
     9     9    11    1
    10     8    10    2
    11    11    12    2
    12    10    12    1
