@<TRIPOS>MOLECULE
/home/cewinharhar/GITHUB/reincatalyze/data/processed/docking_pred/2023_Apr_20-15:07/21195065f8807259401ec3420f3b6dd683f2acc0_ligand_2.pdbqt
 12 12 0 0 0
SMALL
GASTEIGER

@<TRIPOS>ATOM
      1  C          8.4720   -0.6530   -2.0720 C.3     1  UNL1        0.1270
      2  C          8.4030   -1.8980   -2.8730 C.2     1  UNL1        0.3030
      3  O          7.3000   -2.3980   -3.2060 O.2     1  UNL1       -0.2520
      4  O          9.5590   -2.5470   -3.2780 O.3     1  UNL1       -0.4810
      5  H          9.5540   -3.0810   -4.1520 H       1  UNL1        0.2960
      6  C          7.1140   -0.0210   -2.0680 C.3     1  UNL1        0.0470
      7  C          6.5180    0.1000   -0.7380 C.2     1  UNL1       -0.0470
      8  C          6.6430   -0.9130    0.1830 C.2     1  UNL1        0.0040
      9  C          5.8290    1.2460   -0.4130 C.2     1  UNL1        0.0040
     10  C          6.0500   -0.7290    1.4340 C.2     1  UNL1        0.0000
     11  C          5.2430    1.4260    0.8240 C.2     1  UNL1        0.0000
     12  C          5.3620    0.4150    1.7530 C.2     1  UNL1        0.0000
@<TRIPOS>BOND
     1     5     4    1
     2     4     2    1
     3     3     2    2
     4     2     1    1
     5     1     6    1
     6     6     7    1
     7     7     9    2
     8     7     8    1
     9     9    11    1
    10     8    10    2
    11    11    12    2
    12    10    12    1
