@<TRIPOS>MOLECULE
/home/cewinharhar/GITHUB/reincatalyze/data/processed/docking_pred/2023_Apr_20-15:07/21195065f8807259401ec3420f3b6dd683f2acc0_ligand_2.pdbqt
 12 12 0 0 0
SMALL
GASTEIGER

@<TRIPOS>ATOM
      1  C          7.9250   -2.2530    0.8530 C.3     1  UNL1        0.1270
      2  C          8.7600   -3.3710    0.3530 C.2     1  UNL1        0.3030
      3  O          9.6440   -3.8950    1.0740 O.2     1  UNL1       -0.2520
      4  O          8.5850   -3.8690   -0.9280 O.3     1  UNL1       -0.4810
      5  H          8.6220   -4.8810   -1.0810 H       1  UNL1        0.2960
      6  C          7.4760   -1.4380   -0.3220 C.3     1  UNL1        0.0470
      7  C          6.6100   -0.3150    0.0290 C.2     1  UNL1       -0.0470
      8  C          6.3350    0.6750   -0.8860 C.2     1  UNL1        0.0040
      9  C          6.0660   -0.2560    1.2920 C.2     1  UNL1        0.0040
     10  C          5.4980    1.7180   -0.4810 C.2     1  UNL1        0.0000
     11  C          5.2390    0.7760    1.6900 C.2     1  UNL1        0.0000
     12  C          4.9590    1.7720    0.7790 C.2     1  UNL1        0.0000
@<TRIPOS>BOND
     1     5     4    1
     2     4     2    1
     3     8    10    1
     4     8     7    2
     5    10    12    2
     6     6     7    1
     7     6     1    1
     8     7     9    1
     9     2     1    1
    10     2     3    2
    11    12    11    1
    12     9    11    2
