@<TRIPOS>MOLECULE
/home/cewinharhar/GITHUB/reincatalyze/data/processed/docking_pred/2023_Apr_20-15:07/21195065f8807259401ec3420f3b6dd683f2acc0_ligand_2.pdbqt
 12 12 0 0 0
SMALL
GASTEIGER

@<TRIPOS>ATOM
      1  C          8.4110   -0.6580   -2.0650 C.3     1  UNL1        0.1270
      2  C          8.3790   -1.8980   -2.8760 C.2     1  UNL1        0.3030
      3  O          7.2910   -2.4110   -3.2380 O.2     1  UNL1       -0.2520
      4  O          9.5530   -2.5260   -3.2580 O.3     1  UNL1       -0.4810
      5  H          9.9200   -3.2930   -2.6880 H       1  UNL1        0.2960
      6  C          7.0380   -0.0570   -2.0700 C.3     1  UNL1        0.0470
      7  C          6.4620    0.1190   -0.7380 C.2     1  UNL1       -0.0470
      8  C          5.8070    1.2810   -0.4020 C.2     1  UNL1        0.0040
      9  C          6.5780   -0.8970    0.1840 C.2     1  UNL1        0.0040
     10  C          5.2810    1.3800    0.8880 C.2     1  UNL1        0.0000
     11  C          6.0570   -0.7980    1.4580 C.2     1  UNL1        0.0000
     12  C          5.4010    0.3640    1.8030 C.2     1  UNL1        0.0000
@<TRIPOS>BOND
     1     4     2    1
     2     4     5    1
     3     3     2    2
     4     2     1    1
     5     6     1    1
     6     6     7    1
     7     7     8    2
     8     7     9    1
     9     8    10    1
    10     9    11    2
    11    10    12    2
    12    11    12    1
