@<TRIPOS>MOLECULE
/home/cewinharhar/GITHUB/reincatalyze/data/processed/docking_pred/2023_Apr_20-15:07/21195065f8807259401ec3420f3b6dd683f2acc0_ligand_2.pdbqt
 12 12 0 0 0
SMALL
GASTEIGER

@<TRIPOS>ATOM
      1  C          8.1960    0.3770   -2.0580 C.3     1  UNL1        0.1270
      2  C          9.3810    0.3920   -1.1690 C.2     1  UNL1        0.3030
      3  O          9.4700   -0.3900   -0.1900 O.2     1  UNL1       -0.2520
      4  O         10.4260    1.2730   -1.3940 O.3     1  UNL1       -0.4810
      5  H         11.1280    1.0470   -2.1040 H       1  UNL1        0.2960
      6  C          7.1520   -0.5000   -1.4370 C.3     1  UNL1        0.0470
      7  C          6.3570    0.1620   -0.4040 C.2     1  UNL1       -0.0470
      8  C          5.7880    1.3930   -0.6350 C.2     1  UNL1        0.0040
      9  C          6.1790   -0.4630    0.8090 C.2     1  UNL1        0.0040
     10  C          5.0410    1.9650    0.3970 C.2     1  UNL1        0.0000
     11  C          5.4400    0.1050    1.8280 C.2     1  UNL1        0.0000
     12  C          4.8680    1.3380    1.6050 C.2     1  UNL1        0.0000
@<TRIPOS>BOND
     1     5     4    1
     2     1     6    1
     3     1     2    1
     4     6     7    1
     5     4     2    1
     6     2     3    2
     7     8     7    2
     8     8    10    1
     9     7     9    1
    10    10    12    2
    11     9    11    2
    12    12    11    1
