MODEL 1
REMARK VINA RESULT:      -7.3      0.000      0.000
REMARK SMILES O=C(O)CCc1ccccc1
REMARK SMILES IDX 4 1 2 2 1 3 3 4 5 6 6 7 7 8 11 9 8 10 10 11 9 12
REMARK H PARENT 3 5
REMARK Flexibility Score: inf
ROOT
ATOM      1  C   UNL     1       8.411  -0.658  -2.065  1.00  0.00     0.127 C 
ENDROOT
BRANCH   1   2
ATOM      2  C   UNL     1       8.379  -1.898  -2.876  1.00  0.00     0.303 C 
ATOM      3  O   UNL     1       7.291  -2.411  -3.238  1.00  0.00    -0.252 OA
BRANCH   2   4
ATOM      4  O   UNL     1       9.553  -2.526  -3.258  1.00  0.00    -0.481 OA
ATOM      5  H   UNL     1       9.920  -3.293  -2.688  1.00  0.00     0.296 HD
ENDBRANCH   2   4
ENDBRANCH   1   2
BRANCH   1   6
ATOM      6  C   UNL     1       7.038  -0.057  -2.070  1.00  0.00     0.047 C 
BRANCH   6   7
ATOM      7  C   UNL     1       6.462   0.119  -0.738  1.00  0.00    -0.047 A 
ATOM      8  C   UNL     1       5.807   1.281  -0.402  1.00  0.00     0.004 A 
ATOM      9  C   UNL     1       6.578  -0.897   0.184  1.00  0.00     0.004 A 
ATOM     10  C   UNL     1       5.281   1.380   0.888  1.00  0.00     0.000 A 
ATOM     11  C   UNL     1       6.057  -0.798   1.458  1.00  0.00     0.000 A 
ATOM     12  C   UNL     1       5.401   0.364   1.803  1.00  0.00     0.000 A 
ENDBRANCH   6   7
ENDBRANCH   1   6
TORSDOF 4
ENDMDL
MODEL 2
REMARK VINA RESULT:      -7.2      0.063      1.438
REMARK SMILES O=C(O)CCc1ccccc1
REMARK SMILES IDX 4 1 2 2 1 3 3 4 5 6 6 7 7 8 11 9 8 10 10 11 9 12
REMARK H PARENT 3 5
REMARK Flexibility Score: inf
ROOT
ATOM      1  C   UNL     1       8.472  -0.653  -2.072  1.00  0.00     0.127 C 
ENDROOT
BRANCH   1   2
ATOM      2  C   UNL     1       8.403  -1.898  -2.873  1.00  0.00     0.303 C 
ATOM      3  O   UNL     1       7.300  -2.398  -3.206  1.00  0.00    -0.252 OA
BRANCH   2   4
ATOM      4  O   UNL     1       9.559  -2.547  -3.278  1.00  0.00    -0.481 OA
ATOM      5  H   UNL     1       9.554  -3.081  -4.152  1.00  0.00     0.296 HD
ENDBRANCH   2   4
ENDBRANCH   1   2
BRANCH   1   6
ATOM      6  C   UNL     1       7.114  -0.021  -2.068  1.00  0.00     0.047 C 
BRANCH   6   7
ATOM      7  C   UNL     1       6.518   0.100  -0.738  1.00  0.00    -0.047 A 
ATOM      8  C   UNL     1       6.643  -0.913   0.183  1.00  0.00     0.004 A 
ATOM      9  C   UNL     1       5.829   1.246  -0.413  1.00  0.00     0.004 A 
ATOM     10  C   UNL     1       6.050  -0.729   1.434  1.00  0.00     0.000 A 
ATOM     11  C   UNL     1       5.243   1.426   0.824  1.00  0.00     0.000 A 
ATOM     12  C   UNL     1       5.362   0.415   1.753  1.00  0.00     0.000 A 
ENDBRANCH   6   7
ENDBRANCH   1   6
TORSDOF 4
ENDMDL
MODEL 3
REMARK VINA RESULT:      -6.7      3.306      5.142
REMARK SMILES O=C(O)CCc1ccccc1
REMARK SMILES IDX 4 1 2 2 1 3 3 4 5 6 6 7 7 8 11 9 8 10 10 11 9 12
REMARK H PARENT 3 5
REMARK Flexibility Score: inf
ROOT
ATOM      1  C   UNL     1       4.977   1.837   0.656  1.00  0.00     0.127 C 
ENDROOT
BRANCH   1   2
ATOM      2  C   UNL     1       4.494   1.149   1.877  1.00  0.00     0.303 C 
ATOM      3  O   UNL     1       5.179   0.258   2.436  1.00  0.00    -0.252 OA
BRANCH   2   4
ATOM      4  O   UNL     1       3.268   1.472   2.436  1.00  0.00    -0.481 OA
ATOM      5  H   UNL     1       2.948   2.444   2.415  1.00  0.00     0.296 HD
ENDBRANCH   2   4
ENDBRANCH   1   2
BRANCH   1   6
ATOM      6  C   UNL     1       6.474   1.860   0.691  1.00  0.00     0.047 C 
BRANCH   6   7
ATOM      7  C   UNL     1       7.106   1.095  -0.383  1.00  0.00    -0.047 A 
ATOM      8  C   UNL     1       6.360   0.264  -1.187  1.00  0.00     0.004 A 
ATOM      9  C   UNL     1       8.461   1.216  -0.586  1.00  0.00     0.004 A 
ATOM     10  C   UNL     1       7.029  -0.436  -2.193  1.00  0.00     0.000 A 
ATOM     11  C   UNL     1       9.121   0.523  -1.582  1.00  0.00     0.000 A 
ATOM     12  C   UNL     1       8.382  -0.312  -2.391  1.00  0.00     0.000 A 
ENDBRANCH   6   7
ENDBRANCH   1   6
TORSDOF 4
ENDMDL
MODEL 4
REMARK VINA RESULT:      -6.6      1.943      2.171
REMARK SMILES O=C(O)CCc1ccccc1
REMARK SMILES IDX 4 1 2 2 1 3 3 4 5 6 6 7 7 8 11 9 8 10 10 11 9 12
REMARK H PARENT 3 5
REMARK Flexibility Score: inf
ROOT
ATOM      1  C   UNL     1       8.196   0.377  -2.058  1.00  0.00     0.127 C 
ENDROOT
BRANCH   1   2
ATOM      2  C   UNL     1       9.381   0.392  -1.169  1.00  0.00     0.303 C 
ATOM      3  O   UNL     1       9.470  -0.390  -0.190  1.00  0.00    -0.252 OA
BRANCH   2   4
ATOM      4  O   UNL     1      10.426   1.273  -1.394  1.00  0.00    -0.481 OA
ATOM      5  H   UNL     1      11.128   1.047  -2.104  1.00  0.00     0.296 HD
ENDBRANCH   2   4
ENDBRANCH   1   2
BRANCH   1   6
ATOM      6  C   UNL     1       7.152  -0.500  -1.437  1.00  0.00     0.047 C 
BRANCH   6   7
ATOM      7  C   UNL     1       6.357   0.162  -0.404  1.00  0.00    -0.047 A 
ATOM      8  C   UNL     1       5.788   1.393  -0.635  1.00  0.00     0.004 A 
ATOM      9  C   UNL     1       6.179  -0.463   0.809  1.00  0.00     0.004 A 
ATOM     10  C   UNL     1       5.041   1.965   0.397  1.00  0.00     0.000 A 
ATOM     11  C   UNL     1       5.440   0.105   1.828  1.00  0.00     0.000 A 
ATOM     12  C   UNL     1       4.868   1.338   1.605  1.00  0.00     0.000 A 
ENDBRANCH   6   7
ENDBRANCH   1   6
TORSDOF 4
ENDMDL
MODEL 5
REMARK VINA RESULT:      -6.6      2.067      2.624
REMARK SMILES O=C(O)CCc1ccccc1
REMARK SMILES IDX 4 1 2 2 1 3 3 4 5 6 6 7 7 8 11 9 8 10 10 11 9 12
REMARK H PARENT 3 5
REMARK Flexibility Score: inf
ROOT
ATOM      1  C   UNL     1       7.925  -2.253   0.853  1.00  0.00     0.127 C 
ENDROOT
BRANCH   1   2
ATOM      2  C   UNL     1       8.760  -3.371   0.353  1.00  0.00     0.303 C 
ATOM      3  O   UNL     1       9.644  -3.895   1.074  1.00  0.00    -0.252 OA
BRANCH   2   4
ATOM      4  O   UNL     1       8.585  -3.869  -0.928  1.00  0.00    -0.481 OA
ATOM      5  H   UNL     1       8.622  -4.881  -1.081  1.00  0.00     0.296 HD
ENDBRANCH   2   4
ENDBRANCH   1   2
BRANCH   1   6
ATOM      6  C   UNL     1       7.476  -1.438  -0.322  1.00  0.00     0.047 C 
BRANCH   6   7
ATOM      7  C   UNL     1       6.610  -0.315   0.029  1.00  0.00    -0.047 A 
ATOM      8  C   UNL     1       6.335   0.675  -0.886  1.00  0.00     0.004 A 
ATOM      9  C   UNL     1       6.066  -0.256   1.292  1.00  0.00     0.004 A 
ATOM     10  C   UNL     1       5.498   1.718  -0.481  1.00  0.00     0.000 A 
ATOM     11  C   UNL     1       5.239   0.776   1.690  1.00  0.00     0.000 A 
ATOM     12  C   UNL     1       4.959   1.772   0.779  1.00  0.00     0.000 A 
ENDBRANCH   6   7
ENDBRANCH   1   6
TORSDOF 4
ENDMDL
