@<TRIPOS>MOLECULE
/home/cewinharhar/GITHUB/reincatalyze/data/processed/docking_pred/2023_Apr_20-15:07/21195065f8807259401ec3420f3b6dd683f2acc0_ligand_2.pdbqt
 12 12 0 0 0
SMALL
GASTEIGER

@<TRIPOS>ATOM
      1  C          4.9770    1.8370    0.6560 C.3     1  UNL1        0.1270
      2  C          4.4940    1.1490    1.8770 C.2     1  UNL1        0.3030
      3  O          5.1790    0.2580    2.4360 O.2     1  UNL1       -0.2520
      4  O          3.2680    1.4720    2.4360 O.3     1  UNL1       -0.4810
      5  H          2.9480    2.4440    2.4150 H       1  UNL1        0.2960
      6  C          6.4740    1.8600    0.6910 C.3     1  UNL1        0.0470
      7  C          7.1060    1.0950   -0.3830 C.2     1  UNL1       -0.0470
      8  C          6.3600    0.2640   -1.1870 C.2     1  UNL1        0.0040
      9  C          8.4610    1.2160   -0.5860 C.2     1  UNL1        0.0040
     10  C          7.0290   -0.4360   -2.1930 C.2     1  UNL1        0.0000
     11  C          9.1210    0.5230   -1.5820 C.2     1  UNL1        0.0000
     12  C          8.3820   -0.3120   -2.3910 C.2     1  UNL1        0.0000
@<TRIPOS>BOND
     1    12    10    2
     2    12    11    1
     3    10     8    1
     4    11     9    2
     5     8     7    2
     6     9     7    1
     7     7     6    1
     8     1     6    1
     9     1     2    1
    10     2     3    2
    11     2     4    1
    12     5     4    1
