@<TRIPOS>MOLECULE
/home/cewinharhar/GITHUB/reincatalyze/data/processed/docking_pred/2023_Apr_20-15:07/225d7738cc918e3754e3779366d54ccb252183f1_ligand_2.pdbqt
 12 12 0 0 0
SMALL
GASTEIGER

@<TRIPOS>ATOM
      1  C          8.3850    0.2440   -1.9930 C.3     1  UNL1        0.1270
      2  C          9.4930    0.1780   -1.0110 C.2     1  UNL1        0.3030
      3  O          9.4110   -0.5410    0.0150 O.2     1  UNL1       -0.2520
      4  O         10.6530    0.9100   -1.2000 O.3     1  UNL1       -0.4810
      5  H         10.6800    1.6280   -1.9290 H       1  UNL1        0.2960
      6  C          7.2130   -0.5010   -1.4310 C.3     1  UNL1        0.0470
      7  C          6.3760    0.2950   -0.5350 C.2     1  UNL1       -0.0470
      8  C          5.8370    1.4890   -0.9520 C.2     1  UNL1        0.0040
      9  C          6.1290   -0.1650    0.7380 C.2     1  UNL1        0.0040
     10  C          5.0460    2.1970   -0.0430 C.2     1  UNL1        0.0000
     11  C          5.3480    0.5360    1.6360 C.2     1  UNL1        0.0000
     12  C          4.8040    1.7340    1.2260 C.2     1  UNL1        0.0000
@<TRIPOS>BOND
     1     1     6    1
     2     1     2    1
     3     5     4    1
     4     6     7    1
     5     4     2    1
     6     2     3    2
     7     8     7    2
     8     8    10    1
     9     7     9    1
    10    10    12    2
    11     9    11    2
    12    12    11    1
