@<TRIPOS>MOLECULE
/home/cewinharhar/GITHUB/reincatalyze/data/processed/docking_pred/2023_Apr_20-15:07/225d7738cc918e3754e3779366d54ccb252183f1_ligand_2.pdbqt
 12 12 0 0 0
SMALL
GASTEIGER

@<TRIPOS>ATOM
      1  C          5.3740    2.9360    0.0240 C.3     1  UNL1        0.1270
      2  C          6.2020    3.8850    0.8040 C.2     1  UNL1        0.3030
      3  O          6.8900    4.7690    0.2360 O.2     1  UNL1       -0.2520
      4  O          6.2400    3.8230    2.1880 O.3     1  UNL1       -0.4810
      5  H          5.7170    4.5120    2.7350 H       1  UNL1        0.2960
      6  C          4.9080    1.8510    0.9450 C.3     1  UNL1        0.0470
      7  C          5.7280    0.6420    0.9040 C.2     1  UNL1       -0.0470
      8  C          5.8890   -0.1380    2.0260 C.2     1  UNL1        0.0040
      9  C          6.3420    0.2860   -0.2750 C.2     1  UNL1        0.0040
     10  C          6.6860   -1.2800    1.9130 C.2     1  UNL1        0.0000
     11  C          7.1290   -0.8420   -0.3840 C.2     1  UNL1        0.0000
     12  C          7.2960   -1.6280    0.7350 C.2     1  UNL1        0.0000
@<TRIPOS>BOND
     1    11     9    1
     2    11    12    2
     3     9     7    2
     4     1     2    1
     5     1     6    1
     6     3     2    2
     7    12    10    1
     8     2     4    1
     9     7     6    1
    10     7     8    1
    11    10     8    2
    12     4     5    1
