@<TRIPOS>MOLECULE
/home/cewinharhar/GITHUB/reincatalyze/data/processed/docking_pred/2023_Apr_20-15:07/225d7738cc918e3754e3779366d54ccb252183f1_ligand_2.pdbqt
 12 12 0 0 0
SMALL
GASTEIGER

@<TRIPOS>ATOM
      1  C          8.4010   -0.5350   -2.2570 C.3     1  UNL1        0.1270
      2  C          8.4500   -1.8540   -2.9300 C.2     1  UNL1        0.3030
      3  O          9.5340   -2.4750   -3.0660 O.2     1  UNL1       -0.2520
      4  O          7.2980   -2.4400   -3.4290 O.3     1  UNL1       -0.4810
      5  H          6.9250   -2.1250   -4.3290 H       1  UNL1        0.2960
      6  C          6.9690   -0.1030   -2.1730 C.3     1  UNL1        0.0470
      7  C          6.4670    0.0310   -0.8060 C.2     1  UNL1       -0.0470
      8  C          6.6040   -0.9980    0.0970 C.2     1  UNL1        0.0040
      9  C          5.8560    1.2030   -0.4270 C.2     1  UNL1        0.0040
     10  C          6.1020   -0.8000    1.3860 C.2     1  UNL1        0.0000
     11  C          5.3600    1.3970    0.8470 C.2     1  UNL1        0.0000
     12  C          5.4920    0.3710    1.7580 C.2     1  UNL1        0.0000
@<TRIPOS>BOND
     1     5     4    1
     2     4     2    1
     3     3     2    2
     4     2     1    1
     5     1     6    1
     6     6     7    1
     7     7     9    2
     8     7     8    1
     9     9    11    1
    10     8    10    2
    11    11    12    2
    12    10    12    1
