@<TRIPOS>MOLECULE
/home/cewinharhar/GITHUB/reincatalyze/data/processed/docking_pred/2023_Apr_20-15:07/225d7738cc918e3754e3779366d54ccb252183f1_ligand_2.pdbqt
 12 12 0 0 0
SMALL
GASTEIGER

@<TRIPOS>ATOM
      1  C          5.0120    1.7630    0.6670 C.3     1  UNL1        0.1270
      2  C          4.5040    1.1190    1.9020 C.2     1  UNL1        0.3030
      3  O          5.1700    0.2370    2.4970 O.2     1  UNL1       -0.2520
      4  O          3.2750    1.4750    2.4330 O.3     1  UNL1       -0.4810
      5  H          2.5820    0.7460    2.6260 H       1  UNL1        0.2960
      6  C          6.5090    1.7860    0.7310 C.3     1  UNL1        0.0470
      7  C          7.1610    1.0430   -0.3460 C.2     1  UNL1       -0.0470
      8  C          8.4930    1.2400   -0.6300 C.2     1  UNL1        0.0040
      9  C          6.4280    0.1380   -1.0770 C.2     1  UNL1        0.0040
     10  C          9.0500    0.4950   -1.6710 C.2     1  UNL1        0.0000
     11  C          6.9800   -0.5980   -2.1060 C.2     1  UNL1        0.0000
     12  C          8.3130   -0.4060   -2.3980 C.2     1  UNL1        0.0000
@<TRIPOS>BOND
     1    12    11    2
     2    12    10    1
     3    11     9    1
     4    10     8    2
     5     9     7    2
     6     8     7    1
     7     7     6    1
     8     1     6    1
     9     1     2    1
    10     2     4    1
    11     2     3    2
    12     4     5    1
