MODEL 1
REMARK VINA RESULT:      -7.3      0.000      0.000
REMARK SMILES O=C(O)CCc1ccccc1
REMARK SMILES IDX 4 1 2 2 1 3 3 4 5 6 6 7 7 8 11 9 8 10 10 11 9 12
REMARK H PARENT 3 5
REMARK Flexibility Score: inf
ROOT
ATOM      1  C   UNL     1       8.427  -0.596  -2.182  1.00  0.00     0.127 C 
ENDROOT
BRANCH   1   2
ATOM      2  C   UNL     1       8.469  -1.890  -2.904  1.00  0.00     0.303 C 
ATOM      3  O   UNL     1       9.552  -2.496  -3.091  1.00  0.00    -0.252 OA
BRANCH   2   4
ATOM      4  O   UNL     1       7.308  -2.468  -3.394  1.00  0.00    -0.481 OA
ATOM      5  H   UNL     1       6.407  -2.204  -2.986  1.00  0.00     0.296 HD
ENDBRANCH   2   4
ENDBRANCH   1   2
BRANCH   1   6
ATOM      6  C   UNL     1       7.005  -0.124  -2.145  1.00  0.00     0.047 C 
BRANCH   6   7
ATOM      7  C   UNL     1       6.472   0.049  -0.795  1.00  0.00    -0.047 A 
ATOM      8  C   UNL     1       5.838   1.215  -0.433  1.00  0.00     0.004 A 
ATOM      9  C   UNL     1       6.609  -0.971   0.118  1.00  0.00     0.004 A 
ATOM     10  C   UNL     1       5.352   1.311   0.873  1.00  0.00     0.000 A 
ATOM     11  C   UNL     1       6.129  -0.875   1.408  1.00  0.00     0.000 A 
ATOM     12  C   UNL     1       5.493   0.290   1.779  1.00  0.00     0.000 A 
ENDBRANCH   6   7
ENDBRANCH   1   6
TORSDOF 4
ENDMDL
MODEL 2
REMARK VINA RESULT:      -7.3      0.062      1.438
REMARK SMILES O=C(O)CCc1ccccc1
REMARK SMILES IDX 4 1 2 2 1 3 3 4 5 6 6 7 7 8 11 9 8 10 10 11 9 12
REMARK H PARENT 3 5
REMARK Flexibility Score: inf
ROOT
ATOM      1  C   UNL     1       8.401  -0.535  -2.257  1.00  0.00     0.127 C 
ENDROOT
BRANCH   1   2
ATOM      2  C   UNL     1       8.450  -1.854  -2.930  1.00  0.00     0.303 C 
ATOM      3  O   UNL     1       9.534  -2.475  -3.066  1.00  0.00    -0.252 OA
BRANCH   2   4
ATOM      4  O   UNL     1       7.298  -2.440  -3.429  1.00  0.00    -0.481 OA
ATOM      5  H   UNL     1       6.925  -2.125  -4.329  1.00  0.00     0.296 HD
ENDBRANCH   2   4
ENDBRANCH   1   2
BRANCH   1   6
ATOM      6  C   UNL     1       6.969  -0.103  -2.173  1.00  0.00     0.047 C 
BRANCH   6   7
ATOM      7  C   UNL     1       6.467   0.031  -0.806  1.00  0.00    -0.047 A 
ATOM      8  C   UNL     1       6.604  -0.998   0.097  1.00  0.00     0.004 A 
ATOM      9  C   UNL     1       5.856   1.203  -0.427  1.00  0.00     0.004 A 
ATOM     10  C   UNL     1       6.102  -0.800   1.386  1.00  0.00     0.000 A 
ATOM     11  C   UNL     1       5.360   1.397   0.847  1.00  0.00     0.000 A 
ATOM     12  C   UNL     1       5.492   0.371   1.758  1.00  0.00     0.000 A 
ENDBRANCH   6   7
ENDBRANCH   1   6
TORSDOF 4
ENDMDL
MODEL 3
REMARK VINA RESULT:      -6.8      3.377      5.048
REMARK SMILES O=C(O)CCc1ccccc1
REMARK SMILES IDX 4 1 2 2 1 3 3 4 5 6 6 7 7 8 11 9 8 10 10 11 9 12
REMARK H PARENT 3 5
REMARK Flexibility Score: inf
ROOT
ATOM      1  C   UNL     1       5.012   1.763   0.667  1.00  0.00     0.127 C 
ENDROOT
BRANCH   1   2
ATOM      2  C   UNL     1       4.504   1.119   1.902  1.00  0.00     0.303 C 
ATOM      3  O   UNL     1       5.170   0.237   2.497  1.00  0.00    -0.252 OA
BRANCH   2   4
ATOM      4  O   UNL     1       3.275   1.475   2.433  1.00  0.00    -0.481 OA
ATOM      5  H   UNL     1       2.582   0.746   2.626  1.00  0.00     0.296 HD
ENDBRANCH   2   4
ENDBRANCH   1   2
BRANCH   1   6
ATOM      6  C   UNL     1       6.509   1.786   0.731  1.00  0.00     0.047 C 
BRANCH   6   7
ATOM      7  C   UNL     1       7.161   1.043  -0.346  1.00  0.00    -0.047 A 
ATOM      8  C   UNL     1       8.493   1.240  -0.630  1.00  0.00     0.004 A 
ATOM      9  C   UNL     1       6.428   0.138  -1.077  1.00  0.00     0.004 A 
ATOM     10  C   UNL     1       9.050   0.495  -1.671  1.00  0.00     0.000 A 
ATOM     11  C   UNL     1       6.980  -0.598  -2.106  1.00  0.00     0.000 A 
ATOM     12  C   UNL     1       8.313  -0.406  -2.398  1.00  0.00     0.000 A 
ENDBRANCH   6   7
ENDBRANCH   1   6
TORSDOF 4
ENDMDL
MODEL 4
REMARK VINA RESULT:      -6.7      3.792      4.998
REMARK SMILES O=C(O)CCc1ccccc1
REMARK SMILES IDX 4 1 2 2 1 3 3 4 5 6 6 7 7 8 11 9 8 10 10 11 9 12
REMARK H PARENT 3 5
REMARK Flexibility Score: inf
ROOT
ATOM      1  C   UNL     1       5.374   2.936   0.024  1.00  0.00     0.127 C 
ENDROOT
BRANCH   1   2
ATOM      2  C   UNL     1       6.202   3.885   0.804  1.00  0.00     0.303 C 
ATOM      3  O   UNL     1       6.890   4.769   0.236  1.00  0.00    -0.252 OA
BRANCH   2   4
ATOM      4  O   UNL     1       6.240   3.823   2.188  1.00  0.00    -0.481 OA
ATOM      5  H   UNL     1       5.717   4.512   2.735  1.00  0.00     0.296 HD
ENDBRANCH   2   4
ENDBRANCH   1   2
BRANCH   1   6
ATOM      6  C   UNL     1       4.908   1.851   0.945  1.00  0.00     0.047 C 
BRANCH   6   7
ATOM      7  C   UNL     1       5.728   0.642   0.904  1.00  0.00    -0.047 A 
ATOM      8  C   UNL     1       5.889  -0.138   2.026  1.00  0.00     0.004 A 
ATOM      9  C   UNL     1       6.342   0.286  -0.275  1.00  0.00     0.004 A 
ATOM     10  C   UNL     1       6.686  -1.280   1.913  1.00  0.00     0.000 A 
ATOM     11  C   UNL     1       7.129  -0.842  -0.384  1.00  0.00     0.000 A 
ATOM     12  C   UNL     1       7.296  -1.628   0.735  1.00  0.00     0.000 A 
ENDBRANCH   6   7
ENDBRANCH   1   6
TORSDOF 4
ENDMDL
MODEL 5
REMARK VINA RESULT:      -6.5      1.988      2.340
REMARK SMILES O=C(O)CCc1ccccc1
REMARK SMILES IDX 4 1 2 2 1 3 3 4 5 6 6 7 7 8 11 9 8 10 10 11 9 12
REMARK H PARENT 3 5
REMARK Flexibility Score: inf
ROOT
ATOM      1  C   UNL     1       8.385   0.244  -1.993  1.00  0.00     0.127 C 
ENDROOT
BRANCH   1   2
ATOM      2  C   UNL     1       9.493   0.178  -1.011  1.00  0.00     0.303 C 
ATOM      3  O   UNL     1       9.411  -0.541   0.015  1.00  0.00    -0.252 OA
BRANCH   2   4
ATOM      4  O   UNL     1      10.653   0.910  -1.200  1.00  0.00    -0.481 OA
ATOM      5  H   UNL     1      10.680   1.628  -1.929  1.00  0.00     0.296 HD
ENDBRANCH   2   4
ENDBRANCH   1   2
BRANCH   1   6
ATOM      6  C   UNL     1       7.213  -0.501  -1.431  1.00  0.00     0.047 C 
BRANCH   6   7
ATOM      7  C   UNL     1       6.376   0.295  -0.535  1.00  0.00    -0.047 A 
ATOM      8  C   UNL     1       5.837   1.489  -0.952  1.00  0.00     0.004 A 
ATOM      9  C   UNL     1       6.129  -0.165   0.738  1.00  0.00     0.004 A 
ATOM     10  C   UNL     1       5.046   2.197  -0.043  1.00  0.00     0.000 A 
ATOM     11  C   UNL     1       5.348   0.536   1.636  1.00  0.00     0.000 A 
ATOM     12  C   UNL     1       4.804   1.734   1.226  1.00  0.00     0.000 A 
ENDBRANCH   6   7
ENDBRANCH   1   6
TORSDOF 4
ENDMDL
