@<TRIPOS>MOLECULE
/home/cewinharhar/GITHUB/reincatalyze/data/processed/docking_pred/2023_Apr_20-15:07/225d7738cc918e3754e3779366d54ccb252183f1_ligand_2.pdbqt
 12 12 0 0 0
SMALL
GASTEIGER

@<TRIPOS>ATOM
      1  C          8.4270   -0.5960   -2.1820 C.3     1  UNL1        0.1270
      2  C          8.4690   -1.8900   -2.9040 C.2     1  UNL1        0.3030
      3  O          9.5520   -2.4960   -3.0910 O.2     1  UNL1       -0.2520
      4  O          7.3080   -2.4680   -3.3940 O.3     1  UNL1       -0.4810
      5  H          6.4070   -2.2040   -2.9860 H       1  UNL1        0.2960
      6  C          7.0050   -0.1240   -2.1450 C.3     1  UNL1        0.0470
      7  C          6.4720    0.0490   -0.7950 C.2     1  UNL1       -0.0470
      8  C          5.8380    1.2150   -0.4330 C.2     1  UNL1        0.0040
      9  C          6.6090   -0.9710    0.1180 C.2     1  UNL1        0.0040
     10  C          5.3520    1.3110    0.8730 C.2     1  UNL1        0.0000
     11  C          6.1290   -0.8750    1.4080 C.2     1  UNL1        0.0000
     12  C          5.4930    0.2900    1.7790 C.2     1  UNL1        0.0000
@<TRIPOS>BOND
     1     4     5    1
     2     4     2    1
     3     3     2    2
     4     2     1    1
     5     1     6    1
     6     6     7    1
     7     7     8    2
     8     7     9    1
     9     8    10    1
    10     9    11    2
    11    10    12    2
    12    11    12    1
