@<TRIPOS>MOLECULE
/home/cewinharhar/GITHUB/reincatalyze/data/processed/docking_pred/2023_Apr_20-15:07/2368d29bb7bbfa5e31d33bb3936e2ea89938fe66_ligand_2.pdbqt
 12 12 0 0 0
SMALL
GASTEIGER

@<TRIPOS>ATOM
      1  C          8.3130   -0.6530   -2.0590 C.3     1  UNL1        0.1270
      2  C          8.3250   -1.8690   -2.9070 C.2     1  UNL1        0.3030
      3  O          7.2560   -2.4050   -3.2890 O.2     1  UNL1       -0.2520
      4  O          9.5200   -2.4480   -3.3010 O.3     1  UNL1       -0.4810
      5  H          9.5020   -3.2460   -3.9420 H       1  UNL1        0.2960
      6  C          7.8720   -1.0440   -0.6820 C.3     1  UNL1        0.0470
      7  C          6.8700   -0.1500   -0.1030 C.2     1  UNL1       -0.0470
      8  C          6.4090   -0.3460    1.1780 C.2     1  UNL1        0.0040
      9  C          6.3910    0.8980   -0.8540 C.2     1  UNL1        0.0040
     10  C          5.4530    0.5470    1.6670 C.2     1  UNL1        0.0000
     11  C          5.4450    1.7800   -0.3690 C.2     1  UNL1        0.0000
     12  C          4.9780    1.5900    0.9130 C.2     1  UNL1        0.0000
@<TRIPOS>BOND
     1     5     4    1
     2     4     2    1
     3     3     2    2
     4     2     1    1
     5     1     6    1
     6     9    11    1
     7     9     7    2
     8     6     7    1
     9    11    12    2
    10     7     8    1
    11    12    10    1
    12     8    10    2
