@<TRIPOS>MOLECULE
/home/cewinharhar/GITHUB/reincatalyze/data/processed/docking_pred/2023_Apr_20-15:07/2368d29bb7bbfa5e31d33bb3936e2ea89938fe66_ligand_2.pdbqt
 12 12 0 0 0
SMALL
GASTEIGER

@<TRIPOS>ATOM
      1  C          8.4000   -0.5290   -2.2690 C.3     1  UNL1        0.1270
      2  C          8.4620   -1.8520   -2.9340 C.2     1  UNL1        0.3030
      3  O          9.5530   -2.4590   -3.0730 O.2     1  UNL1       -0.2520
      4  O          7.3150   -2.4570   -3.4210 O.3     1  UNL1       -0.4810
      5  H          6.4290   -1.9440   -3.3970 H       1  UNL1        0.2960
      6  C          6.9630   -0.1140   -2.1810 C.3     1  UNL1        0.0470
      7  C          6.4670    0.0250   -0.8130 C.2     1  UNL1       -0.0470
      8  C          6.6180   -0.9960    0.0970 C.2     1  UNL1        0.0040
      9  C          5.8460    1.1940   -0.4390 C.2     1  UNL1        0.0040
     10  C          6.1210   -0.7940    1.3860 C.2     1  UNL1        0.0000
     11  C          5.3550    1.3920    0.8360 C.2     1  UNL1        0.0000
     12  C          5.5010    0.3740    1.7530 C.2     1  UNL1        0.0000
@<TRIPOS>BOND
     1     4     5    1
     2     4     2    1
     3     3     2    2
     4     2     1    1
     5     1     6    1
     6     6     7    1
     7     7     9    2
     8     7     8    1
     9     9    11    1
    10     8    10    2
    11    11    12    2
    12    10    12    1
