@<TRIPOS>MOLECULE
/home/cewinharhar/GITHUB/reincatalyze/data/processed/docking_pred/2023_Apr_20-15:07/2368d29bb7bbfa5e31d33bb3936e2ea89938fe66_ligand_2.pdbqt
 12 12 0 0 0
SMALL
GASTEIGER

@<TRIPOS>ATOM
      1  C          8.4360   -0.6450   -2.0720 C.3     1  UNL1        0.1270
      2  C          8.3930   -1.8920   -2.8710 C.2     1  UNL1        0.3030
      3  O          7.3010   -2.4090   -3.2130 O.2     1  UNL1       -0.2520
      4  O          9.5620   -2.5250   -3.2630 O.3     1  UNL1       -0.4810
      5  H          9.8600   -3.3740   -2.7760 H       1  UNL1        0.2960
      6  C          7.0670   -0.0360   -2.0770 C.3     1  UNL1        0.0470
      7  C          6.4830    0.1240   -0.7460 C.2     1  UNL1       -0.0470
      8  C          5.8190    1.2790   -0.4030 C.2     1  UNL1        0.0040
      9  C          6.6030   -0.8990    0.1660 C.2     1  UNL1        0.0040
     10  C          5.2860    1.3620    0.8850 C.2     1  UNL1        0.0000
     11  C          6.0750   -0.8150    1.4400 C.2     1  UNL1        0.0000
     12  C          5.4090    0.3390    1.7910 C.2     1  UNL1        0.0000
@<TRIPOS>BOND
     1     4     2    1
     2     4     5    1
     3     3     2    2
     4     2     1    1
     5     6     1    1
     6     6     7    1
     7     7     8    2
     8     7     9    1
     9     8    10    1
    10     9    11    2
    11    10    12    2
    12    11    12    1
