@<TRIPOS>MOLECULE
/home/cewinharhar/GITHUB/reincatalyze/data/processed/docking_pred/2023_Apr_20-15:07/2368d29bb7bbfa5e31d33bb3936e2ea89938fe66_ligand_2.pdbqt
 12 12 0 0 0
SMALL
GASTEIGER

@<TRIPOS>ATOM
      1  C          5.0020    1.7980    0.7160 C.3     1  UNL1        0.1270
      2  C          4.4960    1.0990    1.9210 C.2     1  UNL1        0.3030
      3  O          5.1630    0.1900    2.4730 O.2     1  UNL1       -0.2520
      4  O          3.2690    1.4300    2.4710 O.3     1  UNL1       -0.4810
      5  H          2.4660    0.8160    2.3110 H       1  UNL1        0.2960
      6  C          6.4990    1.7740    0.7510 C.3     1  UNL1        0.0470
      7  C          7.1080    1.0360   -0.3550 C.2     1  UNL1       -0.0470
      8  C          6.3480    0.2120   -1.1530 C.2     1  UNL1        0.0040
      9  C          8.4560    1.1740   -0.5930 C.2     1  UNL1        0.0040
     10  C          6.9960   -0.4610   -2.1910 C.2     1  UNL1        0.0000
     11  C          9.0940    0.5070   -1.6200 C.2     1  UNL1        0.0000
     12  C          8.3410   -0.3200   -2.4240 C.2     1  UNL1        0.0000
@<TRIPOS>BOND
     1    12    10    2
     2    12    11    1
     3    10     8    1
     4    11     9    2
     5     8     7    2
     6     9     7    1
     7     7     6    1
     8     1     6    1
     9     1     2    1
    10     2     4    1
    11     2     3    2
    12     5     4    1
