MODEL 1
REMARK VINA RESULT:      -7.3      0.000      0.000
REMARK SMILES O=C(O)CCc1ccccc1
REMARK SMILES IDX 4 1 2 2 1 3 3 4 5 6 6 7 7 8 11 9 8 10 10 11 9 12
REMARK H PARENT 3 5
REMARK Flexibility Score: inf
ROOT
ATOM      1  C   UNL     1       8.400  -0.529  -2.269  1.00  0.00     0.127 C 
ENDROOT
BRANCH   1   2
ATOM      2  C   UNL     1       8.462  -1.852  -2.934  1.00  0.00     0.303 C 
ATOM      3  O   UNL     1       9.553  -2.459  -3.073  1.00  0.00    -0.252 OA
BRANCH   2   4
ATOM      4  O   UNL     1       7.315  -2.457  -3.421  1.00  0.00    -0.481 OA
ATOM      5  H   UNL     1       6.429  -1.944  -3.397  1.00  0.00     0.296 HD
ENDBRANCH   2   4
ENDBRANCH   1   2
BRANCH   1   6
ATOM      6  C   UNL     1       6.963  -0.114  -2.181  1.00  0.00     0.047 C 
BRANCH   6   7
ATOM      7  C   UNL     1       6.467   0.025  -0.813  1.00  0.00    -0.047 A 
ATOM      8  C   UNL     1       6.618  -0.996   0.097  1.00  0.00     0.004 A 
ATOM      9  C   UNL     1       5.846   1.194  -0.439  1.00  0.00     0.004 A 
ATOM     10  C   UNL     1       6.121  -0.794   1.386  1.00  0.00     0.000 A 
ATOM     11  C   UNL     1       5.355   1.392   0.836  1.00  0.00     0.000 A 
ATOM     12  C   UNL     1       5.501   0.374   1.753  1.00  0.00     0.000 A 
ENDBRANCH   6   7
ENDBRANCH   1   6
TORSDOF 4
ENDMDL
MODEL 2
REMARK VINA RESULT:      -7.3      0.148      1.733
REMARK SMILES O=C(O)CCc1ccccc1
REMARK SMILES IDX 4 1 2 2 1 3 3 4 5 6 6 7 7 8 11 9 8 10 10 11 9 12
REMARK H PARENT 3 5
REMARK Flexibility Score: inf
ROOT
ATOM      1  C   UNL     1       8.436  -0.645  -2.072  1.00  0.00     0.127 C 
ENDROOT
BRANCH   1   2
ATOM      2  C   UNL     1       8.393  -1.892  -2.871  1.00  0.00     0.303 C 
ATOM      3  O   UNL     1       7.301  -2.409  -3.213  1.00  0.00    -0.252 OA
BRANCH   2   4
ATOM      4  O   UNL     1       9.562  -2.525  -3.263  1.00  0.00    -0.481 OA
ATOM      5  H   UNL     1       9.860  -3.374  -2.776  1.00  0.00     0.296 HD
ENDBRANCH   2   4
ENDBRANCH   1   2
BRANCH   1   6
ATOM      6  C   UNL     1       7.067  -0.036  -2.077  1.00  0.00     0.047 C 
BRANCH   6   7
ATOM      7  C   UNL     1       6.483   0.124  -0.746  1.00  0.00    -0.047 A 
ATOM      8  C   UNL     1       5.819   1.279  -0.403  1.00  0.00     0.004 A 
ATOM      9  C   UNL     1       6.603  -0.899   0.166  1.00  0.00     0.004 A 
ATOM     10  C   UNL     1       5.286   1.362   0.885  1.00  0.00     0.000 A 
ATOM     11  C   UNL     1       6.075  -0.815   1.440  1.00  0.00     0.000 A 
ATOM     12  C   UNL     1       5.409   0.339   1.791  1.00  0.00     0.000 A 
ENDBRANCH   6   7
ENDBRANCH   1   6
TORSDOF 4
ENDMDL
MODEL 3
REMARK VINA RESULT:      -7.1      0.673      1.871
REMARK SMILES O=C(O)CCc1ccccc1
REMARK SMILES IDX 4 1 2 2 1 3 3 4 5 6 6 7 7 8 11 9 8 10 10 11 9 12
REMARK H PARENT 3 5
REMARK Flexibility Score: inf
ROOT
ATOM      1  C   UNL     1       8.311  -0.887  -1.874  1.00  0.00     0.127 C 
ENDROOT
BRANCH   1   2
ATOM      2  C   UNL     1       8.327  -1.998  -2.855  1.00  0.00     0.303 C 
ATOM      3  O   UNL     1       7.263  -2.447  -3.347  1.00  0.00    -0.252 OA
BRANCH   2   4
ATOM      4  O   UNL     1       9.522  -2.572  -3.258  1.00  0.00    -0.481 OA
ATOM      5  H   UNL     1      10.342  -2.501  -2.649  1.00  0.00     0.296 HD
ENDBRANCH   2   4
ENDBRANCH   1   2
BRANCH   1   6
ATOM      6  C   UNL     1       7.525  -1.327  -0.678  1.00  0.00     0.047 C 
BRANCH   6   7
ATOM      7  C   UNL     1       6.645  -0.294  -0.132  1.00  0.00    -0.047 A 
ATOM      8  C   UNL     1       6.294   0.801  -0.886  1.00  0.00     0.004 A 
ATOM      9  C   UNL     1       6.166  -0.430   1.150  1.00  0.00     0.004 A 
ATOM     10  C   UNL     1       5.449   1.747  -0.301  1.00  0.00     0.000 A 
ATOM     11  C   UNL     1       5.331   0.507   1.727  1.00  0.00     0.000 A 
ATOM     12  C   UNL     1       4.976   1.608   0.979  1.00  0.00     0.000 A 
ENDBRANCH   6   7
ENDBRANCH   1   6
TORSDOF 4
ENDMDL
MODEL 4
REMARK VINA RESULT:      -7.0      0.666      1.462
REMARK SMILES O=C(O)CCc1ccccc1
REMARK SMILES IDX 4 1 2 2 1 3 3 4 5 6 6 7 7 8 11 9 8 10 10 11 9 12
REMARK H PARENT 3 5
REMARK Flexibility Score: inf
ROOT
ATOM      1  C   UNL     1       8.313  -0.653  -2.059  1.00  0.00     0.127 C 
ENDROOT
BRANCH   1   2
ATOM      2  C   UNL     1       8.325  -1.869  -2.907  1.00  0.00     0.303 C 
ATOM      3  O   UNL     1       7.256  -2.405  -3.289  1.00  0.00    -0.252 OA
BRANCH   2   4
ATOM      4  O   UNL     1       9.520  -2.448  -3.301  1.00  0.00    -0.481 OA
ATOM      5  H   UNL     1       9.502  -3.246  -3.942  1.00  0.00     0.296 HD
ENDBRANCH   2   4
ENDBRANCH   1   2
BRANCH   1   6
ATOM      6  C   UNL     1       7.872  -1.044  -0.682  1.00  0.00     0.047 C 
BRANCH   6   7
ATOM      7  C   UNL     1       6.870  -0.150  -0.103  1.00  0.00    -0.047 A 
ATOM      8  C   UNL     1       6.409  -0.346   1.178  1.00  0.00     0.004 A 
ATOM      9  C   UNL     1       6.391   0.898  -0.854  1.00  0.00     0.004 A 
ATOM     10  C   UNL     1       5.453   0.547   1.667  1.00  0.00     0.000 A 
ATOM     11  C   UNL     1       5.445   1.780  -0.369  1.00  0.00     0.000 A 
ATOM     12  C   UNL     1       4.978   1.590   0.913  1.00  0.00     0.000 A 
ENDBRANCH   6   7
ENDBRANCH   1   6
TORSDOF 4
ENDMDL
MODEL 5
REMARK VINA RESULT:      -6.8      3.374      5.059
REMARK SMILES O=C(O)CCc1ccccc1
REMARK SMILES IDX 4 1 2 2 1 3 3 4 5 6 6 7 7 8 11 9 8 10 10 11 9 12
REMARK H PARENT 3 5
REMARK Flexibility Score: inf
ROOT
ATOM      1  C   UNL     1       5.002   1.798   0.716  1.00  0.00     0.127 C 
ENDROOT
BRANCH   1   2
ATOM      2  C   UNL     1       4.496   1.099   1.921  1.00  0.00     0.303 C 
ATOM      3  O   UNL     1       5.163   0.190   2.473  1.00  0.00    -0.252 OA
BRANCH   2   4
ATOM      4  O   UNL     1       3.269   1.430   2.471  1.00  0.00    -0.481 OA
ATOM      5  H   UNL     1       2.466   0.816   2.311  1.00  0.00     0.296 HD
ENDBRANCH   2   4
ENDBRANCH   1   2
BRANCH   1   6
ATOM      6  C   UNL     1       6.499   1.774   0.751  1.00  0.00     0.047 C 
BRANCH   6   7
ATOM      7  C   UNL     1       7.108   1.036  -0.355  1.00  0.00    -0.047 A 
ATOM      8  C   UNL     1       6.348   0.212  -1.153  1.00  0.00     0.004 A 
ATOM      9  C   UNL     1       8.456   1.174  -0.593  1.00  0.00     0.004 A 
ATOM     10  C   UNL     1       6.996  -0.461  -2.191  1.00  0.00     0.000 A 
ATOM     11  C   UNL     1       9.094   0.507  -1.620  1.00  0.00     0.000 A 
ATOM     12  C   UNL     1       8.341  -0.320  -2.424  1.00  0.00     0.000 A 
ENDBRANCH   6   7
ENDBRANCH   1   6
TORSDOF 4
ENDMDL
