@<TRIPOS>MOLECULE
/home/cewinharhar/GITHUB/reincatalyze/data/processed/docking_pred/2023_Apr_20-15:07/24731d809f1a519c36ca3c9a2574e1987901b3bd_ligand_2.pdbqt
 12 12 0 0 0
SMALL
GASTEIGER

@<TRIPOS>ATOM
      1  C          8.4360   -0.6120   -2.0780 C.3     1  UNL1        0.1270
      2  C          8.4690   -1.8620   -2.8730 C.2     1  UNL1        0.3030
      3  O          9.5510   -2.4570   -3.1050 O.2     1  UNL1       -0.2520
      4  O          7.3030   -2.4100   -3.3840 O.3     1  UNL1       -0.4810
      5  H          6.6010   -1.7940   -3.8010 H       1  UNL1        0.2960
      6  C          7.0330   -0.0850   -2.0890 C.3     1  UNL1        0.0470
      7  C          6.4600    0.1070   -0.7580 C.2     1  UNL1       -0.0470
      8  C          5.8040    1.2730   -0.4360 C.2     1  UNL1        0.0040
      9  C          6.5820   -0.8950    0.1760 C.2     1  UNL1        0.0040
     10  C          5.2800    1.3870    0.8540 C.2     1  UNL1        0.0000
     11  C          6.0640   -0.7800    1.4510 C.2     1  UNL1        0.0000
     12  C          5.4060    0.3840    1.7820 C.2     1  UNL1        0.0000
@<TRIPOS>BOND
     1     5     4    1
     2     4     2    1
     3     3     2    2
     4     2     1    1
     5     6     1    1
     6     6     7    1
     7     7     8    2
     8     7     9    1
     9     8    10    1
    10     9    11    2
    11    10    12    2
    12    11    12    1
