@<TRIPOS>MOLECULE
/home/cewinharhar/GITHUB/reincatalyze/data/processed/docking_pred/2023_Apr_20-15:07/24731d809f1a519c36ca3c9a2574e1987901b3bd_ligand_2.pdbqt
 12 12 0 0 0
SMALL
GASTEIGER

@<TRIPOS>ATOM
      1  C          8.2430    0.2610   -2.1570 C.3     1  UNL1        0.1270
      2  C          9.3750    0.3540   -1.2040 C.2     1  UNL1        0.3030
      3  O          9.4550   -0.4120   -0.2120 O.2     1  UNL1       -0.2520
      4  O         10.3790    1.2920   -1.3840 O.3     1  UNL1       -0.4810
      5  H         11.3570    0.9900   -1.3600 H       1  UNL1        0.2960
      6  C          7.1410   -0.5160   -1.5030 C.3     1  UNL1        0.0470
      7  C          6.3480    0.2620   -0.5530 C.2     1  UNL1       -0.0470
      8  C          6.1210   -0.2050    0.7210 C.2     1  UNL1        0.0040
      9  C          5.8290    1.4740   -0.9450 C.2     1  UNL1        0.0040
     10  C          5.3560    0.5910    1.5760 C.2     1  UNL1        0.0000
     11  C          5.0720    2.2600   -0.0980 C.2     1  UNL1        0.0000
     12  C          4.8400    1.7990    1.1790 C.2     1  UNL1        0.0000
@<TRIPOS>BOND
     1     1     6    1
     2     1     2    1
     3     6     7    1
     4     4     5    1
     5     4     2    1
     6     2     3    2
     7     9     7    2
     8     9    11    1
     9     7     8    1
    10    11    12    2
    11     8    10    2
    12    12    10    1
