@<TRIPOS>MOLECULE
/home/cewinharhar/GITHUB/reincatalyze/data/processed/docking_pred/2023_Apr_20-15:07/24731d809f1a519c36ca3c9a2574e1987901b3bd_ligand_2.pdbqt
 12 12 0 0 0
SMALL
GASTEIGER

@<TRIPOS>ATOM
      1  C          5.0030    1.8120    0.7070 C.3     1  UNL1        0.1270
      2  C          4.4890    1.1190    1.9110 C.2     1  UNL1        0.3030
      3  O          5.1480    0.2070    2.4690 O.2     1  UNL1       -0.2520
      4  O          3.2610    1.4590    2.4560 O.3     1  UNL1       -0.4810
      5  H          2.5070    1.7700    1.8370 H       1  UNL1        0.2960
      6  C          6.5010    1.7880    0.7530 C.3     1  UNL1        0.0470
      7  C          7.1170    1.0310   -0.3360 C.2     1  UNL1       -0.0470
      8  C          6.3820    0.1270   -1.0670 C.2     1  UNL1        0.0040
      9  C          8.4460    1.2350   -0.6260 C.2     1  UNL1        0.0040
     10  C          7.0360   -0.5590   -2.0940 C.2     1  UNL1        0.0000
     11  C          9.0900    0.5550   -1.6410 C.2     1  UNL1        0.0000
     12  C          8.3620   -0.3530   -2.3780 C.2     1  UNL1        0.0000
@<TRIPOS>BOND
     1    12    10    2
     2    12    11    1
     3    10     8    1
     4    11     9    2
     5     8     7    2
     6     9     7    1
     7     7     6    1
     8     1     6    1
     9     1     2    1
    10     5     4    1
    11     2     4    1
    12     2     3    2
