@<TRIPOS>MOLECULE
/home/cewinharhar/GITHUB/reincatalyze/data/processed/docking_pred/2023_Apr_20-15:07/24731d809f1a519c36ca3c9a2574e1987901b3bd_ligand_2.pdbqt
 12 12 0 0 0
SMALL
GASTEIGER

@<TRIPOS>ATOM
      1  C          8.4340   -0.6200   -2.1510 C.3     1  UNL1        0.1270
      2  C          8.4810   -1.8920   -2.9100 C.2     1  UNL1        0.3030
      3  O          9.5660   -2.4930   -3.1060 O.2     1  UNL1       -0.2520
      4  O          7.3240   -2.4540   -3.4260 O.3     1  UNL1       -0.4810
      5  H          6.5150   -2.5860   -2.8140 H       1  UNL1        0.2960
      6  C          7.0140   -0.1420   -2.1220 C.3     1  UNL1        0.0470
      7  C          6.4720    0.0310   -0.7750 C.2     1  UNL1       -0.0470
      8  C          6.5930   -0.9660    0.1650 C.2     1  UNL1        0.0040
      9  C          5.8390    1.2090   -0.4520 C.2     1  UNL1        0.0040
     10  C          6.0530   -0.7320    1.4310 C.2     1  UNL1        0.0000
     11  C          5.3050    1.4380    0.8010 C.2     1  UNL1        0.0000
     12  C          5.4210    0.4440    1.7480 C.2     1  UNL1        0.0000
@<TRIPOS>BOND
     1     4     2    1
     2     4     5    1
     3     3     2    2
     4     2     1    1
     5     1     6    1
     6     6     7    1
     7     7     9    2
     8     7     8    1
     9     9    11    1
    10     8    10    2
    11    11    12    2
    12    10    12    1
