@<TRIPOS>MOLECULE
/home/cewinharhar/GITHUB/reincatalyze/data/processed/docking_pred/2023_Apr_20-15:07/24731d809f1a519c36ca3c9a2574e1987901b3bd_ligand_2.pdbqt
 12 12 0 0 0
SMALL
GASTEIGER

@<TRIPOS>ATOM
      1  C          5.2990    2.9830    0.0040 C.3     1  UNL1        0.1270
      2  C          6.1590    3.9230    0.7630 C.2     1  UNL1        0.3030
      3  O          6.8740    4.7710    0.1740 O.2     1  UNL1       -0.2520
      4  O          6.1960    3.8900    2.1470 O.3     1  UNL1       -0.4810
      5  H          5.7970    4.6700    2.6780 H       1  UNL1        0.2960
      6  C          5.1400    1.7330    0.8130 C.3     1  UNL1        0.0470
      7  C          5.9440    0.6090    0.3370 C.2     1  UNL1       -0.0470
      8  C          6.2600    0.4860   -0.9960 C.2     1  UNL1        0.0040
      9  C          6.3870   -0.3300    1.2390 C.2     1  UNL1        0.0040
     10  C          7.0330   -0.6120   -1.3810 C.2     1  UNL1        0.0000
     11  C          7.1510   -1.4150    0.8570 C.2     1  UNL1        0.0000
     12  C          7.4720   -1.5460   -0.4760 C.2     1  UNL1        0.0000
@<TRIPOS>BOND
     1    10     8    1
     2    10    12    2
     3     8     7    2
     4    12    11    1
     5     1     2    1
     6     1     6    1
     7     3     2    2
     8     7     6    1
     9     7     9    1
    10     2     4    1
    11    11     9    2
    12     4     5    1
