MODEL 1
REMARK VINA RESULT:      -7.4      0.000      0.000
REMARK SMILES O=C(O)CCc1ccccc1
REMARK SMILES IDX 4 1 2 2 1 3 3 4 5 6 6 7 7 8 11 9 8 10 10 11 9 12
REMARK H PARENT 3 5
REMARK Flexibility Score: inf
ROOT
ATOM      1  C   UNL     1       8.436  -0.612  -2.078  1.00  0.00     0.127 C 
ENDROOT
BRANCH   1   2
ATOM      2  C   UNL     1       8.469  -1.862  -2.873  1.00  0.00     0.303 C 
ATOM      3  O   UNL     1       9.551  -2.457  -3.105  1.00  0.00    -0.252 OA
BRANCH   2   4
ATOM      4  O   UNL     1       7.303  -2.410  -3.384  1.00  0.00    -0.481 OA
ATOM      5  H   UNL     1       6.601  -1.794  -3.801  1.00  0.00     0.296 HD
ENDBRANCH   2   4
ENDBRANCH   1   2
BRANCH   1   6
ATOM      6  C   UNL     1       7.033  -0.085  -2.089  1.00  0.00     0.047 C 
BRANCH   6   7
ATOM      7  C   UNL     1       6.460   0.107  -0.758  1.00  0.00    -0.047 A 
ATOM      8  C   UNL     1       5.804   1.273  -0.436  1.00  0.00     0.004 A 
ATOM      9  C   UNL     1       6.582  -0.895   0.176  1.00  0.00     0.004 A 
ATOM     10  C   UNL     1       5.280   1.387   0.854  1.00  0.00     0.000 A 
ATOM     11  C   UNL     1       6.064  -0.780   1.451  1.00  0.00     0.000 A 
ATOM     12  C   UNL     1       5.406   0.384   1.782  1.00  0.00     0.000 A 
ENDBRANCH   6   7
ENDBRANCH   1   6
TORSDOF 4
ENDMDL
MODEL 2
REMARK VINA RESULT:      -7.3      0.067      1.438
REMARK SMILES O=C(O)CCc1ccccc1
REMARK SMILES IDX 4 1 2 2 1 3 3 4 5 6 6 7 7 8 11 9 8 10 10 11 9 12
REMARK H PARENT 3 5
REMARK Flexibility Score: inf
ROOT
ATOM      1  C   UNL     1       8.434  -0.620  -2.151  1.00  0.00     0.127 C 
ENDROOT
BRANCH   1   2
ATOM      2  C   UNL     1       8.481  -1.892  -2.910  1.00  0.00     0.303 C 
ATOM      3  O   UNL     1       9.566  -2.493  -3.106  1.00  0.00    -0.252 OA
BRANCH   2   4
ATOM      4  O   UNL     1       7.324  -2.454  -3.426  1.00  0.00    -0.481 OA
ATOM      5  H   UNL     1       6.515  -2.586  -2.814  1.00  0.00     0.296 HD
ENDBRANCH   2   4
ENDBRANCH   1   2
BRANCH   1   6
ATOM      6  C   UNL     1       7.014  -0.142  -2.122  1.00  0.00     0.047 C 
BRANCH   6   7
ATOM      7  C   UNL     1       6.472   0.031  -0.775  1.00  0.00    -0.047 A 
ATOM      8  C   UNL     1       6.593  -0.966   0.165  1.00  0.00     0.004 A 
ATOM      9  C   UNL     1       5.839   1.209  -0.452  1.00  0.00     0.004 A 
ATOM     10  C   UNL     1       6.053  -0.732   1.431  1.00  0.00     0.000 A 
ATOM     11  C   UNL     1       5.305   1.438   0.801  1.00  0.00     0.000 A 
ATOM     12  C   UNL     1       5.421   0.444   1.748  1.00  0.00     0.000 A 
ENDBRANCH   6   7
ENDBRANCH   1   6
TORSDOF 4
ENDMDL
MODEL 3
REMARK VINA RESULT:      -6.8      3.353      5.069
REMARK SMILES O=C(O)CCc1ccccc1
REMARK SMILES IDX 4 1 2 2 1 3 3 4 5 6 6 7 7 8 11 9 8 10 10 11 9 12
REMARK H PARENT 3 5
REMARK Flexibility Score: inf
ROOT
ATOM      1  C   UNL     1       5.003   1.812   0.707  1.00  0.00     0.127 C 
ENDROOT
BRANCH   1   2
ATOM      2  C   UNL     1       4.489   1.119   1.911  1.00  0.00     0.303 C 
ATOM      3  O   UNL     1       5.148   0.207   2.469  1.00  0.00    -0.252 OA
BRANCH   2   4
ATOM      4  O   UNL     1       3.261   1.459   2.456  1.00  0.00    -0.481 OA
ATOM      5  H   UNL     1       2.507   1.770   1.837  1.00  0.00     0.296 HD
ENDBRANCH   2   4
ENDBRANCH   1   2
BRANCH   1   6
ATOM      6  C   UNL     1       6.501   1.788   0.753  1.00  0.00     0.047 C 
BRANCH   6   7
ATOM      7  C   UNL     1       7.117   1.031  -0.336  1.00  0.00    -0.047 A 
ATOM      8  C   UNL     1       6.382   0.127  -1.067  1.00  0.00     0.004 A 
ATOM      9  C   UNL     1       8.446   1.235  -0.626  1.00  0.00     0.004 A 
ATOM     10  C   UNL     1       7.036  -0.559  -2.094  1.00  0.00     0.000 A 
ATOM     11  C   UNL     1       9.090   0.555  -1.641  1.00  0.00     0.000 A 
ATOM     12  C   UNL     1       8.362  -0.353  -2.378  1.00  0.00     0.000 A 
ENDBRANCH   6   7
ENDBRANCH   1   6
TORSDOF 4
ENDMDL
MODEL 4
REMARK VINA RESULT:      -6.7      1.918      2.649
REMARK SMILES O=C(O)CCc1ccccc1
REMARK SMILES IDX 4 1 2 2 1 3 3 4 5 6 6 7 7 8 11 9 8 10 10 11 9 12
REMARK H PARENT 3 5
REMARK Flexibility Score: inf
ROOT
ATOM      1  C   UNL     1       8.243   0.261  -2.157  1.00  0.00     0.127 C 
ENDROOT
BRANCH   1   2
ATOM      2  C   UNL     1       9.375   0.354  -1.204  1.00  0.00     0.303 C 
ATOM      3  O   UNL     1       9.455  -0.412  -0.212  1.00  0.00    -0.252 OA
BRANCH   2   4
ATOM      4  O   UNL     1      10.379   1.292  -1.384  1.00  0.00    -0.481 OA
ATOM      5  H   UNL     1      11.357   0.990  -1.360  1.00  0.00     0.296 HD
ENDBRANCH   2   4
ENDBRANCH   1   2
BRANCH   1   6
ATOM      6  C   UNL     1       7.141  -0.516  -1.503  1.00  0.00     0.047 C 
BRANCH   6   7
ATOM      7  C   UNL     1       6.348   0.262  -0.553  1.00  0.00    -0.047 A 
ATOM      8  C   UNL     1       6.121  -0.205   0.721  1.00  0.00     0.004 A 
ATOM      9  C   UNL     1       5.829   1.474  -0.945  1.00  0.00     0.004 A 
ATOM     10  C   UNL     1       5.356   0.591   1.576  1.00  0.00     0.000 A 
ATOM     11  C   UNL     1       5.072   2.260  -0.098  1.00  0.00     0.000 A 
ATOM     12  C   UNL     1       4.840   1.799   1.179  1.00  0.00     0.000 A 
ENDBRANCH   6   7
ENDBRANCH   1   6
TORSDOF 4
ENDMDL
MODEL 5
REMARK VINA RESULT:      -6.5      3.713      4.932
REMARK SMILES O=C(O)CCc1ccccc1
REMARK SMILES IDX 4 1 2 2 1 3 3 4 5 6 6 7 7 8 11 9 8 10 10 11 9 12
REMARK H PARENT 3 5
REMARK Flexibility Score: inf
ROOT
ATOM      1  C   UNL     1       5.299   2.983   0.004  1.00  0.00     0.127 C 
ENDROOT
BRANCH   1   2
ATOM      2  C   UNL     1       6.159   3.923   0.763  1.00  0.00     0.303 C 
ATOM      3  O   UNL     1       6.874   4.771   0.174  1.00  0.00    -0.252 OA
BRANCH   2   4
ATOM      4  O   UNL     1       6.196   3.890   2.147  1.00  0.00    -0.481 OA
ATOM      5  H   UNL     1       5.797   4.670   2.678  1.00  0.00     0.296 HD
ENDBRANCH   2   4
ENDBRANCH   1   2
BRANCH   1   6
ATOM      6  C   UNL     1       5.140   1.733   0.813  1.00  0.00     0.047 C 
BRANCH   6   7
ATOM      7  C   UNL     1       5.944   0.609   0.337  1.00  0.00    -0.047 A 
ATOM      8  C   UNL     1       6.260   0.486  -0.996  1.00  0.00     0.004 A 
ATOM      9  C   UNL     1       6.387  -0.330   1.239  1.00  0.00     0.004 A 
ATOM     10  C   UNL     1       7.033  -0.612  -1.381  1.00  0.00     0.000 A 
ATOM     11  C   UNL     1       7.151  -1.415   0.857  1.00  0.00     0.000 A 
ATOM     12  C   UNL     1       7.472  -1.546  -0.476  1.00  0.00     0.000 A 
ENDBRANCH   6   7
ENDBRANCH   1   6
TORSDOF 4
ENDMDL
