@<TRIPOS>MOLECULE
/home/cewinharhar/GITHUB/reincatalyze/data/processed/docking_pred/2023_Apr_20-15:07/2481e5cfc04dcfc4c7035fb6b8b96c3a7d203934_ligand_2.pdbqt
 12 12 0 0 0
SMALL
GASTEIGER

@<TRIPOS>ATOM
      1  C          8.2500    0.1090   -2.1540 C.3     1  UNL1        0.1270
      2  C          9.3690    0.3190   -1.2050 C.2     1  UNL1        0.3030
      3  O          9.4860   -0.3840   -0.1710 O.2     1  UNL1       -0.2520
      4  O         10.3180    1.3020   -1.4330 O.3     1  UNL1       -0.4810
      5  H         11.3120    1.0590   -1.3880 H       1  UNL1        0.2960
      6  C          7.1590   -0.6300   -1.4410 C.3     1  UNL1        0.0470
      7  C          6.3670    0.2050   -0.5390 C.2     1  UNL1       -0.0470
      8  C          6.1130   -0.1980    0.7510 C.2     1  UNL1        0.0040
      9  C          5.8750    1.4060   -0.9950 C.2     1  UNL1        0.0040
     10  C          5.3500    0.6500    1.5570 C.2     1  UNL1        0.0000
     11  C          5.1200    2.2430   -0.1980 C.2     1  UNL1        0.0000
     12  C          4.8610    1.8470    1.0960 C.2     1  UNL1        0.0000
@<TRIPOS>BOND
     1     1     6    1
     2     1     2    1
     3     6     7    1
     4     4     5    1
     5     4     2    1
     6     2     3    2
     7     9     7    2
     8     9    11    1
     9     7     8    1
    10    11    12    2
    11     8    10    2
    12    12    10    1
