@<TRIPOS>MOLECULE
/home/cewinharhar/GITHUB/reincatalyze/data/processed/docking_pred/2023_Apr_20-15:07/2481e5cfc04dcfc4c7035fb6b8b96c3a7d203934_ligand_2.pdbqt
 12 12 0 0 0
SMALL
GASTEIGER

@<TRIPOS>ATOM
      1  C          5.0140    1.7830    0.6790 C.3     1  UNL1        0.1270
      2  C          4.4970    1.1150    1.8960 C.2     1  UNL1        0.3030
      3  O          5.1540    0.2120    2.4720 O.2     1  UNL1       -0.2520
      4  O          3.2700    1.4690    2.4340 O.3     1  UNL1       -0.4810
      5  H          2.7280    0.7690    2.9490 H       1  UNL1        0.2960
      6  C          6.5110    1.7850    0.7430 C.3     1  UNL1        0.0470
      7  C          7.1530    1.0420   -0.3410 C.2     1  UNL1       -0.0470
      8  C          8.4810    1.2390   -0.6380 C.2     1  UNL1        0.0040
      9  C          6.4120    0.1360   -1.0640 C.2     1  UNL1        0.0040
     10  C          9.0290    0.4940   -1.6850 C.2     1  UNL1        0.0000
     11  C          6.9550   -0.5990   -2.0990 C.2     1  UNL1        0.0000
     12  C          8.2850   -0.4080   -2.4040 C.2     1  UNL1        0.0000
@<TRIPOS>BOND
     1    12    11    2
     2    12    10    1
     3    11     9    1
     4    10     8    2
     5     9     7    2
     6     8     7    1
     7     7     6    1
     8     1     6    1
     9     1     2    1
    10     2     4    1
    11     2     3    2
    12     4     5    1
