@<TRIPOS>MOLECULE
/home/cewinharhar/GITHUB/reincatalyze/data/processed/docking_pred/2023_Apr_20-15:07/2481e5cfc04dcfc4c7035fb6b8b96c3a7d203934_ligand_2.pdbqt
 12 12 0 0 0
SMALL
GASTEIGER

@<TRIPOS>ATOM
      1  C          5.3630    2.9170    0.0570 C.3     1  UNL1        0.1270
      2  C          6.2090    3.8590    0.8280 C.2     1  UNL1        0.3030
      3  O          6.8530    4.7720    0.2550 O.2     1  UNL1       -0.2520
      4  O          6.3130    3.7560    2.2050 O.3     1  UNL1       -0.4810
      5  H          7.2360    3.6260    2.6300 H       1  UNL1        0.2960
      6  C          5.2620    1.6360    0.8290 C.3     1  UNL1        0.0470
      7  C          6.0520    0.5410    0.2690 C.2     1  UNL1       -0.0470
      8  C          6.3940    0.5300   -1.0630 C.2     1  UNL1        0.0040
      9  C          6.4540   -0.4860    1.0920 C.2     1  UNL1        0.0040
     10  C          7.1500   -0.5480   -1.5290 C.2     1  UNL1        0.0000
     11  C          7.2010   -1.5510    0.6290 C.2     1  UNL1        0.0000
     12  C          7.5480   -1.5690   -0.7040 C.2     1  UNL1        0.0000
@<TRIPOS>BOND
     1    10     8    1
     2    10    12    2
     3     8     7    2
     4    12    11    1
     5     1     2    1
     6     1     6    1
     7     3     2    2
     8     7     6    1
     9     7     9    1
    10    11     9    2
    11     2     4    1
    12     4     5    1
