@<TRIPOS>MOLECULE
/home/cewinharhar/GITHUB/reincatalyze/data/processed/docking_pred/2023_Apr_20-15:07/2481e5cfc04dcfc4c7035fb6b8b96c3a7d203934_ligand_2.pdbqt
 12 12 0 0 0
SMALL
GASTEIGER

@<TRIPOS>ATOM
      1  C          8.5110   -0.6680   -2.0980 C.3     1  UNL1        0.1270
      2  C          8.5210   -1.9210   -2.8890 C.2     1  UNL1        0.3030
      3  O          9.5890   -2.5430   -3.1100 O.2     1  UNL1       -0.2520
      4  O          7.3460   -2.4420   -3.4080 O.3     1  UNL1       -0.4810
      5  H          7.3320   -3.4090   -3.7430 H       1  UNL1        0.2960
      6  C          7.1210   -0.1090   -2.1170 C.3     1  UNL1        0.0470
      7  C          6.5280    0.0560   -0.7910 C.2     1  UNL1       -0.0470
      8  C          6.6490   -0.9300    0.1610 C.2     1  UNL1        0.0040
      9  C          5.8460    1.2140   -0.5000 C.2     1  UNL1        0.0040
     10  C          6.0580   -0.7040    1.4060 C.2     1  UNL1        0.0000
     11  C          5.2620    1.4360    0.7310 C.2     1  UNL1        0.0000
     12  C          5.3780    0.4530    1.6900 C.2     1  UNL1        0.0000
@<TRIPOS>BOND
     1     5     4    1
     2     4     2    1
     3     3     2    2
     4     2     1    1
     5     6     1    1
     6     6     7    1
     7     7     9    2
     8     7     8    1
     9     9    11    1
    10     8    10    2
    11    11    12    2
    12    10    12    1
