MODEL 1
REMARK VINA RESULT:      -7.4      0.000      0.000
REMARK SMILES O=C(O)CCc1ccccc1
REMARK SMILES IDX 4 1 2 2 1 3 3 4 5 6 6 7 7 8 11 9 8 10 10 11 9 12
REMARK H PARENT 3 5
REMARK Flexibility Score: inf
ROOT
ATOM      1  C   UNL     1       8.511  -0.668  -2.098  1.00  0.00     0.127 C 
ENDROOT
BRANCH   1   2
ATOM      2  C   UNL     1       8.521  -1.921  -2.889  1.00  0.00     0.303 C 
ATOM      3  O   UNL     1       9.589  -2.543  -3.110  1.00  0.00    -0.252 OA
BRANCH   2   4
ATOM      4  O   UNL     1       7.346  -2.442  -3.408  1.00  0.00    -0.481 OA
ATOM      5  H   UNL     1       7.332  -3.409  -3.743  1.00  0.00     0.296 HD
ENDBRANCH   2   4
ENDBRANCH   1   2
BRANCH   1   6
ATOM      6  C   UNL     1       7.121  -0.109  -2.117  1.00  0.00     0.047 C 
BRANCH   6   7
ATOM      7  C   UNL     1       6.528   0.056  -0.791  1.00  0.00    -0.047 A 
ATOM      8  C   UNL     1       6.649  -0.930   0.161  1.00  0.00     0.004 A 
ATOM      9  C   UNL     1       5.846   1.214  -0.500  1.00  0.00     0.004 A 
ATOM     10  C   UNL     1       6.058  -0.704   1.406  1.00  0.00     0.000 A 
ATOM     11  C   UNL     1       5.262   1.436   0.731  1.00  0.00     0.000 A 
ATOM     12  C   UNL     1       5.378   0.453   1.690  1.00  0.00     0.000 A 
ENDBRANCH   6   7
ENDBRANCH   1   6
TORSDOF 4
ENDMDL
MODEL 2
REMARK VINA RESULT:      -7.3      0.134      1.733
REMARK SMILES O=C(O)CCc1ccccc1
REMARK SMILES IDX 4 1 2 2 1 3 3 4 5 6 6 7 7 8 11 9 8 10 10 11 9 12
REMARK H PARENT 3 5
REMARK Flexibility Score: inf
ROOT
ATOM      1  C   UNL     1       8.419  -0.710  -2.001  1.00  0.00     0.127 C 
ENDROOT
BRANCH   1   2
ATOM      2  C   UNL     1       8.381  -1.917  -2.861  1.00  0.00     0.303 C 
ATOM      3  O   UNL     1       7.290  -2.412  -3.239  1.00  0.00    -0.252 OA
BRANCH   2   4
ATOM      4  O   UNL     1       9.551  -2.533  -3.272  1.00  0.00    -0.481 OA
ATOM      5  H   UNL     1       9.524  -3.512  -3.572  1.00  0.00     0.296 HD
ENDBRANCH   2   4
ENDBRANCH   1   2
BRANCH   1   6
ATOM      6  C   UNL     1       7.069  -0.062  -2.038  1.00  0.00     0.047 C 
BRANCH   6   7
ATOM      7  C   UNL     1       6.466   0.131  -0.720  1.00  0.00    -0.047 A 
ATOM      8  C   UNL     1       5.802   1.297  -0.415  1.00  0.00     0.004 A 
ATOM      9  C   UNL     1       6.568  -0.869   0.218  1.00  0.00     0.004 A 
ATOM     10  C   UNL     1       5.250   1.413   0.863  1.00  0.00     0.000 A 
ATOM     11  C   UNL     1       6.022  -0.753   1.481  1.00  0.00     0.000 A 
ATOM     12  C   UNL     1       5.355   0.412   1.795  1.00  0.00     0.000 A 
ENDBRANCH   6   7
ENDBRANCH   1   6
TORSDOF 4
ENDMDL
MODEL 3
REMARK VINA RESULT:      -6.8      3.368      5.078
REMARK SMILES O=C(O)CCc1ccccc1
REMARK SMILES IDX 4 1 2 2 1 3 3 4 5 6 6 7 7 8 11 9 8 10 10 11 9 12
REMARK H PARENT 3 5
REMARK Flexibility Score: inf
ROOT
ATOM      1  C   UNL     1       5.014   1.783   0.679  1.00  0.00     0.127 C 
ENDROOT
BRANCH   1   2
ATOM      2  C   UNL     1       4.497   1.115   1.896  1.00  0.00     0.303 C 
ATOM      3  O   UNL     1       5.154   0.212   2.472  1.00  0.00    -0.252 OA
BRANCH   2   4
ATOM      4  O   UNL     1       3.270   1.469   2.434  1.00  0.00    -0.481 OA
ATOM      5  H   UNL     1       2.728   0.769   2.949  1.00  0.00     0.296 HD
ENDBRANCH   2   4
ENDBRANCH   1   2
BRANCH   1   6
ATOM      6  C   UNL     1       6.511   1.785   0.743  1.00  0.00     0.047 C 
BRANCH   6   7
ATOM      7  C   UNL     1       7.153   1.042  -0.341  1.00  0.00    -0.047 A 
ATOM      8  C   UNL     1       8.481   1.239  -0.638  1.00  0.00     0.004 A 
ATOM      9  C   UNL     1       6.412   0.136  -1.064  1.00  0.00     0.004 A 
ATOM     10  C   UNL     1       9.029   0.494  -1.685  1.00  0.00     0.000 A 
ATOM     11  C   UNL     1       6.955  -0.599  -2.099  1.00  0.00     0.000 A 
ATOM     12  C   UNL     1       8.285  -0.408  -2.404  1.00  0.00     0.000 A 
ENDBRANCH   6   7
ENDBRANCH   1   6
TORSDOF 4
ENDMDL
MODEL 4
REMARK VINA RESULT:      -6.6      1.943      2.298
REMARK SMILES O=C(O)CCc1ccccc1
REMARK SMILES IDX 4 1 2 2 1 3 3 4 5 6 6 7 7 8 11 9 8 10 10 11 9 12
REMARK H PARENT 3 5
REMARK Flexibility Score: inf
ROOT
ATOM      1  C   UNL     1       8.250   0.109  -2.154  1.00  0.00     0.127 C 
ENDROOT
BRANCH   1   2
ATOM      2  C   UNL     1       9.369   0.319  -1.205  1.00  0.00     0.303 C 
ATOM      3  O   UNL     1       9.486  -0.384  -0.171  1.00  0.00    -0.252 OA
BRANCH   2   4
ATOM      4  O   UNL     1      10.318   1.302  -1.433  1.00  0.00    -0.481 OA
ATOM      5  H   UNL     1      11.312   1.059  -1.388  1.00  0.00     0.296 HD
ENDBRANCH   2   4
ENDBRANCH   1   2
BRANCH   1   6
ATOM      6  C   UNL     1       7.159  -0.630  -1.441  1.00  0.00     0.047 C 
BRANCH   6   7
ATOM      7  C   UNL     1       6.367   0.205  -0.539  1.00  0.00    -0.047 A 
ATOM      8  C   UNL     1       6.113  -0.198   0.751  1.00  0.00     0.004 A 
ATOM      9  C   UNL     1       5.875   1.406  -0.995  1.00  0.00     0.004 A 
ATOM     10  C   UNL     1       5.350   0.650   1.557  1.00  0.00     0.000 A 
ATOM     11  C   UNL     1       5.120   2.243  -0.198  1.00  0.00     0.000 A 
ATOM     12  C   UNL     1       4.861   1.847   1.096  1.00  0.00     0.000 A 
ENDBRANCH   6   7
ENDBRANCH   1   6
TORSDOF 4
ENDMDL
MODEL 5
REMARK VINA RESULT:      -6.5      3.709      5.104
REMARK SMILES O=C(O)CCc1ccccc1
REMARK SMILES IDX 4 1 2 2 1 3 3 4 5 6 6 7 7 8 11 9 8 10 10 11 9 12
REMARK H PARENT 3 5
REMARK Flexibility Score: inf
ROOT
ATOM      1  C   UNL     1       5.363   2.917   0.057  1.00  0.00     0.127 C 
ENDROOT
BRANCH   1   2
ATOM      2  C   UNL     1       6.209   3.859   0.828  1.00  0.00     0.303 C 
ATOM      3  O   UNL     1       6.853   4.772   0.255  1.00  0.00    -0.252 OA
BRANCH   2   4
ATOM      4  O   UNL     1       6.313   3.756   2.205  1.00  0.00    -0.481 OA
ATOM      5  H   UNL     1       7.236   3.626   2.630  1.00  0.00     0.296 HD
ENDBRANCH   2   4
ENDBRANCH   1   2
BRANCH   1   6
ATOM      6  C   UNL     1       5.262   1.636   0.829  1.00  0.00     0.047 C 
BRANCH   6   7
ATOM      7  C   UNL     1       6.052   0.541   0.269  1.00  0.00    -0.047 A 
ATOM      8  C   UNL     1       6.394   0.530  -1.063  1.00  0.00     0.004 A 
ATOM      9  C   UNL     1       6.454  -0.486   1.092  1.00  0.00     0.004 A 
ATOM     10  C   UNL     1       7.150  -0.548  -1.529  1.00  0.00     0.000 A 
ATOM     11  C   UNL     1       7.201  -1.551   0.629  1.00  0.00     0.000 A 
ATOM     12  C   UNL     1       7.548  -1.569  -0.704  1.00  0.00     0.000 A 
ENDBRANCH   6   7
ENDBRANCH   1   6
TORSDOF 4
ENDMDL
