@<TRIPOS>MOLECULE
/home/cewinharhar/GITHUB/reincatalyze/data/processed/docking_pred/2023_Apr_20-15:07/2481e5cfc04dcfc4c7035fb6b8b96c3a7d203934_ligand_2.pdbqt
 12 12 0 0 0
SMALL
GASTEIGER

@<TRIPOS>ATOM
      1  C          8.4190   -0.7100   -2.0010 C.3     1  UNL1        0.1270
      2  C          8.3810   -1.9170   -2.8610 C.2     1  UNL1        0.3030
      3  O          7.2900   -2.4120   -3.2390 O.2     1  UNL1       -0.2520
      4  O          9.5510   -2.5330   -3.2720 O.3     1  UNL1       -0.4810
      5  H          9.5240   -3.5120   -3.5720 H       1  UNL1        0.2960
      6  C          7.0690   -0.0620   -2.0380 C.3     1  UNL1        0.0470
      7  C          6.4660    0.1310   -0.7200 C.2     1  UNL1       -0.0470
      8  C          5.8020    1.2970   -0.4150 C.2     1  UNL1        0.0040
      9  C          6.5680   -0.8690    0.2180 C.2     1  UNL1        0.0040
     10  C          5.2500    1.4130    0.8630 C.2     1  UNL1        0.0000
     11  C          6.0220   -0.7530    1.4810 C.2     1  UNL1        0.0000
     12  C          5.3550    0.4120    1.7950 C.2     1  UNL1        0.0000
@<TRIPOS>BOND
     1     5     4    1
     2     4     2    1
     3     3     2    2
     4     2     1    1
     5     6     1    1
     6     6     7    1
     7     7     8    2
     8     7     9    1
     9     8    10    1
    10     9    11    2
    11    10    12    2
    12    11    12    1
