@<TRIPOS>MOLECULE
/home/cewinharhar/GITHUB/reincatalyze/data/processed/docking_pred/2023_Apr_20-15:07/25ea22f039de2039e6eb222be1b9c38742a73e8b_ligand_2.pdbqt
 12 12 0 0 0
SMALL
GASTEIGER

@<TRIPOS>ATOM
      1  C          8.4560   -0.6090   -2.1470 C.3     1  UNL1        0.1270
      2  C          8.4980   -1.8840   -2.9010 C.2     1  UNL1        0.3030
      3  O          9.5820   -2.4860   -3.1020 O.2     1  UNL1       -0.2520
      4  O          7.3380   -2.4490   -3.4060 O.3     1  UNL1       -0.4810
      5  H          7.2940   -3.4620   -3.5440 H       1  UNL1        0.2960
      6  C          7.0430   -0.1110   -2.1420 C.3     1  UNL1        0.0470
      7  C          6.4790    0.0640   -0.8050 C.2     1  UNL1       -0.0470
      8  C          6.6070   -0.9200    0.1470 C.2     1  UNL1        0.0040
      9  C          5.8160    1.2320   -0.5040 C.2     1  UNL1        0.0040
     10  C          6.0450   -0.6840    1.4040 C.2     1  UNL1        0.0000
     11  C          5.2600    1.4630    0.7380 C.2     1  UNL1        0.0000
     12  C          5.3840    0.4820    1.6980 C.2     1  UNL1        0.0000
@<TRIPOS>BOND
     1     5     4    1
     2     4     2    1
     3     3     2    2
     4     2     1    1
     5     1     6    1
     6     6     7    1
     7     7     9    2
     8     7     8    1
     9     9    11    1
    10     8    10    2
    11    11    12    2
    12    10    12    1
