MODEL 1
REMARK VINA RESULT:      -7.1      0.000      0.000
REMARK SMILES O=C(O)CCc1ccccc1
REMARK SMILES IDX 4 1 2 2 1 3 3 4 5 6 6 7 7 8 11 9 8 10 10 11 9 12
REMARK H PARENT 3 5
REMARK Flexibility Score: inf
ROOT
ATOM      1  C   UNL     1       8.456  -0.609  -2.147  1.00  0.00     0.127 C 
ENDROOT
BRANCH   1   2
ATOM      2  C   UNL     1       8.498  -1.884  -2.901  1.00  0.00     0.303 C 
ATOM      3  O   UNL     1       9.582  -2.486  -3.102  1.00  0.00    -0.252 OA
BRANCH   2   4
ATOM      4  O   UNL     1       7.338  -2.449  -3.406  1.00  0.00    -0.481 OA
ATOM      5  H   UNL     1       7.294  -3.462  -3.544  1.00  0.00     0.296 HD
ENDBRANCH   2   4
ENDBRANCH   1   2
BRANCH   1   6
ATOM      6  C   UNL     1       7.043  -0.111  -2.142  1.00  0.00     0.047 C 
BRANCH   6   7
ATOM      7  C   UNL     1       6.479   0.064  -0.805  1.00  0.00    -0.047 A 
ATOM      8  C   UNL     1       6.607  -0.920   0.147  1.00  0.00     0.004 A 
ATOM      9  C   UNL     1       5.816   1.232  -0.504  1.00  0.00     0.004 A 
ATOM     10  C   UNL     1       6.045  -0.684   1.404  1.00  0.00     0.000 A 
ATOM     11  C   UNL     1       5.260   1.463   0.738  1.00  0.00     0.000 A 
ATOM     12  C   UNL     1       5.384   0.482   1.698  1.00  0.00     0.000 A 
ENDBRANCH   6   7
ENDBRANCH   1   6
TORSDOF 4
ENDMDL
MODEL 2
REMARK VINA RESULT:      -7.0      0.146      1.734
REMARK SMILES O=C(O)CCc1ccccc1
REMARK SMILES IDX 4 1 2 2 1 3 3 4 5 6 6 7 7 8 11 9 8 10 10 11 9 12
REMARK H PARENT 3 5
REMARK Flexibility Score: inf
ROOT
ATOM      1  C   UNL     1       8.396  -0.653  -2.059  1.00  0.00     0.127 C 
ENDROOT
BRANCH   1   2
ATOM      2  C   UNL     1       8.373  -1.893  -2.871  1.00  0.00     0.303 C 
ATOM      3  O   UNL     1       7.289  -2.410  -3.239  1.00  0.00    -0.252 OA
BRANCH   2   4
ATOM      4  O   UNL     1       9.551  -2.519  -3.245  1.00  0.00    -0.481 OA
ATOM      5  H   UNL     1       9.516  -3.473  -3.613  1.00  0.00     0.296 HD
ENDBRANCH   2   4
ENDBRANCH   1   2
BRANCH   1   6
ATOM      6  C   UNL     1       7.017  -0.067  -2.057  1.00  0.00     0.047 C 
BRANCH   6   7
ATOM      7  C   UNL     1       6.445   0.102  -0.722  1.00  0.00    -0.047 A 
ATOM      8  C   UNL     1       5.807   1.269  -0.373  1.00  0.00     0.004 A 
ATOM      9  C   UNL     1       6.550  -0.924   0.188  1.00  0.00     0.004 A 
ATOM     10  C   UNL     1       5.284   1.361   0.919  1.00  0.00     0.000 A 
ATOM     11  C   UNL     1       6.032  -0.832   1.465  1.00  0.00     0.000 A 
ATOM     12  C   UNL     1       5.392   0.334   1.823  1.00  0.00     0.000 A 
ENDBRANCH   6   7
ENDBRANCH   1   6
TORSDOF 4
ENDMDL
MODEL 3
REMARK VINA RESULT:      -6.6      1.376      1.676
REMARK SMILES O=C(O)CCc1ccccc1
REMARK SMILES IDX 4 1 2 2 1 3 3 4 5 6 6 7 7 8 11 9 8 10 10 11 9 12
REMARK H PARENT 3 5
REMARK Flexibility Score: inf
ROOT
ATOM      1  C   UNL     1       8.187  -0.322  -2.486  1.00  0.00     0.127 C 
ENDROOT
BRANCH   1   2
ATOM      2  C   UNL     1       8.404  -1.713  -2.949  1.00  0.00     0.303 C 
ATOM      3  O   UNL     1       9.551  -2.223  -2.960  1.00  0.00    -0.252 OA
BRANCH   2   4
ATOM      4  O   UNL     1       7.343  -2.489  -3.386  1.00  0.00    -0.481 OA
ATOM      5  H   UNL     1       7.021  -2.399  -4.354  1.00  0.00     0.296 HD
ENDBRANCH   2   4
ENDBRANCH   1   2
BRANCH   1   6
ATOM      6  C   UNL     1       6.886  -0.271  -1.744  1.00  0.00     0.047 C 
BRANCH   6   7
ATOM      7  C   UNL     1       6.770   0.860  -0.825  1.00  0.00    -0.047 A 
ATOM      8  C   UNL     1       7.879   1.365  -0.187  1.00  0.00     0.004 A 
ATOM      9  C   UNL     1       5.533   1.420  -0.603  1.00  0.00     0.004 A 
ATOM     10  C   UNL     1       7.693   2.447   0.676  1.00  0.00     0.000 A 
ATOM     11  C   UNL     1       5.351   2.490   0.251  1.00  0.00     0.000 A 
ATOM     12  C   UNL     1       6.457   3.002   0.894  1.00  0.00     0.000 A 
ENDBRANCH   6   7
ENDBRANCH   1   6
TORSDOF 4
ENDMDL
MODEL 4
REMARK VINA RESULT:      -6.4      3.417      5.116
REMARK SMILES O=C(O)CCc1ccccc1
REMARK SMILES IDX 4 1 2 2 1 3 3 4 5 6 6 7 7 8 11 9 8 10 10 11 9 12
REMARK H PARENT 3 5
REMARK Flexibility Score: inf
ROOT
ATOM      1  C   UNL     1       4.921   1.807   0.787  1.00  0.00     0.127 C 
ENDROOT
BRANCH   1   2
ATOM      2  C   UNL     1       4.434   1.083   1.985  1.00  0.00     0.303 C 
ATOM      3  O   UNL     1       5.119   0.177   2.521  1.00  0.00    -0.252 OA
BRANCH   2   4
ATOM      4  O   UNL     1       3.205   1.388   2.548  1.00  0.00    -0.481 OA
ATOM      5  H   UNL     1       2.475   0.671   2.576  1.00  0.00     0.296 HD
ENDBRANCH   2   4
ENDBRANCH   1   2
BRANCH   1   6
ATOM      6  C   UNL     1       6.414   1.902   0.869  1.00  0.00     0.047 C 
BRANCH   6   7
ATOM      7  C   UNL     1       7.114   1.205  -0.209  1.00  0.00    -0.047 A 
ATOM      8  C   UNL     1       6.421   0.438  -1.117  1.00  0.00     0.004 A 
ATOM      9  C   UNL     1       8.481   1.325  -0.309  1.00  0.00     0.004 A 
ATOM     10  C   UNL     1       7.155  -0.199  -2.121  1.00  0.00     0.000 A 
ATOM     11  C   UNL     1       9.204   0.695  -1.302  1.00  0.00     0.000 A 
ATOM     12  C   UNL     1       8.518  -0.076  -2.215  1.00  0.00     0.000 A 
ENDBRANCH   6   7
ENDBRANCH   1   6
TORSDOF 4
ENDMDL
MODEL 5
REMARK VINA RESULT:      -6.4      4.610      5.439
REMARK SMILES O=C(O)CCc1ccccc1
REMARK SMILES IDX 4 1 2 2 1 3 3 4 5 6 6 7 7 8 11 9 8 10 10 11 9 12
REMARK H PARENT 3 5
REMARK Flexibility Score: inf
ROOT
ATOM      1  C   UNL     1       7.523  -0.281   0.992  1.00  0.00     0.127 C 
ENDROOT
BRANCH   1   2
ATOM      2  C   UNL     1       6.618  -1.096   1.837  1.00  0.00     0.303 C 
ATOM      3  O   UNL     1       5.905  -0.566   2.725  1.00  0.00    -0.252 OA
BRANCH   2   4
ATOM      4  O   UNL     1       6.533  -2.468   1.669  1.00  0.00    -0.481 OA
ATOM      5  H   UNL     1       5.698  -2.869   1.234  1.00  0.00     0.296 HD
ENDBRANCH   2   4
ENDBRANCH   1   2
BRANCH   1   6
ATOM      6  C   UNL     1       7.908   0.945   1.761  1.00  0.00     0.047 C 
BRANCH   6   7
ATOM      7  C   UNL     1       9.323   0.998   2.126  1.00  0.00    -0.047 A 
ATOM      8  C   UNL     1       9.783   1.932   3.025  1.00  0.00     0.004 A 
ATOM      9  C   UNL     1      10.196   0.097   1.561  1.00  0.00     0.004 A 
ATOM     10  C   UNL     1      11.147   1.923   3.328  1.00  0.00     0.000 A 
ATOM     11  C   UNL     1      11.544   0.090   1.861  1.00  0.00     0.000 A 
ATOM     12  C   UNL     1      12.013   1.023   2.760  1.00  0.00     0.000 A 
ENDBRANCH   6   7
ENDBRANCH   1   6
TORSDOF 4
ENDMDL
