@<TRIPOS>MOLECULE
/home/cewinharhar/GITHUB/reincatalyze/data/processed/docking_pred/2023_Apr_20-15:07/25ea22f039de2039e6eb222be1b9c38742a73e8b_ligand_2.pdbqt
 12 12 0 0 0
SMALL
GASTEIGER

@<TRIPOS>ATOM
      1  C          7.5230   -0.2810    0.9920 C.3     1  UNL1        0.1270
      2  C          6.6180   -1.0960    1.8370 C.2     1  UNL1        0.3030
      3  O          5.9050   -0.5660    2.7250 O.2     1  UNL1       -0.2520
      4  O          6.5330   -2.4680    1.6690 O.3     1  UNL1       -0.4810
      5  H          5.6980   -2.8690    1.2340 H       1  UNL1        0.2960
      6  C          7.9080    0.9450    1.7610 C.3     1  UNL1        0.0470
      7  C          9.3230    0.9980    2.1260 C.2     1  UNL1       -0.0470
      8  C          9.7830    1.9320    3.0250 C.2     1  UNL1        0.0040
      9  C         10.1960    0.0970    1.5610 C.2     1  UNL1        0.0040
     10  C         11.1470    1.9230    3.3280 C.2     1  UNL1        0.0000
     11  C         11.5440    0.0900    1.8610 C.2     1  UNL1        0.0000
     12  C         12.0130    1.0230    2.7600 C.2     1  UNL1        0.0000
@<TRIPOS>BOND
     1     1     6    1
     2     1     2    1
     3     5     4    1
     4     9    11    1
     5     9     7    2
     6     4     2    1
     7     6     7    1
     8     2     3    2
     9    11    12    2
    10     7     8    1
    11    12    10    1
    12     8    10    2
