@<TRIPOS>MOLECULE
/home/cewinharhar/GITHUB/reincatalyze/data/processed/docking_pred/2023_Apr_20-15:07/25ea22f039de2039e6eb222be1b9c38742a73e8b_ligand_2.pdbqt
 12 12 0 0 0
SMALL
GASTEIGER

@<TRIPOS>ATOM
      1  C          4.9210    1.8070    0.7870 C.3     1  UNL1        0.1270
      2  C          4.4340    1.0830    1.9850 C.2     1  UNL1        0.3030
      3  O          5.1190    0.1770    2.5210 O.2     1  UNL1       -0.2520
      4  O          3.2050    1.3880    2.5480 O.3     1  UNL1       -0.4810
      5  H          2.4750    0.6710    2.5760 H       1  UNL1        0.2960
      6  C          6.4140    1.9020    0.8690 C.3     1  UNL1        0.0470
      7  C          7.1140    1.2050   -0.2090 C.2     1  UNL1       -0.0470
      8  C          6.4210    0.4380   -1.1170 C.2     1  UNL1        0.0040
      9  C          8.4810    1.3250   -0.3090 C.2     1  UNL1        0.0040
     10  C          7.1550   -0.1990   -2.1210 C.2     1  UNL1        0.0000
     11  C          9.2040    0.6950   -1.3020 C.2     1  UNL1        0.0000
     12  C          8.5180   -0.0760   -2.2150 C.2     1  UNL1        0.0000
@<TRIPOS>BOND
     1    12    10    2
     2    12    11    1
     3    10     8    1
     4    11     9    2
     5     8     7    2
     6     9     7    1
     7     7     6    1
     8     1     6    1
     9     1     2    1
    10     2     3    2
    11     2     4    1
    12     4     5    1
