@<TRIPOS>MOLECULE
/home/cewinharhar/GITHUB/reincatalyze/data/processed/docking_pred/2023_Apr_20-15:07/25ea22f039de2039e6eb222be1b9c38742a73e8b_ligand_2.pdbqt
 12 12 0 0 0
SMALL
GASTEIGER

@<TRIPOS>ATOM
      1  C          8.1870   -0.3220   -2.4860 C.3     1  UNL1        0.1270
      2  C          8.4040   -1.7130   -2.9490 C.2     1  UNL1        0.3030
      3  O          9.5510   -2.2230   -2.9600 O.2     1  UNL1       -0.2520
      4  O          7.3430   -2.4890   -3.3860 O.3     1  UNL1       -0.4810
      5  H          7.0210   -2.3990   -4.3540 H       1  UNL1        0.2960
      6  C          6.8860   -0.2710   -1.7440 C.3     1  UNL1        0.0470
      7  C          6.7700    0.8600   -0.8250 C.2     1  UNL1       -0.0470
      8  C          7.8790    1.3650   -0.1870 C.2     1  UNL1        0.0040
      9  C          5.5330    1.4200   -0.6030 C.2     1  UNL1        0.0040
     10  C          7.6930    2.4470    0.6760 C.2     1  UNL1        0.0000
     11  C          5.3510    2.4900    0.2510 C.2     1  UNL1        0.0000
     12  C          6.4570    3.0020    0.8940 C.2     1  UNL1        0.0000
@<TRIPOS>BOND
     1     5     4    1
     2     4     2    1
     3     3     2    2
     4     2     1    1
     5     1     6    1
     6     6     7    1
     7     7     9    2
     8     7     8    1
     9     9    11    1
    10     8    10    2
    11    11    12    2
    12    10    12    1
