@<TRIPOS>MOLECULE
/home/cewinharhar/GITHUB/reincatalyze/data/processed/docking_pred/2023_Apr_20-15:07/25f547df8c587039729a955c6f4cb3c83005f49c_ligand_2.pdbqt
 12 12 0 0 0
SMALL
GASTEIGER

@<TRIPOS>ATOM
      1  C          8.1660   -1.5720    1.1630 C.3     1  UNL1        0.1270
      2  C          8.4820   -2.7790    0.3630 C.2     1  UNL1        0.3030
      3  O          9.1360   -3.7320    0.8540 O.2     1  UNL1       -0.2520
      4  O          8.0630   -2.8880   -0.9530 O.3     1  UNL1       -0.4810
      5  H          7.9360   -2.0390   -1.5100 H       1  UNL1        0.2960
      6  C          6.6760   -1.4590    1.2760 C.3     1  UNL1        0.0470
      7  C          6.1380   -0.1910    0.7860 C.2     1  UNL1       -0.0470
      8  C          5.3840    0.6160    1.6060 C.2     1  UNL1        0.0040
      9  C          6.3950    0.1920   -0.5100 C.2     1  UNL1        0.0040
     10  C          4.9020    1.8140    1.0720 C.2     1  UNL1        0.0000
     11  C          5.9180    1.3760   -1.0360 C.2     1  UNL1        0.0000
     12  C          5.1610    2.1900   -0.2220 C.2     1  UNL1        0.0000
@<TRIPOS>BOND
     1     5     4    1
     2    11     9    1
     3    11    12    2
     4     4     2    1
     5     9     7    2
     6    12    10    1
     7     2     3    2
     8     2     1    1
     9     7     6    1
    10     7     8    1
    11    10     8    2
    12     1     6    1
