@<TRIPOS>MOLECULE
/home/cewinharhar/GITHUB/reincatalyze/data/processed/docking_pred/2023_Apr_20-15:07/25f547df8c587039729a955c6f4cb3c83005f49c_ligand_2.pdbqt
 12 12 0 0 0
SMALL
GASTEIGER

@<TRIPOS>ATOM
      1  C          8.4220    0.6230   -1.7390 C.3     1  UNL1        0.1270
      2  C          9.5720    0.2690   -0.8730 C.2     1  UNL1        0.3030
      3  O          9.4420   -0.5330    0.0850 O.2     1  UNL1       -0.2520
      4  O         10.8250    0.8160   -1.0970 O.3     1  UNL1       -0.4810
      5  H         11.0300    1.2420   -2.0050 H       1  UNL1        0.2960
      6  C          7.2650   -0.2520   -1.3660 C.3     1  UNL1        0.0470
      7  C          6.3860    0.3260   -0.3500 C.2     1  UNL1       -0.0470
      8  C          5.7670    1.5350   -0.5620 C.2     1  UNL1        0.0040
      9  C          6.1810   -0.3560    0.8270 C.2     1  UNL1        0.0040
     10  C          4.9400    2.0270    0.4510 C.2     1  UNL1        0.0000
     11  C          5.3640    0.1310    1.8270 C.2     1  UNL1        0.0000
     12  C          4.7400    1.3430    1.6240 C.2     1  UNL1        0.0000
@<TRIPOS>BOND
     1     5     4    1
     2     1     6    1
     3     1     2    1
     4     6     7    1
     5     4     2    1
     6     2     3    2
     7     8     7    2
     8     8    10    1
     9     7     9    1
    10    10    12    2
    11     9    11    2
    12    12    11    1
