@<TRIPOS>MOLECULE
/home/cewinharhar/GITHUB/reincatalyze/data/processed/docking_pred/2023_Apr_20-15:07/25f547df8c587039729a955c6f4cb3c83005f49c_ligand_2.pdbqt
 12 12 0 0 0
SMALL
GASTEIGER

@<TRIPOS>ATOM
      1  C          8.4130   -0.7150   -2.0110 C.3     1  UNL1        0.1270
      2  C          8.3820   -1.9250   -2.8660 C.2     1  UNL1        0.3030
      3  O          7.2950   -2.4230   -3.2500 O.2     1  UNL1       -0.2520
      4  O          9.5570   -2.5410   -3.2660 O.3     1  UNL1       -0.4810
      5  H          9.5200   -3.4940   -3.6390 H       1  UNL1        0.2960
      6  C          7.0560   -0.0800   -2.0450 C.3     1  UNL1        0.0470
      7  C          6.4600    0.1200   -0.7250 C.2     1  UNL1       -0.0470
      8  C          5.7980    1.2880   -0.4220 C.2     1  UNL1        0.0040
      9  C          6.5640   -0.8770    0.2170 C.2     1  UNL1        0.0040
     10  C          5.2520    1.4100    0.8580 C.2     1  UNL1        0.0000
     11  C          6.0240   -0.7540    1.4820 C.2     1  UNL1        0.0000
     12  C          5.3610    0.4130    1.7940 C.2     1  UNL1        0.0000
@<TRIPOS>BOND
     1     5     4    1
     2     4     2    1
     3     3     2    2
     4     2     1    1
     5     6     1    1
     6     6     7    1
     7     7     8    2
     8     7     9    1
     9     8    10    1
    10     9    11    2
    11    10    12    2
    12    11    12    1
