@<TRIPOS>MOLECULE
/home/cewinharhar/GITHUB/reincatalyze/data/processed/docking_pred/2023_Apr_20-15:07/25f547df8c587039729a955c6f4cb3c83005f49c_ligand_2.pdbqt
 12 12 0 0 0
SMALL
GASTEIGER

@<TRIPOS>ATOM
      1  C          8.4500   -0.5590   -2.2250 C.3     1  UNL1        0.1270
      2  C          8.4700   -1.8700   -2.9150 C.2     1  UNL1        0.3030
      3  O          9.5390   -2.5130   -3.0610 O.2     1  UNL1       -0.2520
      4  O          7.3050   -2.4240   -3.4210 O.3     1  UNL1       -0.4810
      5  H          6.4010   -2.0950   -3.0700 H       1  UNL1        0.2960
      6  C          7.0300   -0.0890   -2.1470 C.3     1  UNL1        0.0470
      7  C          6.5100    0.0080   -0.7840 C.2     1  UNL1       -0.0470
      8  C          6.6540   -1.0360    0.1000 C.2     1  UNL1        0.0040
      9  C          5.8720    1.1620   -0.3900 C.2     1  UNL1        0.0040
     10  C          6.1340   -0.8730    1.3860 C.2     1  UNL1        0.0000
     11  C          5.3580    1.3210    0.8820 C.2     1  UNL1        0.0000
     12  C          5.4980    0.2800    1.7730 C.2     1  UNL1        0.0000
@<TRIPOS>BOND
     1     4     5    1
     2     4     2    1
     3     3     2    2
     4     2     1    1
     5     1     6    1
     6     6     7    1
     7     7     9    2
     8     7     8    1
     9     9    11    1
    10     8    10    2
    11    11    12    2
    12    10    12    1
