MODEL 1
REMARK VINA RESULT:      -7.3      0.000      0.000
REMARK SMILES O=C(O)CCc1ccccc1
REMARK SMILES IDX 4 1 2 2 1 3 3 4 5 6 6 7 7 8 11 9 8 10 10 11 9 12
REMARK H PARENT 3 5
REMARK Flexibility Score: inf
ROOT
ATOM      1  C   UNL     1       8.450  -0.559  -2.225  1.00  0.00     0.127 C 
ENDROOT
BRANCH   1   2
ATOM      2  C   UNL     1       8.470  -1.870  -2.915  1.00  0.00     0.303 C 
ATOM      3  O   UNL     1       9.539  -2.513  -3.061  1.00  0.00    -0.252 OA
BRANCH   2   4
ATOM      4  O   UNL     1       7.305  -2.424  -3.421  1.00  0.00    -0.481 OA
ATOM      5  H   UNL     1       6.401  -2.095  -3.070  1.00  0.00     0.296 HD
ENDBRANCH   2   4
ENDBRANCH   1   2
BRANCH   1   6
ATOM      6  C   UNL     1       7.030  -0.089  -2.147  1.00  0.00     0.047 C 
BRANCH   6   7
ATOM      7  C   UNL     1       6.510   0.008  -0.784  1.00  0.00    -0.047 A 
ATOM      8  C   UNL     1       6.654  -1.036   0.100  1.00  0.00     0.004 A 
ATOM      9  C   UNL     1       5.872   1.162  -0.390  1.00  0.00     0.004 A 
ATOM     10  C   UNL     1       6.134  -0.873   1.386  1.00  0.00     0.000 A 
ATOM     11  C   UNL     1       5.358   1.321   0.882  1.00  0.00     0.000 A 
ATOM     12  C   UNL     1       5.498   0.280   1.773  1.00  0.00     0.000 A 
ENDBRANCH   6   7
ENDBRANCH   1   6
TORSDOF 4
ENDMDL
MODEL 2
REMARK VINA RESULT:      -7.3      0.178      1.735
REMARK SMILES O=C(O)CCc1ccccc1
REMARK SMILES IDX 4 1 2 2 1 3 3 4 5 6 6 7 7 8 11 9 8 10 10 11 9 12
REMARK H PARENT 3 5
REMARK Flexibility Score: inf
ROOT
ATOM      1  C   UNL     1       8.413  -0.715  -2.011  1.00  0.00     0.127 C 
ENDROOT
BRANCH   1   2
ATOM      2  C   UNL     1       8.382  -1.925  -2.866  1.00  0.00     0.303 C 
ATOM      3  O   UNL     1       7.295  -2.423  -3.250  1.00  0.00    -0.252 OA
BRANCH   2   4
ATOM      4  O   UNL     1       9.557  -2.541  -3.266  1.00  0.00    -0.481 OA
ATOM      5  H   UNL     1       9.520  -3.494  -3.639  1.00  0.00     0.296 HD
ENDBRANCH   2   4
ENDBRANCH   1   2
BRANCH   1   6
ATOM      6  C   UNL     1       7.056  -0.080  -2.045  1.00  0.00     0.047 C 
BRANCH   6   7
ATOM      7  C   UNL     1       6.460   0.120  -0.725  1.00  0.00    -0.047 A 
ATOM      8  C   UNL     1       5.798   1.288  -0.422  1.00  0.00     0.004 A 
ATOM      9  C   UNL     1       6.564  -0.877   0.217  1.00  0.00     0.004 A 
ATOM     10  C   UNL     1       5.252   1.410   0.858  1.00  0.00     0.000 A 
ATOM     11  C   UNL     1       6.024  -0.754   1.482  1.00  0.00     0.000 A 
ATOM     12  C   UNL     1       5.361   0.413   1.794  1.00  0.00     0.000 A 
ENDBRANCH   6   7
ENDBRANCH   1   6
TORSDOF 4
ENDMDL
MODEL 3
REMARK VINA RESULT:      -6.8      3.379      5.050
REMARK SMILES O=C(O)CCc1ccccc1
REMARK SMILES IDX 4 1 2 2 1 3 3 4 5 6 6 7 7 8 11 9 8 10 10 11 9 12
REMARK H PARENT 3 5
REMARK Flexibility Score: inf
ROOT
ATOM      1  C   UNL     1       4.999   1.779   0.702  1.00  0.00     0.127 C 
ENDROOT
BRANCH   1   2
ATOM      2  C   UNL     1       4.478   1.112   1.918  1.00  0.00     0.303 C 
ATOM      3  O   UNL     1       5.132   0.208   2.495  1.00  0.00    -0.252 OA
BRANCH   2   4
ATOM      4  O   UNL     1       3.250   1.467   2.452  1.00  0.00    -0.481 OA
ATOM      5  H   UNL     1       2.695   0.762   2.945  1.00  0.00     0.296 HD
ENDBRANCH   2   4
ENDBRANCH   1   2
BRANCH   1   6
ATOM      6  C   UNL     1       6.496   1.755   0.757  1.00  0.00     0.047 C 
BRANCH   6   7
ATOM      7  C   UNL     1       7.119   1.003  -0.331  1.00  0.00    -0.047 A 
ATOM      8  C   UNL     1       6.399   0.073  -1.045  1.00  0.00     0.004 A 
ATOM      9  C   UNL     1       8.439   1.236  -0.638  1.00  0.00     0.004 A 
ATOM     10  C   UNL     1       7.058  -0.608  -2.071  1.00  0.00     0.000 A 
ATOM     11  C   UNL     1       9.089   0.561  -1.653  1.00  0.00     0.000 A 
ATOM     12  C   UNL     1       8.375  -0.372  -2.373  1.00  0.00     0.000 A 
ENDBRANCH   6   7
ENDBRANCH   1   6
TORSDOF 4
ENDMDL
MODEL 4
REMARK VINA RESULT:      -6.6      2.050      2.716
REMARK SMILES O=C(O)CCc1ccccc1
REMARK SMILES IDX 4 1 2 2 1 3 3 4 5 6 6 7 7 8 11 9 8 10 10 11 9 12
REMARK H PARENT 3 5
REMARK Flexibility Score: inf
ROOT
ATOM      1  C   UNL     1       8.422   0.623  -1.739  1.00  0.00     0.127 C 
ENDROOT
BRANCH   1   2
ATOM      2  C   UNL     1       9.572   0.269  -0.873  1.00  0.00     0.303 C 
ATOM      3  O   UNL     1       9.442  -0.533   0.085  1.00  0.00    -0.252 OA
BRANCH   2   4
ATOM      4  O   UNL     1      10.825   0.816  -1.097  1.00  0.00    -0.481 OA
ATOM      5  H   UNL     1      11.030   1.242  -2.005  1.00  0.00     0.296 HD
ENDBRANCH   2   4
ENDBRANCH   1   2
BRANCH   1   6
ATOM      6  C   UNL     1       7.265  -0.252  -1.366  1.00  0.00     0.047 C 
BRANCH   6   7
ATOM      7  C   UNL     1       6.386   0.326  -0.350  1.00  0.00    -0.047 A 
ATOM      8  C   UNL     1       5.767   1.535  -0.562  1.00  0.00     0.004 A 
ATOM      9  C   UNL     1       6.181  -0.356   0.827  1.00  0.00     0.004 A 
ATOM     10  C   UNL     1       4.940   2.027   0.451  1.00  0.00     0.000 A 
ATOM     11  C   UNL     1       5.364   0.131   1.827  1.00  0.00     0.000 A 
ATOM     12  C   UNL     1       4.740   1.343   1.624  1.00  0.00     0.000 A 
ENDBRANCH   6   7
ENDBRANCH   1   6
TORSDOF 4
ENDMDL
MODEL 5
REMARK VINA RESULT:      -6.6      1.894      2.904
REMARK SMILES O=C(O)CCc1ccccc1
REMARK SMILES IDX 4 1 2 2 1 3 3 4 5 6 6 7 7 8 11 9 8 10 10 11 9 12
REMARK H PARENT 3 5
REMARK Flexibility Score: inf
ROOT
ATOM      1  C   UNL     1       8.166  -1.572   1.163  1.00  0.00     0.127 C 
ENDROOT
BRANCH   1   2
ATOM      2  C   UNL     1       8.482  -2.779   0.363  1.00  0.00     0.303 C 
ATOM      3  O   UNL     1       9.136  -3.732   0.854  1.00  0.00    -0.252 OA
BRANCH   2   4
ATOM      4  O   UNL     1       8.063  -2.888  -0.953  1.00  0.00    -0.481 OA
ATOM      5  H   UNL     1       7.936  -2.039  -1.510  1.00  0.00     0.296 HD
ENDBRANCH   2   4
ENDBRANCH   1   2
BRANCH   1   6
ATOM      6  C   UNL     1       6.676  -1.459   1.276  1.00  0.00     0.047 C 
BRANCH   6   7
ATOM      7  C   UNL     1       6.138  -0.191   0.786  1.00  0.00    -0.047 A 
ATOM      8  C   UNL     1       5.384   0.616   1.606  1.00  0.00     0.004 A 
ATOM      9  C   UNL     1       6.395   0.192  -0.510  1.00  0.00     0.004 A 
ATOM     10  C   UNL     1       4.902   1.814   1.072  1.00  0.00     0.000 A 
ATOM     11  C   UNL     1       5.918   1.376  -1.036  1.00  0.00     0.000 A 
ATOM     12  C   UNL     1       5.161   2.190  -0.222  1.00  0.00     0.000 A 
ENDBRANCH   6   7
ENDBRANCH   1   6
TORSDOF 4
ENDMDL
