@<TRIPOS>MOLECULE
/home/cewinharhar/GITHUB/reincatalyze/data/processed/docking_pred/2023_Apr_20-15:07/25f547df8c587039729a955c6f4cb3c83005f49c_ligand_2.pdbqt
 12 12 0 0 0
SMALL
GASTEIGER

@<TRIPOS>ATOM
      1  C          4.9990    1.7790    0.7020 C.3     1  UNL1        0.1270
      2  C          4.4780    1.1120    1.9180 C.2     1  UNL1        0.3030
      3  O          5.1320    0.2080    2.4950 O.2     1  UNL1       -0.2520
      4  O          3.2500    1.4670    2.4520 O.3     1  UNL1       -0.4810
      5  H          2.6950    0.7620    2.9450 H       1  UNL1        0.2960
      6  C          6.4960    1.7550    0.7570 C.3     1  UNL1        0.0470
      7  C          7.1190    1.0030   -0.3310 C.2     1  UNL1       -0.0470
      8  C          6.3990    0.0730   -1.0450 C.2     1  UNL1        0.0040
      9  C          8.4390    1.2360   -0.6380 C.2     1  UNL1        0.0040
     10  C          7.0580   -0.6080   -2.0710 C.2     1  UNL1        0.0000
     11  C          9.0890    0.5610   -1.6530 C.2     1  UNL1        0.0000
     12  C          8.3750   -0.3720   -2.3730 C.2     1  UNL1        0.0000
@<TRIPOS>BOND
     1    12    10    2
     2    12    11    1
     3    10     8    1
     4    11     9    2
     5     8     7    2
     6     9     7    1
     7     7     6    1
     8     1     6    1
     9     1     2    1
    10     2     4    1
    11     2     3    2
    12     4     5    1
