@<TRIPOS>MOLECULE
/home/cewinharhar/GITHUB/reincatalyze/data/processed/docking_pred/2023_Apr_20-15:07/25fd2f55844bdf9fb92a90adf0bdb598f7a2ad59_ligand_2.pdbqt
 12 12 0 0 0
SMALL
GASTEIGER

@<TRIPOS>ATOM
      1  C          8.3890   -0.6270   -2.1390 C.3     1  UNL1        0.1270
      2  C          8.4450   -1.9000   -2.8950 C.2     1  UNL1        0.3030
      3  O          9.5350   -2.4900   -3.0960 O.2     1  UNL1       -0.2520
      4  O          7.2920   -2.4740   -3.4050 O.3     1  UNL1       -0.4810
      5  H          7.2580   -2.7390   -4.3930 H       1  UNL1        0.2960
      6  C          6.9640   -0.1670   -2.0950 C.3     1  UNL1        0.0470
      7  C          6.4420    0.0240   -0.7430 C.2     1  UNL1       -0.0470
      8  C          5.8340    1.2040   -0.3840 C.2     1  UNL1        0.0040
      9  C          6.5620   -0.9950    0.1730 C.2     1  UNL1        0.0040
     10  C          5.3570    1.3170    0.9240 C.2     1  UNL1        0.0000
     11  C          6.0910   -0.8820    1.4660 C.2     1  UNL1        0.0000
     12  C          5.4810    0.2970    1.8340 C.2     1  UNL1        0.0000
@<TRIPOS>BOND
     1     5     4    1
     2     4     2    1
     3     3     2    2
     4     2     1    1
     5     1     6    1
     6     6     7    1
     7     7     8    2
     8     7     9    1
     9     8    10    1
    10     9    11    2
    11    10    12    2
    12    11    12    1
