@<TRIPOS>MOLECULE
/home/cewinharhar/GITHUB/reincatalyze/data/processed/docking_pred/2023_Apr_20-15:07/25fd2f55844bdf9fb92a90adf0bdb598f7a2ad59_ligand_2.pdbqt
 12 12 0 0 0
SMALL
GASTEIGER

@<TRIPOS>ATOM
      1  C          8.2370    0.2740   -2.2230 C.3     1  UNL1        0.1270
      2  C          9.3540    0.3600   -1.2530 C.2     1  UNL1        0.3030
      3  O          9.4270   -0.4230   -0.2740 O.2     1  UNL1       -0.2520
      4  O         10.3520    1.3100   -1.4020 O.3     1  UNL1       -0.4810
      5  H         11.3280    1.0070   -1.4620 H       1  UNL1        0.2960
      6  C          7.1050   -0.4610   -1.5730 C.3     1  UNL1        0.0470
      7  C          6.3220    0.3540   -0.6450 C.2     1  UNL1       -0.0470
      8  C          5.8050    1.5660   -1.0380 C.2     1  UNL1        0.0040
      9  C          6.1040   -0.1070    0.6330 C.2     1  UNL1        0.0040
     10  C          5.0660    2.2910   -0.0990 C.2     1  UNL1        0.0000
     11  C          5.3740    0.6110    1.5600 C.2     1  UNL1        0.0000
     12  C          4.8530    1.8270    1.1750 C.2     1  UNL1        0.0000
@<TRIPOS>BOND
     1     1     6    1
     2     1     2    1
     3     6     7    1
     4     5     4    1
     5     4     2    1
     6     2     3    2
     7     8     7    2
     8     8    10    1
     9     7     9    1
    10    10    12    2
    11     9    11    2
    12    12    11    1
