@<TRIPOS>MOLECULE
/home/cewinharhar/GITHUB/reincatalyze/data/processed/docking_pred/2023_Apr_20-15:07/25fd2f55844bdf9fb92a90adf0bdb598f7a2ad59_ligand_2.pdbqt
 12 12 0 0 0
SMALL
GASTEIGER

@<TRIPOS>ATOM
      1  C          5.4860    2.7710   -0.0050 C.3     1  UNL1        0.1270
      2  C          6.2220    3.7500    0.8300 C.2     1  UNL1        0.3030
      3  O          6.1960    3.6860    2.0840 O.2     1  UNL1       -0.2520
      4  O          6.9600    4.7670    0.2460 O.3     1  UNL1       -0.4810
      5  H          6.7550    5.7400    0.4910 H       1  UNL1        0.2960
      6  C          4.9110    1.7220    0.8980 C.3     1  UNL1        0.0470
      7  C          5.7060    0.4980    0.9690 C.2     1  UNL1       -0.0470
      8  C          5.7890   -0.2200    2.1400 C.2     1  UNL1        0.0040
      9  C          6.3750    0.0650   -0.1530 C.2     1  UNL1        0.0040
     10  C          6.5660   -1.3800    2.1350 C.2     1  UNL1        0.0000
     11  C          7.1430   -1.0820   -0.1560 C.2     1  UNL1        0.0000
     12  C          7.2320   -1.8060    1.0130 C.2     1  UNL1        0.0000
@<TRIPOS>BOND
     1    11     9    1
     2    11    12    2
     3     9     7    2
     4     1     2    1
     5     1     6    1
     6     4     5    1
     7     4     2    1
     8     2     3    2
     9     6     7    1
    10     7     8    1
    11    12    10    1
    12    10     8    2
