@<TRIPOS>MOLECULE
/home/cewinharhar/GITHUB/reincatalyze/data/processed/docking_pred/2023_Apr_20-15:07/25fd2f55844bdf9fb92a90adf0bdb598f7a2ad59_ligand_2.pdbqt
 12 12 0 0 0
SMALL
GASTEIGER

@<TRIPOS>ATOM
      1  C          5.0450    1.8120    0.7360 C.3     1  UNL1        0.1270
      2  C          4.4910    1.1130    1.9200 C.2     1  UNL1        0.3030
      3  O          5.1210    0.1820    2.4800 O.2     1  UNL1       -0.2520
      4  O          3.2590    1.4700    2.4440 O.3     1  UNL1       -0.4810
      5  H          2.4070    1.2220    1.9330 H       1  UNL1        0.2960
      6  C          6.5390    1.7170    0.7900 C.3     1  UNL1        0.0470
      7  C          7.1260    0.9590   -0.3140 C.2     1  UNL1       -0.0470
      8  C          6.3960   -0.0010   -0.9750 C.2     1  UNL1        0.0040
      9  C          8.4240    1.2180   -0.6900 C.2     1  UNL1        0.0040
     10  C          7.0210   -0.6850   -2.0200 C.2     1  UNL1        0.0000
     11  C          9.0410    0.5400   -1.7230 C.2     1  UNL1        0.0000
     12  C          8.3160   -0.4240   -2.3900 C.2     1  UNL1        0.0000
@<TRIPOS>BOND
     1    12    10    2
     2    12    11    1
     3    10     8    1
     4    11     9    2
     5     8     7    2
     6     9     7    1
     7     7     6    1
     8     1     6    1
     9     1     2    1
    10     2     4    1
    11     2     3    2
    12     5     4    1
