MODEL 1
REMARK VINA RESULT:      -7.4      0.000      0.000
REMARK SMILES O=C(O)CCc1ccccc1
REMARK SMILES IDX 4 1 2 2 1 3 3 4 5 6 6 7 7 8 11 9 8 10 10 11 9 12
REMARK H PARENT 3 5
REMARK Flexibility Score: inf
ROOT
ATOM      1  C   UNL     1       8.468  -0.600  -2.174  1.00  0.00     0.127 C 
ENDROOT
BRANCH   1   2
ATOM      2  C   UNL     1       8.490  -1.888  -2.908  1.00  0.00     0.303 C 
ATOM      3  O   UNL     1       9.565  -2.509  -3.100  1.00  0.00    -0.252 OA
BRANCH   2   4
ATOM      4  O   UNL     1       7.322  -2.442  -3.405  1.00  0.00    -0.481 OA
ATOM      5  H   UNL     1       7.054  -2.258  -4.376  1.00  0.00     0.296 HD
ENDBRANCH   2   4
ENDBRANCH   1   2
BRANCH   1   6
ATOM      6  C   UNL     1       7.056  -0.100  -2.144  1.00  0.00     0.047 C 
BRANCH   6   7
ATOM      7  C   UNL     1       6.505   0.047  -0.798  1.00  0.00    -0.047 A 
ATOM      8  C   UNL     1       6.632  -0.963   0.128  1.00  0.00     0.004 A 
ATOM      9  C   UNL     1       5.856   1.212  -0.461  1.00  0.00     0.004 A 
ATOM     10  C   UNL     1       6.083  -0.754   1.394  1.00  0.00     0.000 A 
ATOM     11  C   UNL     1       5.313   1.417   0.792  1.00  0.00     0.000 A 
ATOM     12  C   UNL     1       5.436   0.410   1.724  1.00  0.00     0.000 A 
ENDBRANCH   6   7
ENDBRANCH   1   6
TORSDOF 4
ENDMDL
MODEL 2
REMARK VINA RESULT:      -7.4      0.108      1.440
REMARK SMILES O=C(O)CCc1ccccc1
REMARK SMILES IDX 4 1 2 2 1 3 3 4 5 6 6 7 7 8 11 9 8 10 10 11 9 12
REMARK H PARENT 3 5
REMARK Flexibility Score: inf
ROOT
ATOM      1  C   UNL     1       8.389  -0.627  -2.139  1.00  0.00     0.127 C 
ENDROOT
BRANCH   1   2
ATOM      2  C   UNL     1       8.445  -1.900  -2.895  1.00  0.00     0.303 C 
ATOM      3  O   UNL     1       9.535  -2.490  -3.096  1.00  0.00    -0.252 OA
BRANCH   2   4
ATOM      4  O   UNL     1       7.292  -2.474  -3.405  1.00  0.00    -0.481 OA
ATOM      5  H   UNL     1       7.258  -2.739  -4.393  1.00  0.00     0.296 HD
ENDBRANCH   2   4
ENDBRANCH   1   2
BRANCH   1   6
ATOM      6  C   UNL     1       6.964  -0.167  -2.095  1.00  0.00     0.047 C 
BRANCH   6   7
ATOM      7  C   UNL     1       6.442   0.024  -0.743  1.00  0.00    -0.047 A 
ATOM      8  C   UNL     1       5.834   1.204  -0.384  1.00  0.00     0.004 A 
ATOM      9  C   UNL     1       6.562  -0.995   0.173  1.00  0.00     0.004 A 
ATOM     10  C   UNL     1       5.357   1.317   0.924  1.00  0.00     0.000 A 
ATOM     11  C   UNL     1       6.091  -0.882   1.466  1.00  0.00     0.000 A 
ATOM     12  C   UNL     1       5.481   0.297   1.834  1.00  0.00     0.000 A 
ENDBRANCH   6   7
ENDBRANCH   1   6
TORSDOF 4
ENDMDL
MODEL 3
REMARK VINA RESULT:      -6.8      3.364      5.049
REMARK SMILES O=C(O)CCc1ccccc1
REMARK SMILES IDX 4 1 2 2 1 3 3 4 5 6 6 7 7 8 11 9 8 10 10 11 9 12
REMARK H PARENT 3 5
REMARK Flexibility Score: inf
ROOT
ATOM      1  C   UNL     1       5.045   1.812   0.736  1.00  0.00     0.127 C 
ENDROOT
BRANCH   1   2
ATOM      2  C   UNL     1       4.491   1.113   1.920  1.00  0.00     0.303 C 
ATOM      3  O   UNL     1       5.121   0.182   2.480  1.00  0.00    -0.252 OA
BRANCH   2   4
ATOM      4  O   UNL     1       3.259   1.470   2.444  1.00  0.00    -0.481 OA
ATOM      5  H   UNL     1       2.407   1.222   1.933  1.00  0.00     0.296 HD
ENDBRANCH   2   4
ENDBRANCH   1   2
BRANCH   1   6
ATOM      6  C   UNL     1       6.539   1.717   0.790  1.00  0.00     0.047 C 
BRANCH   6   7
ATOM      7  C   UNL     1       7.126   0.959  -0.314  1.00  0.00    -0.047 A 
ATOM      8  C   UNL     1       6.396  -0.001  -0.975  1.00  0.00     0.004 A 
ATOM      9  C   UNL     1       8.424   1.218  -0.690  1.00  0.00     0.004 A 
ATOM     10  C   UNL     1       7.021  -0.685  -2.020  1.00  0.00     0.000 A 
ATOM     11  C   UNL     1       9.041   0.540  -1.723  1.00  0.00     0.000 A 
ATOM     12  C   UNL     1       8.316  -0.424  -2.390  1.00  0.00     0.000 A 
ENDBRANCH   6   7
ENDBRANCH   1   6
TORSDOF 4
ENDMDL
MODEL 4
REMARK VINA RESULT:      -6.7      3.828      4.920
REMARK SMILES O=C(O)CCc1ccccc1
REMARK SMILES IDX 4 1 2 2 1 3 3 4 5 6 6 7 7 8 11 9 8 10 10 11 9 12
REMARK H PARENT 3 5
REMARK Flexibility Score: inf
ROOT
ATOM      1  C   UNL     1       5.486   2.771  -0.005  1.00  0.00     0.127 C 
ENDROOT
BRANCH   1   2
ATOM      2  C   UNL     1       6.222   3.750   0.830  1.00  0.00     0.303 C 
ATOM      3  O   UNL     1       6.196   3.686   2.084  1.00  0.00    -0.252 OA
BRANCH   2   4
ATOM      4  O   UNL     1       6.960   4.767   0.246  1.00  0.00    -0.481 OA
ATOM      5  H   UNL     1       6.755   5.740   0.491  1.00  0.00     0.296 HD
ENDBRANCH   2   4
ENDBRANCH   1   2
BRANCH   1   6
ATOM      6  C   UNL     1       4.911   1.722   0.898  1.00  0.00     0.047 C 
BRANCH   6   7
ATOM      7  C   UNL     1       5.706   0.498   0.969  1.00  0.00    -0.047 A 
ATOM      8  C   UNL     1       5.789  -0.220   2.140  1.00  0.00     0.004 A 
ATOM      9  C   UNL     1       6.375   0.065  -0.153  1.00  0.00     0.004 A 
ATOM     10  C   UNL     1       6.566  -1.380   2.135  1.00  0.00     0.000 A 
ATOM     11  C   UNL     1       7.143  -1.082  -0.156  1.00  0.00     0.000 A 
ATOM     12  C   UNL     1       7.232  -1.806   1.013  1.00  0.00     0.000 A 
ENDBRANCH   6   7
ENDBRANCH   1   6
TORSDOF 4
ENDMDL
MODEL 5
REMARK VINA RESULT:      -6.6      1.922      2.654
REMARK SMILES O=C(O)CCc1ccccc1
REMARK SMILES IDX 4 1 2 2 1 3 3 4 5 6 6 7 7 8 11 9 8 10 10 11 9 12
REMARK H PARENT 3 5
REMARK Flexibility Score: inf
ROOT
ATOM      1  C   UNL     1       8.237   0.274  -2.223  1.00  0.00     0.127 C 
ENDROOT
BRANCH   1   2
ATOM      2  C   UNL     1       9.354   0.360  -1.253  1.00  0.00     0.303 C 
ATOM      3  O   UNL     1       9.427  -0.423  -0.274  1.00  0.00    -0.252 OA
BRANCH   2   4
ATOM      4  O   UNL     1      10.352   1.310  -1.402  1.00  0.00    -0.481 OA
ATOM      5  H   UNL     1      11.328   1.007  -1.462  1.00  0.00     0.296 HD
ENDBRANCH   2   4
ENDBRANCH   1   2
BRANCH   1   6
ATOM      6  C   UNL     1       7.105  -0.461  -1.573  1.00  0.00     0.047 C 
BRANCH   6   7
ATOM      7  C   UNL     1       6.322   0.354  -0.645  1.00  0.00    -0.047 A 
ATOM      8  C   UNL     1       5.805   1.566  -1.038  1.00  0.00     0.004 A 
ATOM      9  C   UNL     1       6.104  -0.107   0.633  1.00  0.00     0.004 A 
ATOM     10  C   UNL     1       5.066   2.291  -0.099  1.00  0.00     0.000 A 
ATOM     11  C   UNL     1       5.374   0.611   1.560  1.00  0.00     0.000 A 
ATOM     12  C   UNL     1       4.853   1.827   1.175  1.00  0.00     0.000 A 
ENDBRANCH   6   7
ENDBRANCH   1   6
TORSDOF 4
ENDMDL
