@<TRIPOS>MOLECULE
/home/cewinharhar/GITHUB/reincatalyze/data/processed/docking_pred/2023_Apr_20-15:07/25fd2f55844bdf9fb92a90adf0bdb598f7a2ad59_ligand_2.pdbqt
 12 12 0 0 0
SMALL
GASTEIGER

@<TRIPOS>ATOM
      1  C          8.4680   -0.6000   -2.1740 C.3     1  UNL1        0.1270
      2  C          8.4900   -1.8880   -2.9080 C.2     1  UNL1        0.3030
      3  O          9.5650   -2.5090   -3.1000 O.2     1  UNL1       -0.2520
      4  O          7.3220   -2.4420   -3.4050 O.3     1  UNL1       -0.4810
      5  H          7.0540   -2.2580   -4.3760 H       1  UNL1        0.2960
      6  C          7.0560   -0.1000   -2.1440 C.3     1  UNL1        0.0470
      7  C          6.5050    0.0470   -0.7980 C.2     1  UNL1       -0.0470
      8  C          6.6320   -0.9630    0.1280 C.2     1  UNL1        0.0040
      9  C          5.8560    1.2120   -0.4610 C.2     1  UNL1        0.0040
     10  C          6.0830   -0.7540    1.3940 C.2     1  UNL1        0.0000
     11  C          5.3130    1.4170    0.7920 C.2     1  UNL1        0.0000
     12  C          5.4360    0.4100    1.7240 C.2     1  UNL1        0.0000
@<TRIPOS>BOND
     1     5     4    1
     2     4     2    1
     3     3     2    2
     4     2     1    1
     5     1     6    1
     6     6     7    1
     7     7     9    2
     8     7     8    1
     9     9    11    1
    10     8    10    2
    11    11    12    2
    12    10    12    1
