@<TRIPOS>MOLECULE
/home/cewinharhar/GITHUB/reincatalyze/data/processed/docking_pred/2023_Apr_20-15:07/2734134eb9e7fe1a9a1e6734a306fe03ba38cdbb_ligand_2.pdbqt
 12 12 0 0 0
SMALL
GASTEIGER

@<TRIPOS>ATOM
      1  C          8.2590    0.1710   -2.1670 C.3     1  UNL1        0.1270
      2  C          9.3800    0.3330   -1.2110 C.2     1  UNL1        0.3030
      3  O          9.4730   -0.3900   -0.1890 O.2     1  UNL1       -0.2520
      4  O         10.3590    1.2910   -1.4210 O.3     1  UNL1       -0.4810
      5  H         11.1550    1.0690   -2.0260 H       1  UNL1        0.2960
      6  C          7.1630   -0.5880   -1.4830 C.3     1  UNL1        0.0470
      7  C          6.3730    0.2180   -0.5530 C.2     1  UNL1       -0.0470
      8  C          6.1510   -0.2100    0.7350 C.2     1  UNL1        0.0040
      9  C          5.8520    1.4180   -0.9800 C.2     1  UNL1        0.0040
     10  C          5.3880    0.6120    1.5680 C.2     1  UNL1        0.0000
     11  C          5.0980    2.2280   -0.1550 C.2     1  UNL1        0.0000
     12  C          4.8700    1.8070    1.1370 C.2     1  UNL1        0.0000
@<TRIPOS>BOND
     1     1     6    1
     2     1     2    1
     3     5     4    1
     4     6     7    1
     5     4     2    1
     6     2     3    2
     7     9     7    2
     8     9    11    1
     9     7     8    1
    10    11    12    2
    11     8    10    2
    12    12    10    1
