@<TRIPOS>MOLECULE
/home/cewinharhar/GITHUB/reincatalyze/data/processed/docking_pred/2023_Apr_20-15:07/2734134eb9e7fe1a9a1e6734a306fe03ba38cdbb_ligand_2.pdbqt
 12 12 0 0 0
SMALL
GASTEIGER

@<TRIPOS>ATOM
      1  C          5.0320    1.7800    0.7160 C.3     1  UNL1        0.1270
      2  C          4.5370    1.0790    1.9240 C.2     1  UNL1        0.3030
      3  O          3.4150    1.3510    2.4200 O.2     1  UNL1       -0.2520
      4  O          5.3010    0.1020    2.5420 O.3     1  UNL1       -0.4810
      5  H          5.1540   -0.8800    2.2930 H       1  UNL1        0.2960
      6  C          6.5300    1.7620    0.7420 C.3     1  UNL1        0.0470
      7  C          7.1350    0.9960   -0.3460 C.2     1  UNL1       -0.0470
      8  C          6.3990    0.0680   -1.0470 C.2     1  UNL1        0.0040
      9  C          8.4540    1.2140   -0.6680 C.2     1  UNL1        0.0040
     10  C          7.0410   -0.6260   -2.0740 C.2     1  UNL1        0.0000
     11  C          9.0880    0.5260   -1.6840 C.2     1  UNL1        0.0000
     12  C          8.3580   -0.4060   -2.3900 C.2     1  UNL1        0.0000
@<TRIPOS>BOND
     1    12    10    2
     2    12    11    1
     3    10     8    1
     4    11     9    2
     5     8     7    2
     6     9     7    1
     7     7     6    1
     8     1     6    1
     9     1     2    1
    10     2     3    2
    11     2     4    1
    12     5     4    1
