MODEL 1
REMARK VINA RESULT:      -7.3      0.000      0.000
REMARK SMILES O=C(O)CCc1ccccc1
REMARK SMILES IDX 4 1 2 2 1 3 3 4 5 6 6 7 7 8 11 9 8 10 10 11 9 12
REMARK H PARENT 3 5
REMARK Flexibility Score: inf
ROOT
ATOM      1  C   UNL     1       8.433  -0.582  -2.205  1.00  0.00     0.127 C 
ENDROOT
BRANCH   1   2
ATOM      2  C   UNL     1       8.477  -1.879  -2.921  1.00  0.00     0.303 C 
ATOM      3  O   UNL     1       9.558  -2.498  -3.081  1.00  0.00    -0.252 OA
BRANCH   2   4
ATOM      4  O   UNL     1       7.321  -2.445  -3.434  1.00  0.00    -0.481 OA
ATOM      5  H   UNL     1       6.545  -2.661  -2.802  1.00  0.00     0.296 HD
ENDBRANCH   2   4
ENDBRANCH   1   2
BRANCH   1   6
ATOM      6  C   UNL     1       7.009  -0.119  -2.155  1.00  0.00     0.047 C 
BRANCH   6   7
ATOM      7  C   UNL     1       6.483   0.040  -0.801  1.00  0.00    -0.047 A 
ATOM      8  C   UNL     1       6.614  -0.966   0.128  1.00  0.00     0.004 A 
ATOM      9  C   UNL     1       5.853   1.215  -0.459  1.00  0.00     0.004 A 
ATOM     10  C   UNL     1       6.088  -0.745   1.403  1.00  0.00     0.000 A 
ATOM     11  C   UNL     1       5.334   1.432   0.802  1.00  0.00     0.000 A 
ATOM     12  C   UNL     1       5.460   0.428   1.738  1.00  0.00     0.000 A 
ENDBRANCH   6   7
ENDBRANCH   1   6
TORSDOF 4
ENDMDL
MODEL 2
REMARK VINA RESULT:      -7.2      0.126      1.732
REMARK SMILES O=C(O)CCc1ccccc1
REMARK SMILES IDX 4 1 2 2 1 3 3 4 5 6 6 7 7 8 11 9 8 10 10 11 9 12
REMARK H PARENT 3 5
REMARK Flexibility Score: inf
ROOT
ATOM      1  C   UNL     1       8.399  -0.648  -2.082  1.00  0.00     0.127 C 
ENDROOT
BRANCH   1   2
ATOM      2  C   UNL     1       8.369  -1.898  -2.877  1.00  0.00     0.303 C 
ATOM      3  O   UNL     1       7.283  -2.406  -3.251  1.00  0.00    -0.252 OA
BRANCH   2   4
ATOM      4  O   UNL     1       9.544  -2.543  -3.231  1.00  0.00    -0.481 OA
ATOM      5  H   UNL     1       9.822  -3.389  -2.726  1.00  0.00     0.296 HD
ENDBRANCH   2   4
ENDBRANCH   1   2
BRANCH   1   6
ATOM      6  C   UNL     1       7.020  -0.063  -2.074  1.00  0.00     0.047 C 
BRANCH   6   7
ATOM      7  C   UNL     1       6.454   0.106  -0.736  1.00  0.00    -0.047 A 
ATOM      8  C   UNL     1       5.797   1.264  -0.392  1.00  0.00     0.004 A 
ATOM      9  C   UNL     1       6.583  -0.912   0.180  1.00  0.00     0.004 A 
ATOM     10  C   UNL     1       5.280   1.355   0.903  1.00  0.00     0.000 A 
ATOM     11  C   UNL     1       6.072  -0.820   1.460  1.00  0.00     0.000 A 
ATOM     12  C   UNL     1       5.412   0.338   1.813  1.00  0.00     0.000 A 
ENDBRANCH   6   7
ENDBRANCH   1   6
TORSDOF 4
ENDMDL
MODEL 3
REMARK VINA RESULT:      -6.7      3.373      5.071
REMARK SMILES O=C(O)CCc1ccccc1
REMARK SMILES IDX 4 1 2 2 1 3 3 4 5 6 6 7 7 8 11 9 8 10 10 11 9 12
REMARK H PARENT 3 5
REMARK Flexibility Score: inf
ROOT
ATOM      1  C   UNL     1       5.061   1.815   0.710  1.00  0.00     0.127 C 
ENDROOT
BRANCH   1   2
ATOM      2  C   UNL     1       4.515   1.127   1.904  1.00  0.00     0.303 C 
ATOM      3  O   UNL     1       5.156   0.212   2.477  1.00  0.00    -0.252 OA
BRANCH   2   4
ATOM      4  O   UNL     1       3.278   1.476   2.420  1.00  0.00    -0.481 OA
ATOM      5  H   UNL     1       3.133   1.452   3.433  1.00  0.00     0.296 HD
ENDBRANCH   2   4
ENDBRANCH   1   2
BRANCH   1   6
ATOM      6  C   UNL     1       6.557   1.756   0.776  1.00  0.00     0.047 C 
BRANCH   6   7
ATOM      7  C   UNL     1       7.172   1.018  -0.326  1.00  0.00    -0.047 A 
ATOM      8  C   UNL     1       8.485   1.236  -0.673  1.00  0.00     0.004 A 
ATOM      9  C   UNL     1       6.421   0.095  -1.017  1.00  0.00     0.004 A 
ATOM     10  C   UNL     1       9.006   0.495  -1.736  1.00  0.00     0.000 A 
ATOM     11  C   UNL     1       6.938  -0.637  -2.068  1.00  0.00     0.000 A 
ATOM     12  C   UNL     1       8.253  -0.424  -2.422  1.00  0.00     0.000 A 
ENDBRANCH   6   7
ENDBRANCH   1   6
TORSDOF 4
ENDMDL
MODEL 4
REMARK VINA RESULT:      -6.6      1.934      2.299
REMARK SMILES O=C(O)CCc1ccccc1
REMARK SMILES IDX 4 1 2 2 1 3 3 4 5 6 6 7 7 8 11 9 8 10 10 11 9 12
REMARK H PARENT 3 5
REMARK Flexibility Score: inf
ROOT
ATOM      1  C   UNL     1       8.259   0.171  -2.167  1.00  0.00     0.127 C 
ENDROOT
BRANCH   1   2
ATOM      2  C   UNL     1       9.380   0.333  -1.211  1.00  0.00     0.303 C 
ATOM      3  O   UNL     1       9.473  -0.390  -0.189  1.00  0.00    -0.252 OA
BRANCH   2   4
ATOM      4  O   UNL     1      10.359   1.291  -1.421  1.00  0.00    -0.481 OA
ATOM      5  H   UNL     1      11.155   1.069  -2.026  1.00  0.00     0.296 HD
ENDBRANCH   2   4
ENDBRANCH   1   2
BRANCH   1   6
ATOM      6  C   UNL     1       7.163  -0.588  -1.483  1.00  0.00     0.047 C 
BRANCH   6   7
ATOM      7  C   UNL     1       6.373   0.218  -0.553  1.00  0.00    -0.047 A 
ATOM      8  C   UNL     1       6.151  -0.210   0.735  1.00  0.00     0.004 A 
ATOM      9  C   UNL     1       5.852   1.418  -0.980  1.00  0.00     0.004 A 
ATOM     10  C   UNL     1       5.388   0.612   1.568  1.00  0.00     0.000 A 
ATOM     11  C   UNL     1       5.098   2.228  -0.155  1.00  0.00     0.000 A 
ATOM     12  C   UNL     1       4.870   1.807   1.137  1.00  0.00     0.000 A 
ENDBRANCH   6   7
ENDBRANCH   1   6
TORSDOF 4
ENDMDL
MODEL 5
REMARK VINA RESULT:      -6.6      3.336      5.097
REMARK SMILES O=C(O)CCc1ccccc1
REMARK SMILES IDX 4 1 2 2 1 3 3 4 5 6 6 7 7 8 11 9 8 10 10 11 9 12
REMARK H PARENT 3 5
REMARK Flexibility Score: inf
ROOT
ATOM      1  C   UNL     1       5.032   1.780   0.716  1.00  0.00     0.127 C 
ENDROOT
BRANCH   1   2
ATOM      2  C   UNL     1       4.537   1.079   1.924  1.00  0.00     0.303 C 
ATOM      3  O   UNL     1       3.415   1.351   2.420  1.00  0.00    -0.252 OA
BRANCH   2   4
ATOM      4  O   UNL     1       5.301   0.102   2.542  1.00  0.00    -0.481 OA
ATOM      5  H   UNL     1       5.154  -0.880   2.293  1.00  0.00     0.296 HD
ENDBRANCH   2   4
ENDBRANCH   1   2
BRANCH   1   6
ATOM      6  C   UNL     1       6.530   1.762   0.742  1.00  0.00     0.047 C 
BRANCH   6   7
ATOM      7  C   UNL     1       7.135   0.996  -0.346  1.00  0.00    -0.047 A 
ATOM      8  C   UNL     1       6.399   0.068  -1.047  1.00  0.00     0.004 A 
ATOM      9  C   UNL     1       8.454   1.214  -0.668  1.00  0.00     0.004 A 
ATOM     10  C   UNL     1       7.041  -0.626  -2.074  1.00  0.00     0.000 A 
ATOM     11  C   UNL     1       9.088   0.526  -1.684  1.00  0.00     0.000 A 
ATOM     12  C   UNL     1       8.358  -0.406  -2.390  1.00  0.00     0.000 A 
ENDBRANCH   6   7
ENDBRANCH   1   6
TORSDOF 4
ENDMDL
