@<TRIPOS>MOLECULE
/home/cewinharhar/GITHUB/reincatalyze/data/processed/docking_pred/2023_Apr_20-15:07/2734134eb9e7fe1a9a1e6734a306fe03ba38cdbb_ligand_2.pdbqt
 12 12 0 0 0
SMALL
GASTEIGER

@<TRIPOS>ATOM
      1  C          5.0610    1.8150    0.7100 C.3     1  UNL1        0.1270
      2  C          4.5150    1.1270    1.9040 C.2     1  UNL1        0.3030
      3  O          5.1560    0.2120    2.4770 O.2     1  UNL1       -0.2520
      4  O          3.2780    1.4760    2.4200 O.3     1  UNL1       -0.4810
      5  H          3.1330    1.4520    3.4330 H       1  UNL1        0.2960
      6  C          6.5570    1.7560    0.7760 C.3     1  UNL1        0.0470
      7  C          7.1720    1.0180   -0.3260 C.2     1  UNL1       -0.0470
      8  C          8.4850    1.2360   -0.6730 C.2     1  UNL1        0.0040
      9  C          6.4210    0.0950   -1.0170 C.2     1  UNL1        0.0040
     10  C          9.0060    0.4950   -1.7360 C.2     1  UNL1        0.0000
     11  C          6.9380   -0.6370   -2.0680 C.2     1  UNL1        0.0000
     12  C          8.2530   -0.4240   -2.4220 C.2     1  UNL1        0.0000
@<TRIPOS>BOND
     1    12    11    2
     2    12    10    1
     3    11     9    1
     4    10     8    2
     5     9     7    2
     6     8     7    1
     7     7     6    1
     8     1     6    1
     9     1     2    1
    10     2     4    1
    11     2     3    2
    12     4     5    1
