@<TRIPOS>MOLECULE
/home/cewinharhar/GITHUB/reincatalyze/data/processed/docking_pred/2023_Apr_20-15:07/2734134eb9e7fe1a9a1e6734a306fe03ba38cdbb_ligand_2.pdbqt
 12 12 0 0 0
SMALL
GASTEIGER

@<TRIPOS>ATOM
      1  C          8.4330   -0.5820   -2.2050 C.3     1  UNL1        0.1270
      2  C          8.4770   -1.8790   -2.9210 C.2     1  UNL1        0.3030
      3  O          9.5580   -2.4980   -3.0810 O.2     1  UNL1       -0.2520
      4  O          7.3210   -2.4450   -3.4340 O.3     1  UNL1       -0.4810
      5  H          6.5450   -2.6610   -2.8020 H       1  UNL1        0.2960
      6  C          7.0090   -0.1190   -2.1550 C.3     1  UNL1        0.0470
      7  C          6.4830    0.0400   -0.8010 C.2     1  UNL1       -0.0470
      8  C          6.6140   -0.9660    0.1280 C.2     1  UNL1        0.0040
      9  C          5.8530    1.2150   -0.4590 C.2     1  UNL1        0.0040
     10  C          6.0880   -0.7450    1.4030 C.2     1  UNL1        0.0000
     11  C          5.3340    1.4320    0.8020 C.2     1  UNL1        0.0000
     12  C          5.4600    0.4280    1.7380 C.2     1  UNL1        0.0000
@<TRIPOS>BOND
     1     4     2    1
     2     4     5    1
     3     3     2    2
     4     2     1    1
     5     1     6    1
     6     6     7    1
     7     7     9    2
     8     7     8    1
     9     9    11    1
    10     8    10    2
    11    11    12    2
    12    10    12    1
