@<TRIPOS>MOLECULE
/home/cewinharhar/GITHUB/reincatalyze/data/processed/docking_pred/2023_Apr_20-15:07/2734134eb9e7fe1a9a1e6734a306fe03ba38cdbb_ligand_2.pdbqt
 12 12 0 0 0
SMALL
GASTEIGER

@<TRIPOS>ATOM
      1  C          8.3990   -0.6480   -2.0820 C.3     1  UNL1        0.1270
      2  C          8.3690   -1.8980   -2.8770 C.2     1  UNL1        0.3030
      3  O          7.2830   -2.4060   -3.2510 O.2     1  UNL1       -0.2520
      4  O          9.5440   -2.5430   -3.2310 O.3     1  UNL1       -0.4810
      5  H          9.8220   -3.3890   -2.7260 H       1  UNL1        0.2960
      6  C          7.0200   -0.0630   -2.0740 C.3     1  UNL1        0.0470
      7  C          6.4540    0.1060   -0.7360 C.2     1  UNL1       -0.0470
      8  C          5.7970    1.2640   -0.3920 C.2     1  UNL1        0.0040
      9  C          6.5830   -0.9120    0.1800 C.2     1  UNL1        0.0040
     10  C          5.2800    1.3550    0.9030 C.2     1  UNL1        0.0000
     11  C          6.0720   -0.8200    1.4600 C.2     1  UNL1        0.0000
     12  C          5.4120    0.3380    1.8130 C.2     1  UNL1        0.0000
@<TRIPOS>BOND
     1     3     2    2
     2     4     2    1
     3     4     5    1
     4     2     1    1
     5     1     6    1
     6     6     7    1
     7     7     8    2
     8     7     9    1
     9     8    10    1
    10     9    11    2
    11    10    12    2
    12    11    12    1
