@<TRIPOS>MOLECULE
/home/cewinharhar/GITHUB/reincatalyze/data/processed/docking_pred/2023_Apr_20-15:07/2b606219d5526e18d91eeb9dfd7a568ae4147191_ligand_2.pdbqt
 12 12 0 0 0
SMALL
GASTEIGER

@<TRIPOS>ATOM
      1  C          8.4150   -0.5920   -2.1570 C.3     1  UNL1        0.1270
      2  C          8.4730   -1.8720   -2.9020 C.2     1  UNL1        0.3030
      3  O          9.5640   -2.4640   -3.0950 O.2     1  UNL1       -0.2520
      4  O          7.3210   -2.4520   -3.4070 O.3     1  UNL1       -0.4810
      5  H          6.4600   -1.9010   -3.4500 H       1  UNL1        0.2960
      6  C          6.9890   -0.1330   -2.1200 C.3     1  UNL1        0.0470
      7  C          6.4590    0.0510   -0.7700 C.2     1  UNL1       -0.0470
      8  C          5.8340    1.2230   -0.4140 C.2     1  UNL1        0.0040
      9  C          6.5900   -0.9670    0.1470 C.2     1  UNL1        0.0040
     10  C          5.3510    1.3280    0.8930 C.2     1  UNL1        0.0000
     11  C          6.1120   -0.8610    1.4380 C.2     1  UNL1        0.0000
     12  C          5.4850    0.3110    1.8030 C.2     1  UNL1        0.0000
@<TRIPOS>BOND
     1     5     4    1
     2     4     2    1
     3     3     2    2
     4     2     1    1
     5     1     6    1
     6     6     7    1
     7     7     8    2
     8     7     9    1
     9     8    10    1
    10     9    11    2
    11    10    12    2
    12    11    12    1
