@<TRIPOS>MOLECULE
/home/cewinharhar/GITHUB/reincatalyze/data/processed/docking_pred/2023_Apr_20-15:07/2b606219d5526e18d91eeb9dfd7a568ae4147191_ligand_2.pdbqt
 12 12 0 0 0
SMALL
GASTEIGER

@<TRIPOS>ATOM
      1  C          8.5010   -0.6550   -2.0890 C.3     1  UNL1        0.1270
      2  C          8.5020   -1.9050   -2.8850 C.2     1  UNL1        0.3030
      3  O          9.5680   -2.5230   -3.1250 O.2     1  UNL1       -0.2520
      4  O          7.3210   -2.4270   -3.3870 O.3     1  UNL1       -0.4810
      5  H          6.9530   -3.3000   -2.9990 H       1  UNL1        0.2960
      6  C          7.1140   -0.0880   -2.1030 C.3     1  UNL1        0.0470
      7  C          6.5230    0.0710   -0.7760 C.2     1  UNL1       -0.0470
      8  C          6.6430   -0.9210    0.1700 C.2     1  UNL1        0.0040
      9  C          5.8440    1.2290   -0.4770 C.2     1  UNL1        0.0040
     10  C          6.0540   -0.7010    1.4180 C.2     1  UNL1        0.0000
     11  C          5.2620    1.4450    0.7560 C.2     1  UNL1        0.0000
     12  C          5.3760    0.4560    1.7090 C.2     1  UNL1        0.0000
@<TRIPOS>BOND
     1     4     5    1
     2     4     2    1
     3     3     2    2
     4     2     1    1
     5     6     1    1
     6     6     7    1
     7     7     9    2
     8     7     8    1
     9     9    11    1
    10     8    10    2
    11    11    12    2
    12    10    12    1
