MODEL 1
REMARK VINA RESULT:      -7.4      0.000      0.000
REMARK SMILES O=C(O)CCc1ccccc1
REMARK SMILES IDX 4 1 2 2 1 3 3 4 5 6 6 7 7 8 11 9 8 10 10 11 9 12
REMARK H PARENT 3 5
REMARK Flexibility Score: inf
ROOT
ATOM      1  C   UNL     1       8.501  -0.655  -2.089  1.00  0.00     0.127 C 
ENDROOT
BRANCH   1   2
ATOM      2  C   UNL     1       8.502  -1.905  -2.885  1.00  0.00     0.303 C 
ATOM      3  O   UNL     1       9.568  -2.523  -3.125  1.00  0.00    -0.252 OA
BRANCH   2   4
ATOM      4  O   UNL     1       7.321  -2.427  -3.387  1.00  0.00    -0.481 OA
ATOM      5  H   UNL     1       6.953  -3.300  -2.999  1.00  0.00     0.296 HD
ENDBRANCH   2   4
ENDBRANCH   1   2
BRANCH   1   6
ATOM      6  C   UNL     1       7.114  -0.088  -2.103  1.00  0.00     0.047 C 
BRANCH   6   7
ATOM      7  C   UNL     1       6.523   0.071  -0.776  1.00  0.00    -0.047 A 
ATOM      8  C   UNL     1       6.643  -0.921   0.170  1.00  0.00     0.004 A 
ATOM      9  C   UNL     1       5.844   1.229  -0.477  1.00  0.00     0.004 A 
ATOM     10  C   UNL     1       6.054  -0.701   1.418  1.00  0.00     0.000 A 
ATOM     11  C   UNL     1       5.262   1.445   0.756  1.00  0.00     0.000 A 
ATOM     12  C   UNL     1       5.376   0.456   1.709  1.00  0.00     0.000 A 
ENDBRANCH   6   7
ENDBRANCH   1   6
TORSDOF 4
ENDMDL
MODEL 2
REMARK VINA RESULT:      -7.3      0.123      1.441
REMARK SMILES O=C(O)CCc1ccccc1
REMARK SMILES IDX 4 1 2 2 1 3 3 4 5 6 6 7 7 8 11 9 8 10 10 11 9 12
REMARK H PARENT 3 5
REMARK Flexibility Score: inf
ROOT
ATOM      1  C   UNL     1       8.415  -0.592  -2.157  1.00  0.00     0.127 C 
ENDROOT
BRANCH   1   2
ATOM      2  C   UNL     1       8.473  -1.872  -2.902  1.00  0.00     0.303 C 
ATOM      3  O   UNL     1       9.564  -2.464  -3.095  1.00  0.00    -0.252 OA
BRANCH   2   4
ATOM      4  O   UNL     1       7.321  -2.452  -3.407  1.00  0.00    -0.481 OA
ATOM      5  H   UNL     1       6.460  -1.901  -3.450  1.00  0.00     0.296 HD
ENDBRANCH   2   4
ENDBRANCH   1   2
BRANCH   1   6
ATOM      6  C   UNL     1       6.989  -0.133  -2.120  1.00  0.00     0.047 C 
BRANCH   6   7
ATOM      7  C   UNL     1       6.459   0.051  -0.770  1.00  0.00    -0.047 A 
ATOM      8  C   UNL     1       5.834   1.223  -0.414  1.00  0.00     0.004 A 
ATOM      9  C   UNL     1       6.590  -0.967   0.147  1.00  0.00     0.004 A 
ATOM     10  C   UNL     1       5.351   1.328   0.893  1.00  0.00     0.000 A 
ATOM     11  C   UNL     1       6.112  -0.861   1.438  1.00  0.00     0.000 A 
ATOM     12  C   UNL     1       5.485   0.311   1.803  1.00  0.00     0.000 A 
ENDBRANCH   6   7
ENDBRANCH   1   6
TORSDOF 4
ENDMDL
MODEL 3
REMARK VINA RESULT:      -6.8      3.358      5.065
REMARK SMILES O=C(O)CCc1ccccc1
REMARK SMILES IDX 4 1 2 2 1 3 3 4 5 6 6 7 7 8 11 9 8 10 10 11 9 12
REMARK H PARENT 3 5
REMARK Flexibility Score: inf
ROOT
ATOM      1  C   UNL     1       5.024   1.811   0.737  1.00  0.00     0.127 C 
ENDROOT
BRANCH   1   2
ATOM      2  C   UNL     1       4.487   1.111   1.928  1.00  0.00     0.303 C 
ATOM      3  O   UNL     1       5.132   0.191   2.488  1.00  0.00    -0.252 OA
BRANCH   2   4
ATOM      4  O   UNL     1       3.254   1.456   2.457  1.00  0.00    -0.481 OA
ATOM      5  H   UNL     1       3.182   1.683   3.453  1.00  0.00     0.296 HD
ENDBRANCH   2   4
ENDBRANCH   1   2
BRANCH   1   6
ATOM      6  C   UNL     1       6.520   1.745   0.787  1.00  0.00     0.047 C 
BRANCH   6   7
ATOM      7  C   UNL     1       7.120   1.001  -0.319  1.00  0.00    -0.047 A 
ATOM      8  C   UNL     1       6.383   0.083  -1.030  1.00  0.00     0.004 A 
ATOM      9  C   UNL     1       8.437   1.229  -0.646  1.00  0.00     0.004 A 
ATOM     10  C   UNL     1       7.021  -0.591  -2.075  1.00  0.00     0.000 A 
ATOM     11  C   UNL     1       9.066   0.562  -1.678  1.00  0.00     0.000 A 
ATOM     12  C   UNL     1       8.335  -0.360  -2.396  1.00  0.00     0.000 A 
ENDBRANCH   6   7
ENDBRANCH   1   6
TORSDOF 4
ENDMDL
MODEL 4
REMARK VINA RESULT:      -6.6      2.010      2.301
REMARK SMILES O=C(O)CCc1ccccc1
REMARK SMILES IDX 4 1 2 2 1 3 3 4 5 6 6 7 7 8 11 9 8 10 10 11 9 12
REMARK H PARENT 3 5
REMARK Flexibility Score: inf
ROOT
ATOM      1  C   UNL     1       8.413   0.612  -1.802  1.00  0.00     0.127 C 
ENDROOT
BRANCH   1   2
ATOM      2  C   UNL     1       9.552   0.282  -0.913  1.00  0.00     0.303 C 
ATOM      3  O   UNL     1       9.424  -0.534   0.033  1.00  0.00    -0.252 OA
BRANCH   2   4
ATOM      4  O   UNL     1      10.793   0.869  -1.101  1.00  0.00    -0.481 OA
ATOM      5  H   UNL     1      11.595   0.530  -0.563  1.00  0.00     0.296 HD
ENDBRANCH   2   4
ENDBRANCH   1   2
BRANCH   1   6
ATOM      6  C   UNL     1       7.259  -0.270  -1.435  1.00  0.00     0.047 C 
BRANCH   6   7
ATOM      7  C   UNL     1       6.410   0.271  -0.375  1.00  0.00    -0.047 A 
ATOM      8  C   UNL     1       6.214  -0.427   0.794  1.00  0.00     0.004 A 
ATOM      9  C   UNL     1       5.806   1.493  -0.557  1.00  0.00     0.004 A 
ATOM     10  C   UNL     1       5.392   0.151   1.764  1.00  0.00     0.000 A 
ATOM     11  C   UNL     1       4.993   2.063   0.403  1.00  0.00     0.000 A 
ATOM     12  C   UNL     1       4.791   1.370   1.577  1.00  0.00     0.000 A 
ENDBRANCH   6   7
ENDBRANCH   1   6
TORSDOF 4
ENDMDL
MODEL 5
REMARK VINA RESULT:      -6.5      1.878      2.839
REMARK SMILES O=C(O)CCc1ccccc1
REMARK SMILES IDX 4 1 2 2 1 3 3 4 5 6 6 7 7 8 11 9 8 10 10 11 9 12
REMARK H PARENT 3 5
REMARK Flexibility Score: inf
ROOT
ATOM      1  C   UNL     1       8.145  -1.625   1.183  1.00  0.00     0.127 C 
ENDROOT
BRANCH   1   2
ATOM      2  C   UNL     1       8.484  -2.814   0.366  1.00  0.00     0.303 C 
ATOM      3  O   UNL     1       9.164  -3.757   0.840  1.00  0.00    -0.252 OA
BRANCH   2   4
ATOM      4  O   UNL     1       8.058  -2.916  -0.949  1.00  0.00    -0.481 OA
ATOM      5  H   UNL     1       7.126  -3.290  -1.146  1.00  0.00     0.296 HD
ENDBRANCH   2   4
ENDBRANCH   1   2
BRANCH   1   6
ATOM      6  C   UNL     1       6.653  -1.511   1.252  1.00  0.00     0.047 C 
BRANCH   6   7
ATOM      7  C   UNL     1       6.132  -0.230   0.777  1.00  0.00    -0.047 A 
ATOM      8  C   UNL     1       5.400   0.584   1.610  1.00  0.00     0.004 A 
ATOM      9  C   UNL     1       6.385   0.159  -0.518  1.00  0.00     0.004 A 
ATOM     10  C   UNL     1       4.935   1.794   1.090  1.00  0.00     0.000 A 
ATOM     11  C   UNL     1       5.924   1.355  -1.031  1.00  0.00     0.000 A 
ATOM     12  C   UNL     1       5.189   2.176  -0.204  1.00  0.00     0.000 A 
ENDBRANCH   6   7
ENDBRANCH   1   6
TORSDOF 4
ENDMDL
