@<TRIPOS>MOLECULE
/home/cewinharhar/GITHUB/reincatalyze/data/processed/docking_pred/2023_Apr_20-15:07/2b606219d5526e18d91eeb9dfd7a568ae4147191_ligand_2.pdbqt
 12 12 0 0 0
SMALL
GASTEIGER

@<TRIPOS>ATOM
      1  C          8.1450   -1.6250    1.1830 C.3     1  UNL1        0.1270
      2  C          8.4840   -2.8140    0.3660 C.2     1  UNL1        0.3030
      3  O          9.1640   -3.7570    0.8400 O.2     1  UNL1       -0.2520
      4  O          8.0580   -2.9160   -0.9490 O.3     1  UNL1       -0.4810
      5  H          7.1260   -3.2900   -1.1460 H       1  UNL1        0.2960
      6  C          6.6530   -1.5110    1.2520 C.3     1  UNL1        0.0470
      7  C          6.1320   -0.2300    0.7770 C.2     1  UNL1       -0.0470
      8  C          5.4000    0.5840    1.6100 C.2     1  UNL1        0.0040
      9  C          6.3850    0.1590   -0.5180 C.2     1  UNL1        0.0040
     10  C          4.9350    1.7940    1.0900 C.2     1  UNL1        0.0000
     11  C          5.9240    1.3550   -1.0310 C.2     1  UNL1        0.0000
     12  C          5.1890    2.1760   -0.2040 C.2     1  UNL1        0.0000
@<TRIPOS>BOND
     1     5     4    1
     2    11     9    1
     3    11    12    2
     4     4     2    1
     5     9     7    2
     6    12    10    1
     7     2     3    2
     8     2     1    1
     9     7     6    1
    10     7     8    1
    11    10     8    2
    12     1     6    1
