@<TRIPOS>MOLECULE
/home/cewinharhar/GITHUB/reincatalyze/data/processed/docking_pred/2023_Apr_20-15:07/2b606219d5526e18d91eeb9dfd7a568ae4147191_ligand_2.pdbqt
 12 12 0 0 0
SMALL
GASTEIGER

@<TRIPOS>ATOM
      1  C          8.4130    0.6120   -1.8020 C.3     1  UNL1        0.1270
      2  C          9.5520    0.2820   -0.9130 C.2     1  UNL1        0.3030
      3  O          9.4240   -0.5340    0.0330 O.2     1  UNL1       -0.2520
      4  O         10.7930    0.8690   -1.1010 O.3     1  UNL1       -0.4810
      5  H         11.5950    0.5300   -0.5630 H       1  UNL1        0.2960
      6  C          7.2590   -0.2700   -1.4350 C.3     1  UNL1        0.0470
      7  C          6.4100    0.2710   -0.3750 C.2     1  UNL1       -0.0470
      8  C          6.2140   -0.4270    0.7940 C.2     1  UNL1        0.0040
      9  C          5.8060    1.4930   -0.5570 C.2     1  UNL1        0.0040
     10  C          5.3920    0.1510    1.7640 C.2     1  UNL1        0.0000
     11  C          4.9930    2.0630    0.4030 C.2     1  UNL1        0.0000
     12  C          4.7910    1.3700    1.5770 C.2     1  UNL1        0.0000
@<TRIPOS>BOND
     1     1     6    1
     2     1     2    1
     3     6     7    1
     4     4     2    1
     5     4     5    1
     6     2     3    2
     7     9     7    2
     8     9    11    1
     9     7     8    1
    10    11    12    2
    11     8    10    2
    12    12    10    1
