@<TRIPOS>MOLECULE
/home/cewinharhar/GITHUB/reincatalyze/data/processed/docking_pred/2023_Apr_20-15:07/2b606219d5526e18d91eeb9dfd7a568ae4147191_ligand_2.pdbqt
 12 12 0 0 0
SMALL
GASTEIGER

@<TRIPOS>ATOM
      1  C          5.0240    1.8110    0.7370 C.3     1  UNL1        0.1270
      2  C          4.4870    1.1110    1.9280 C.2     1  UNL1        0.3030
      3  O          5.1320    0.1910    2.4880 O.2     1  UNL1       -0.2520
      4  O          3.2540    1.4560    2.4570 O.3     1  UNL1       -0.4810
      5  H          3.1820    1.6830    3.4530 H       1  UNL1        0.2960
      6  C          6.5200    1.7450    0.7870 C.3     1  UNL1        0.0470
      7  C          7.1200    1.0010   -0.3190 C.2     1  UNL1       -0.0470
      8  C          6.3830    0.0830   -1.0300 C.2     1  UNL1        0.0040
      9  C          8.4370    1.2290   -0.6460 C.2     1  UNL1        0.0040
     10  C          7.0210   -0.5910   -2.0750 C.2     1  UNL1        0.0000
     11  C          9.0660    0.5620   -1.6780 C.2     1  UNL1        0.0000
     12  C          8.3350   -0.3600   -2.3960 C.2     1  UNL1        0.0000
@<TRIPOS>BOND
     1    12    10    2
     2    12    11    1
     3    10     8    1
     4    11     9    2
     5     8     7    2
     6     9     7    1
     7     7     6    1
     8     1     6    1
     9     1     2    1
    10     2     4    1
    11     2     3    2
    12     4     5    1
