MODEL 1
REMARK VINA RESULT:      -7.3      0.000      0.000
REMARK SMILES O=C(O)CCc1ccccc1
REMARK SMILES IDX 4 1 2 2 1 3 3 4 5 6 6 7 7 8 11 9 8 10 10 11 9 12
REMARK H PARENT 3 5
REMARK Flexibility Score: inf
ROOT
ATOM      1  C   UNL     1       8.463  -0.658  -2.101  1.00  0.00     0.127 C 
ENDROOT
BRANCH   1   2
ATOM      2  C   UNL     1       8.477  -1.911  -2.893  1.00  0.00     0.303 C 
ATOM      3  O   UNL     1       9.544  -2.542  -3.093  1.00  0.00    -0.252 OA
BRANCH   2   4
ATOM      4  O   UNL     1       7.309  -2.421  -3.435  1.00  0.00    -0.481 OA
ATOM      5  H   UNL     1       7.082  -3.409  -3.297  1.00  0.00     0.296 HD
ENDBRANCH   2   4
ENDBRANCH   1   2
BRANCH   1   6
ATOM      6  C   UNL     1       7.059  -0.136  -2.071  1.00  0.00     0.047 C 
BRANCH   6   7
ATOM      7  C   UNL     1       6.502  -0.004  -0.726  1.00  0.00    -0.047 A 
ATOM      8  C   UNL     1       6.642  -1.016   0.196  1.00  0.00     0.004 A 
ATOM      9  C   UNL     1       5.834   1.149  -0.386  1.00  0.00     0.004 A 
ATOM     10  C   UNL     1       6.086  -0.821   1.462  1.00  0.00     0.000 A 
ATOM     11  C   UNL     1       5.284   1.340   0.867  1.00  0.00     0.000 A 
ATOM     12  C   UNL     1       5.420   0.331   1.795  1.00  0.00     0.000 A 
ENDBRANCH   6   7
ENDBRANCH   1   6
TORSDOF 4
ENDMDL
MODEL 2
REMARK VINA RESULT:      -7.3      0.111      1.731
REMARK SMILES O=C(O)CCc1ccccc1
REMARK SMILES IDX 4 1 2 2 1 3 3 4 5 6 6 7 7 8 11 9 8 10 10 11 9 12
REMARK H PARENT 3 5
REMARK Flexibility Score: inf
ROOT
ATOM      1  C   UNL     1       8.403  -0.613  -2.118  1.00  0.00     0.127 C 
ENDROOT
BRANCH   1   2
ATOM      2  C   UNL     1       8.381  -1.881  -2.885  1.00  0.00     0.303 C 
ATOM      3  O   UNL     1       7.298  -2.414  -3.230  1.00  0.00    -0.252 OA
BRANCH   2   4
ATOM      4  O   UNL     1       9.560  -2.515  -3.243  1.00  0.00    -0.481 OA
ATOM      5  H   UNL     1       9.722  -3.479  -2.939  1.00  0.00     0.296 HD
ENDBRANCH   2   4
ENDBRANCH   1   2
BRANCH   1   6
ATOM      6  C   UNL     1       7.013  -0.056  -2.089  1.00  0.00     0.047 C 
BRANCH   6   7
ATOM      7  C   UNL     1       6.462   0.096  -0.743  1.00  0.00    -0.047 A 
ATOM      8  C   UNL     1       5.825   1.257  -0.371  1.00  0.00     0.004 A 
ATOM      9  C   UNL     1       6.584  -0.941   0.154  1.00  0.00     0.004 A 
ATOM     10  C   UNL     1       5.322   1.332   0.930  1.00  0.00     0.000 A 
ATOM     11  C   UNL     1       6.087  -0.864   1.439  1.00  0.00     0.000 A 
ATOM     12  C   UNL     1       5.449   0.296   1.821  1.00  0.00     0.000 A 
ENDBRANCH   6   7
ENDBRANCH   1   6
TORSDOF 4
ENDMDL
MODEL 3
REMARK VINA RESULT:      -6.7      3.369      5.068
REMARK SMILES O=C(O)CCc1ccccc1
REMARK SMILES IDX 4 1 2 2 1 3 3 4 5 6 6 7 7 8 11 9 8 10 10 11 9 12
REMARK H PARENT 3 5
REMARK Flexibility Score: inf
ROOT
ATOM      1  C   UNL     1       5.014   1.765   0.627  1.00  0.00     0.127 C 
ENDROOT
BRANCH   1   2
ATOM      2  C   UNL     1       4.526   1.127   1.872  1.00  0.00     0.303 C 
ATOM      3  O   UNL     1       5.211   0.261   2.471  1.00  0.00    -0.252 OA
BRANCH   2   4
ATOM      4  O   UNL     1       3.296   1.469   2.411  1.00  0.00    -0.481 OA
ATOM      5  H   UNL     1       3.035   2.457   2.474  1.00  0.00     0.296 HD
ENDBRANCH   2   4
ENDBRANCH   1   2
BRANCH   1   6
ATOM      6  C   UNL     1       6.511   1.813   0.678  1.00  0.00     0.047 C 
BRANCH   6   7
ATOM      7  C   UNL     1       7.167   1.044  -0.378  1.00  0.00    -0.047 A 
ATOM      8  C   UNL     1       8.507   1.210  -0.640  1.00  0.00     0.004 A 
ATOM      9  C   UNL     1       6.428   0.146  -1.112  1.00  0.00     0.004 A 
ATOM     10  C   UNL     1       9.068   0.441  -1.662  1.00  0.00     0.000 A 
ATOM     11  C   UNL     1       6.984  -0.613  -2.123  1.00  0.00     0.000 A 
ATOM     12  C   UNL     1       8.326  -0.453  -2.392  1.00  0.00     0.000 A 
ENDBRANCH   6   7
ENDBRANCH   1   6
TORSDOF 4
ENDMDL
MODEL 4
REMARK VINA RESULT:      -6.6      1.959      2.641
REMARK SMILES O=C(O)CCc1ccccc1
REMARK SMILES IDX 4 1 2 2 1 3 3 4 5 6 6 7 7 8 11 9 8 10 10 11 9 12
REMARK H PARENT 3 5
REMARK Flexibility Score: inf
ROOT
ATOM      1  C   UNL     1       8.207   0.331  -2.091  1.00  0.00     0.127 C 
ENDROOT
BRANCH   1   2
ATOM      2  C   UNL     1       9.384   0.403  -1.193  1.00  0.00     0.303 C 
ATOM      3  O   UNL     1       9.499  -0.369  -0.209  1.00  0.00    -0.252 OA
BRANCH   2   4
ATOM      4  O   UNL     1      10.392   1.327  -1.415  1.00  0.00    -0.481 OA
ATOM      5  H   UNL     1      10.299   2.271  -1.030  1.00  0.00     0.296 HD
ENDBRANCH   2   4
ENDBRANCH   1   2
BRANCH   1   6
ATOM      6  C   UNL     1       7.170  -0.532  -1.440  1.00  0.00     0.047 C 
BRANCH   6   7
ATOM      7  C   UNL     1       6.376   0.156  -0.424  1.00  0.00    -0.047 A 
ATOM      8  C   UNL     1       5.815   1.385  -0.684  1.00  0.00     0.004 A 
ATOM      9  C   UNL     1       6.190  -0.440   0.801  1.00  0.00     0.004 A 
ATOM     10  C   UNL     1       5.068   1.985   0.333  1.00  0.00     0.000 A 
ATOM     11  C   UNL     1       5.451   0.154   1.805  1.00  0.00     0.000 A 
ATOM     12  C   UNL     1       4.887   1.386   1.554  1.00  0.00     0.000 A 
ENDBRANCH   6   7
ENDBRANCH   1   6
TORSDOF 4
ENDMDL
MODEL 5
REMARK VINA RESULT:      -6.5      3.749      5.011
REMARK SMILES O=C(O)CCc1ccccc1
REMARK SMILES IDX 4 1 2 2 1 3 3 4 5 6 6 7 7 8 11 9 8 10 10 11 9 12
REMARK H PARENT 3 5
REMARK Flexibility Score: inf
ROOT
ATOM      1  C   UNL     1       5.360   2.916   0.169  1.00  0.00     0.127 C 
ENDROOT
BRANCH   1   2
ATOM      2  C   UNL     1       6.210   3.904   0.874  1.00  0.00     0.303 C 
ATOM      3  O   UNL     1       6.858   4.775   0.242  1.00  0.00    -0.252 OA
BRANCH   2   4
ATOM      4  O   UNL     1       6.314   3.893   2.256  1.00  0.00    -0.481 OA
ATOM      5  H   UNL     1       6.101   3.032   2.767  1.00  0.00     0.296 HD
ENDBRANCH   2   4
ENDBRANCH   1   2
BRANCH   1   6
ATOM      6  C   UNL     1       5.411   1.624   0.927  1.00  0.00     0.047 C 
BRANCH   6   7
ATOM      7  C   UNL     1       6.101   0.547   0.219  1.00  0.00    -0.047 A 
ATOM      8  C   UNL     1       6.567  -0.555   0.899  1.00  0.00     0.004 A 
ATOM      9  C   UNL     1       6.279   0.643  -1.141  1.00  0.00     0.004 A 
ATOM     10  C   UNL     1       7.215  -1.546   0.159  1.00  0.00     0.000 A 
ATOM     11  C   UNL     1       6.920  -0.338  -1.871  1.00  0.00     0.000 A 
ATOM     12  C   UNL     1       7.391  -1.444  -1.198  1.00  0.00     0.000 A 
ENDBRANCH   6   7
ENDBRANCH   1   6
TORSDOF 4
ENDMDL
