@<TRIPOS>MOLECULE
/home/cewinharhar/GITHUB/reincatalyze/data/processed/docking_pred/2023_Apr_20-15:07/2cf69de7cf34ef354308742c6722c88054a527ce_ligand_2.pdbqt
 12 12 0 0 0
SMALL
GASTEIGER

@<TRIPOS>ATOM
      1  C          8.4030   -0.6130   -2.1180 C.3     1  UNL1        0.1270
      2  C          8.3810   -1.8810   -2.8850 C.2     1  UNL1        0.3030
      3  O          7.2980   -2.4140   -3.2300 O.2     1  UNL1       -0.2520
      4  O          9.5600   -2.5150   -3.2430 O.3     1  UNL1       -0.4810
      5  H          9.7220   -3.4790   -2.9390 H       1  UNL1        0.2960
      6  C          7.0130   -0.0560   -2.0890 C.3     1  UNL1        0.0470
      7  C          6.4620    0.0960   -0.7430 C.2     1  UNL1       -0.0470
      8  C          5.8250    1.2570   -0.3710 C.2     1  UNL1        0.0040
      9  C          6.5840   -0.9410    0.1540 C.2     1  UNL1        0.0040
     10  C          5.3220    1.3320    0.9300 C.2     1  UNL1        0.0000
     11  C          6.0870   -0.8640    1.4390 C.2     1  UNL1        0.0000
     12  C          5.4490    0.2960    1.8210 C.2     1  UNL1        0.0000
@<TRIPOS>BOND
     1     4     5    1
     2     4     2    1
     3     3     2    2
     4     2     1    1
     5     1     6    1
     6     6     7    1
     7     7     8    2
     8     7     9    1
     9     8    10    1
    10     9    11    2
    11    10    12    2
    12    11    12    1
