@<TRIPOS>MOLECULE
/home/cewinharhar/GITHUB/reincatalyze/data/processed/docking_pred/2023_Apr_20-15:07/2cf69de7cf34ef354308742c6722c88054a527ce_ligand_2.pdbqt
 12 12 0 0 0
SMALL
GASTEIGER

@<TRIPOS>ATOM
      1  C          5.0140    1.7650    0.6270 C.3     1  UNL1        0.1270
      2  C          4.5260    1.1270    1.8720 C.2     1  UNL1        0.3030
      3  O          5.2110    0.2610    2.4710 O.2     1  UNL1       -0.2520
      4  O          3.2960    1.4690    2.4110 O.3     1  UNL1       -0.4810
      5  H          3.0350    2.4570    2.4740 H       1  UNL1        0.2960
      6  C          6.5110    1.8130    0.6780 C.3     1  UNL1        0.0470
      7  C          7.1670    1.0440   -0.3780 C.2     1  UNL1       -0.0470
      8  C          8.5070    1.2100   -0.6400 C.2     1  UNL1        0.0040
      9  C          6.4280    0.1460   -1.1120 C.2     1  UNL1        0.0040
     10  C          9.0680    0.4410   -1.6620 C.2     1  UNL1        0.0000
     11  C          6.9840   -0.6130   -2.1230 C.2     1  UNL1        0.0000
     12  C          8.3260   -0.4530   -2.3920 C.2     1  UNL1        0.0000
@<TRIPOS>BOND
     1    12    11    2
     2    12    10    1
     3    11     9    1
     4    10     8    2
     5     9     7    2
     6     8     7    1
     7     7     6    1
     8     1     6    1
     9     1     2    1
    10     2     4    1
    11     2     3    2
    12     4     5    1
