@<TRIPOS>MOLECULE
/home/cewinharhar/GITHUB/reincatalyze/data/processed/docking_pred/2023_Apr_20-15:07/2cf69de7cf34ef354308742c6722c88054a527ce_ligand_2.pdbqt
 12 12 0 0 0
SMALL
GASTEIGER

@<TRIPOS>ATOM
      1  C          8.2070    0.3310   -2.0910 C.3     1  UNL1        0.1270
      2  C          9.3840    0.4030   -1.1930 C.2     1  UNL1        0.3030
      3  O          9.4990   -0.3690   -0.2090 O.2     1  UNL1       -0.2520
      4  O         10.3920    1.3270   -1.4150 O.3     1  UNL1       -0.4810
      5  H         10.2990    2.2710   -1.0300 H       1  UNL1        0.2960
      6  C          7.1700   -0.5320   -1.4400 C.3     1  UNL1        0.0470
      7  C          6.3760    0.1560   -0.4240 C.2     1  UNL1       -0.0470
      8  C          5.8150    1.3850   -0.6840 C.2     1  UNL1        0.0040
      9  C          6.1900   -0.4400    0.8010 C.2     1  UNL1        0.0040
     10  C          5.0680    1.9850    0.3330 C.2     1  UNL1        0.0000
     11  C          5.4510    0.1540    1.8050 C.2     1  UNL1        0.0000
     12  C          4.8870    1.3860    1.5540 C.2     1  UNL1        0.0000
@<TRIPOS>BOND
     1     1     6    1
     2     1     2    1
     3     6     7    1
     4     4     2    1
     5     4     5    1
     6     2     3    2
     7     8     7    2
     8     8    10    1
     9     7     9    1
    10    10    12    2
    11     9    11    2
    12    12    11    1
