@<TRIPOS>MOLECULE
/home/cewinharhar/GITHUB/reincatalyze/data/processed/docking_pred/2023_Apr_20-15:07/2cf69de7cf34ef354308742c6722c88054a527ce_ligand_2.pdbqt
 12 12 0 0 0
SMALL
GASTEIGER

@<TRIPOS>ATOM
      1  C          8.4630   -0.6580   -2.1010 C.3     1  UNL1        0.1270
      2  C          8.4770   -1.9110   -2.8930 C.2     1  UNL1        0.3030
      3  O          9.5440   -2.5420   -3.0930 O.2     1  UNL1       -0.2520
      4  O          7.3090   -2.4210   -3.4350 O.3     1  UNL1       -0.4810
      5  H          7.0820   -3.4090   -3.2970 H       1  UNL1        0.2960
      6  C          7.0590   -0.1360   -2.0710 C.3     1  UNL1        0.0470
      7  C          6.5020   -0.0040   -0.7260 C.2     1  UNL1       -0.0470
      8  C          6.6420   -1.0160    0.1960 C.2     1  UNL1        0.0040
      9  C          5.8340    1.1490   -0.3860 C.2     1  UNL1        0.0040
     10  C          6.0860   -0.8210    1.4620 C.2     1  UNL1        0.0000
     11  C          5.2840    1.3400    0.8670 C.2     1  UNL1        0.0000
     12  C          5.4200    0.3310    1.7950 C.2     1  UNL1        0.0000
@<TRIPOS>BOND
     1     4     5    1
     2     4     2    1
     3     3     2    2
     4     2     1    1
     5     1     6    1
     6     6     7    1
     7     7     9    2
     8     7     8    1
     9     9    11    1
    10     8    10    2
    11    11    12    2
    12    10    12    1
