@<TRIPOS>MOLECULE
/home/cewinharhar/GITHUB/reincatalyze/data/processed/docking_pred/2023_Apr_20-15:07/2cf69de7cf34ef354308742c6722c88054a527ce_ligand_2.pdbqt
 12 12 0 0 0
SMALL
GASTEIGER

@<TRIPOS>ATOM
      1  C          5.3600    2.9160    0.1690 C.3     1  UNL1        0.1270
      2  C          6.2100    3.9040    0.8740 C.2     1  UNL1        0.3030
      3  O          6.8580    4.7750    0.2420 O.2     1  UNL1       -0.2520
      4  O          6.3140    3.8930    2.2560 O.3     1  UNL1       -0.4810
      5  H          6.1010    3.0320    2.7670 H       1  UNL1        0.2960
      6  C          5.4110    1.6240    0.9270 C.3     1  UNL1        0.0470
      7  C          6.1010    0.5470    0.2190 C.2     1  UNL1       -0.0470
      8  C          6.5670   -0.5550    0.8990 C.2     1  UNL1        0.0040
      9  C          6.2790    0.6430   -1.1410 C.2     1  UNL1        0.0040
     10  C          7.2150   -1.5460    0.1590 C.2     1  UNL1        0.0000
     11  C          6.9200   -0.3380   -1.8710 C.2     1  UNL1        0.0000
     12  C          7.3910   -1.4440   -1.1980 C.2     1  UNL1        0.0000
@<TRIPOS>BOND
     1    11    12    2
     2    11     9    1
     3    12    10    1
     4     9     7    2
     5    10     8    2
     6     1     2    1
     7     1     6    1
     8     7     8    1
     9     7     6    1
    10     3     2    2
    11     2     4    1
    12     4     5    1
