@<TRIPOS>MOLECULE
/home/cewinharhar/GITHUB/reincatalyze/data/processed/docking_pred/2023_Apr_20-15:07/2d2d9026ea33a6842fa37a74e1533968fe9c5ac5_ligand_2.pdbqt
 12 12 0 0 0
SMALL
GASTEIGER

@<TRIPOS>ATOM
      1  C          8.3640    0.2340   -2.2210 C.3     1  UNL1        0.1270
      2  C          8.2000   -1.2040   -2.5430 C.2     1  UNL1        0.3030
      3  O          7.0660   -1.7440   -2.5490 O.2     1  UNL1       -0.2520
      4  O          9.2970   -1.9930   -2.8460 O.3     1  UNL1       -0.4810
      5  H          9.2520   -3.0010   -2.6740 H       1  UNL1        0.2960
      6  C          8.7300    0.3530   -0.7730 C.3     1  UNL1        0.0470
      7  C          7.5890    0.2770    0.1370 C.2     1  UNL1       -0.0470
      8  C          6.4940    1.0910   -0.0380 C.2     1  UNL1        0.0040
      9  C          7.6190   -0.6250    1.1760 C.2     1  UNL1        0.0040
     10  C          5.4400    0.9620    0.8700 C.2     1  UNL1        0.0000
     11  C          6.5760   -0.7500    2.0720 C.2     1  UNL1        0.0000
     12  C          5.4750    0.0630    1.9050 C.2     1  UNL1        0.0000
@<TRIPOS>BOND
     1     4     5    1
     2     4     2    1
     3     3     2    2
     4     2     1    1
     5     1     6    1
     6     6     7    1
     7     8     7    2
     8     8    10    1
     9     7     9    1
    10    10    12    2
    11     9    11    2
    12    12    11    1
