@<TRIPOS>MOLECULE
/home/cewinharhar/GITHUB/reincatalyze/data/processed/docking_pred/2023_Apr_20-15:07/2d2d9026ea33a6842fa37a74e1533968fe9c5ac5_ligand_2.pdbqt
 12 12 0 0 0
SMALL
GASTEIGER

@<TRIPOS>ATOM
      1  C          8.5250   -0.6530   -2.2730 C.3     1  UNL1        0.1270
      2  C          8.5850   -1.9240   -3.0330 C.2     1  UNL1        0.3030
      3  O          7.5460   -2.4540   -3.4990 O.2     1  UNL1       -0.2520
      4  O          9.7950   -2.5650   -3.2510 O.3     1  UNL1       -0.4810
      5  H          9.8220   -3.3940   -3.8500 H       1  UNL1        0.2960
      6  C          7.0890   -0.2460   -2.1510 C.3     1  UNL1        0.0470
      7  C          6.6030   -0.1850   -0.7740 C.2     1  UNL1       -0.0470
      8  C          6.7960   -1.2400    0.0870 C.2     1  UNL1        0.0040
      9  C          5.9490    0.9460   -0.3420 C.2     1  UNL1        0.0040
     10  C          6.3060   -1.1120    1.3890 C.2     1  UNL1        0.0000
     11  C          5.4650    1.0700    0.9450 C.2     1  UNL1        0.0000
     12  C          5.6530    0.0170    1.8140 C.2     1  UNL1        0.0000
@<TRIPOS>BOND
     1     5     4    1
     2     3     2    2
     3     4     2    1
     4     2     1    1
     5     1     6    1
     6     6     7    1
     7     7     9    2
     8     7     8    1
     9     9    11    1
    10     8    10    2
    11    11    12    2
    12    10    12    1
