@<TRIPOS>MOLECULE
/home/cewinharhar/GITHUB/reincatalyze/data/processed/docking_pred/2023_Apr_20-15:07/2d2d9026ea33a6842fa37a74e1533968fe9c5ac5_ligand_2.pdbqt
 12 12 0 0 0
SMALL
GASTEIGER

@<TRIPOS>ATOM
      1  C          8.3900    0.2300   -2.2760 C.3     1  UNL1        0.1270
      2  C          8.2770   -1.2180   -2.5680 C.2     1  UNL1        0.3030
      3  O          9.2910   -1.9110   -2.8280 O.2     1  UNL1       -0.2520
      4  O          7.0430   -1.8490   -2.5640 O.3     1  UNL1       -0.4810
      5  H          6.9930   -2.8530   -2.7540 H       1  UNL1        0.2960
      6  C          8.7850    0.3900   -0.8390 C.3     1  UNL1        0.0470
      7  C          7.6770    0.2400    0.1020 C.2     1  UNL1       -0.0470
      8  C          7.7310   -0.6960    1.1090 C.2     1  UNL1        0.0040
      9  C          6.5720    1.0500   -0.0260 C.2     1  UNL1        0.0040
     10  C          6.6370   -0.7840    1.9720 C.2     1  UNL1        0.0000
     11  C          5.4910    0.9620    0.8280 C.2     1  UNL1        0.0000
     12  C          5.5370    0.0260    1.8390 C.2     1  UNL1        0.0000
@<TRIPOS>BOND
     1     3     2    2
     2     5     4    1
     3     2     4    1
     4     2     1    1
     5     1     6    1
     6     6     7    1
     7     9     7    2
     8     9    11    1
     9     7     8    1
    10    11    12    2
    11     8    10    2
    12    12    10    1
