@<TRIPOS>MOLECULE
/home/cewinharhar/GITHUB/reincatalyze/data/processed/docking_pred/2023_Apr_20-15:07/2d2d9026ea33a6842fa37a74e1533968fe9c5ac5_ligand_2.pdbqt
 12 12 0 0 0
SMALL
GASTEIGER

@<TRIPOS>ATOM
      1  C          6.1310    1.4340    1.1680 C.3     1  UNL1        0.1270
      2  C          5.2860    0.5720    2.0280 C.2     1  UNL1        0.3030
      3  O          5.7040   -0.5340    2.4510 O.2     1  UNL1       -0.2520
      4  O          4.0080    0.9650    2.3890 O.3     1  UNL1       -0.4810
      5  H          3.2130    0.3680    2.1440 H       1  UNL1        0.2960
      6  C          5.7970    1.1440   -0.2630 C.3     1  UNL1        0.0470
      7  C          6.8760    0.4940   -1.0050 C.2     1  UNL1       -0.0470
      8  C          8.1530    1.0050   -0.9830 C.2     1  UNL1        0.0040
      9  C          6.6020   -0.6430   -1.7300 C.2     1  UNL1        0.0040
     10  C          9.1340    0.3320   -1.7140 C.2     1  UNL1        0.0000
     11  C          7.5730   -1.3070   -2.4530 C.2     1  UNL1        0.0000
     12  C          8.8550   -0.8010   -2.4360 C.2     1  UNL1        0.0000
@<TRIPOS>BOND
     1    11    12    2
     2    11     9    1
     3    12    10    1
     4     9     7    2
     5    10     8    2
     6     7     8    1
     7     7     6    1
     8     6     1    1
     9     1     2    1
    10     2     4    1
    11     2     3    2
    12     5     4    1
