@<TRIPOS>MOLECULE
/home/cewinharhar/GITHUB/reincatalyze/data/processed/docking_pred/2023_Apr_20-15:07/2d2d9026ea33a6842fa37a74e1533968fe9c5ac5_ligand_2.pdbqt
 12 12 0 0 0
SMALL
GASTEIGER

@<TRIPOS>ATOM
      1  C          5.9580   -0.7420    1.7030 C.3     1  UNL1        0.1270
      2  C          5.2850    0.5500    1.9780 C.2     1  UNL1        0.3030
      3  O          4.1240    0.5910    2.4540 O.2     1  UNL1       -0.2520
      4  O          5.9230    1.7520    1.7170 O.3     1  UNL1       -0.4810
      5  H          6.7090    2.0410    2.3060 H       1  UNL1        0.2960
      6  C          7.3970   -0.4660    1.3890 C.3     1  UNL1        0.0470
      7  C          7.6880   -0.3830   -0.0410 C.2     1  UNL1       -0.0470
      8  C          8.6390    0.4910   -0.5160 C.2     1  UNL1        0.0040
      9  C          7.0000   -1.1940   -0.9140 C.2     1  UNL1        0.0040
     10  C          8.8660    0.5160   -1.8940 C.2     1  UNL1        0.0000
     11  C          7.2260   -1.1680   -2.2760 C.2     1  UNL1        0.0000
     12  C          8.1760   -0.2950   -2.7600 C.2     1  UNL1        0.0000
@<TRIPOS>BOND
     1    12    11    2
     2    12    10    1
     3    11     9    1
     4    10     8    2
     5     9     7    2
     6     8     7    1
     7     7     6    1
     8     6     1    1
     9     1     2    1
    10     4     2    1
    11     4     5    1
    12     2     3    2
