MODEL 1
REMARK VINA RESULT:      -6.6      0.000      0.000
REMARK SMILES O=C(O)CCc1ccccc1
REMARK SMILES IDX 4 1 2 2 1 3 3 4 5 6 6 7 7 8 11 9 8 10 10 11 9 12
REMARK H PARENT 3 5
REMARK Flexibility Score: inf
ROOT
ATOM      1  C   UNL     1       8.525  -0.653  -2.273  1.00  0.00     0.127 C 
ENDROOT
BRANCH   1   2
ATOM      2  C   UNL     1       8.585  -1.924  -3.033  1.00  0.00     0.303 C 
ATOM      3  O   UNL     1       7.546  -2.454  -3.499  1.00  0.00    -0.252 OA
BRANCH   2   4
ATOM      4  O   UNL     1       9.795  -2.565  -3.251  1.00  0.00    -0.481 OA
ATOM      5  H   UNL     1       9.822  -3.394  -3.850  1.00  0.00     0.296 HD
ENDBRANCH   2   4
ENDBRANCH   1   2
BRANCH   1   6
ATOM      6  C   UNL     1       7.089  -0.246  -2.151  1.00  0.00     0.047 C 
BRANCH   6   7
ATOM      7  C   UNL     1       6.603  -0.185  -0.774  1.00  0.00    -0.047 A 
ATOM      8  C   UNL     1       6.796  -1.240   0.087  1.00  0.00     0.004 A 
ATOM      9  C   UNL     1       5.949   0.946  -0.342  1.00  0.00     0.004 A 
ATOM     10  C   UNL     1       6.306  -1.112   1.389  1.00  0.00     0.000 A 
ATOM     11  C   UNL     1       5.465   1.070   0.945  1.00  0.00     0.000 A 
ATOM     12  C   UNL     1       5.653   0.017   1.814  1.00  0.00     0.000 A 
ENDBRANCH   6   7
ENDBRANCH   1   6
TORSDOF 4
ENDMDL
MODEL 2
REMARK VINA RESULT:      -6.6      1.055      1.488
REMARK SMILES O=C(O)CCc1ccccc1
REMARK SMILES IDX 4 1 2 2 1 3 3 4 5 6 6 7 7 8 11 9 8 10 10 11 9 12
REMARK H PARENT 3 5
REMARK Flexibility Score: inf
ROOT
ATOM      1  C   UNL     1       8.390   0.230  -2.276  1.00  0.00     0.127 C 
ENDROOT
BRANCH   1   2
ATOM      2  C   UNL     1       8.277  -1.218  -2.568  1.00  0.00     0.303 C 
ATOM      3  O   UNL     1       9.291  -1.911  -2.828  1.00  0.00    -0.252 OA
BRANCH   2   4
ATOM      4  O   UNL     1       7.043  -1.849  -2.564  1.00  0.00    -0.481 OA
ATOM      5  H   UNL     1       6.993  -2.853  -2.754  1.00  0.00     0.296 HD
ENDBRANCH   2   4
ENDBRANCH   1   2
BRANCH   1   6
ATOM      6  C   UNL     1       8.785   0.390  -0.839  1.00  0.00     0.047 C 
BRANCH   6   7
ATOM      7  C   UNL     1       7.677   0.240   0.102  1.00  0.00    -0.047 A 
ATOM      8  C   UNL     1       7.731  -0.696   1.109  1.00  0.00     0.004 A 
ATOM      9  C   UNL     1       6.572   1.050  -0.026  1.00  0.00     0.004 A 
ATOM     10  C   UNL     1       6.637  -0.784   1.972  1.00  0.00     0.000 A 
ATOM     11  C   UNL     1       5.491   0.962   0.828  1.00  0.00     0.000 A 
ATOM     12  C   UNL     1       5.537   0.026   1.839  1.00  0.00     0.000 A 
ENDBRANCH   6   7
ENDBRANCH   1   6
TORSDOF 4
ENDMDL
MODEL 3
REMARK VINA RESULT:      -6.6      1.050      1.793
REMARK SMILES O=C(O)CCc1ccccc1
REMARK SMILES IDX 4 1 2 2 1 3 3 4 5 6 6 7 7 8 11 9 8 10 10 11 9 12
REMARK H PARENT 3 5
REMARK Flexibility Score: inf
ROOT
ATOM      1  C   UNL     1       8.364   0.234  -2.221  1.00  0.00     0.127 C 
ENDROOT
BRANCH   1   2
ATOM      2  C   UNL     1       8.200  -1.204  -2.543  1.00  0.00     0.303 C 
ATOM      3  O   UNL     1       7.066  -1.744  -2.549  1.00  0.00    -0.252 OA
BRANCH   2   4
ATOM      4  O   UNL     1       9.297  -1.993  -2.846  1.00  0.00    -0.481 OA
ATOM      5  H   UNL     1       9.252  -3.001  -2.674  1.00  0.00     0.296 HD
ENDBRANCH   2   4
ENDBRANCH   1   2
BRANCH   1   6
ATOM      6  C   UNL     1       8.730   0.353  -0.773  1.00  0.00     0.047 C 
BRANCH   6   7
ATOM      7  C   UNL     1       7.589   0.277   0.137  1.00  0.00    -0.047 A 
ATOM      8  C   UNL     1       6.494   1.091  -0.038  1.00  0.00     0.004 A 
ATOM      9  C   UNL     1       7.619  -0.625   1.176  1.00  0.00     0.004 A 
ATOM     10  C   UNL     1       5.440   0.962   0.870  1.00  0.00     0.000 A 
ATOM     11  C   UNL     1       6.576  -0.750   2.072  1.00  0.00     0.000 A 
ATOM     12  C   UNL     1       5.475   0.063   1.905  1.00  0.00     0.000 A 
ENDBRANCH   6   7
ENDBRANCH   1   6
TORSDOF 4
ENDMDL
MODEL 4
REMARK VINA RESULT:      -6.5      3.295      4.975
REMARK SMILES O=C(O)CCc1ccccc1
REMARK SMILES IDX 4 1 2 2 1 3 3 4 5 6 6 7 7 8 11 9 8 10 10 11 9 12
REMARK H PARENT 3 5
REMARK Flexibility Score: inf
ROOT
ATOM      1  C   UNL     1       5.958  -0.742   1.703  1.00  0.00     0.127 C 
ENDROOT
BRANCH   1   2
ATOM      2  C   UNL     1       5.285   0.550   1.978  1.00  0.00     0.303 C 
ATOM      3  O   UNL     1       4.124   0.591   2.454  1.00  0.00    -0.252 OA
BRANCH   2   4
ATOM      4  O   UNL     1       5.923   1.752   1.717  1.00  0.00    -0.481 OA
ATOM      5  H   UNL     1       6.709   2.041   2.306  1.00  0.00     0.296 HD
ENDBRANCH   2   4
ENDBRANCH   1   2
BRANCH   1   6
ATOM      6  C   UNL     1       7.397  -0.466   1.389  1.00  0.00     0.047 C 
BRANCH   6   7
ATOM      7  C   UNL     1       7.688  -0.383  -0.041  1.00  0.00    -0.047 A 
ATOM      8  C   UNL     1       8.639   0.491  -0.516  1.00  0.00     0.004 A 
ATOM      9  C   UNL     1       7.000  -1.194  -0.914  1.00  0.00     0.004 A 
ATOM     10  C   UNL     1       8.866   0.516  -1.894  1.00  0.00     0.000 A 
ATOM     11  C   UNL     1       7.226  -1.168  -2.276  1.00  0.00     0.000 A 
ATOM     12  C   UNL     1       8.176  -0.295  -2.760  1.00  0.00     0.000 A 
ENDBRANCH   6   7
ENDBRANCH   1   6
TORSDOF 4
ENDMDL
MODEL 5
REMARK VINA RESULT:      -6.5      3.173      5.008
REMARK SMILES O=C(O)CCc1ccccc1
REMARK SMILES IDX 4 1 2 2 1 3 3 4 5 6 6 7 7 8 11 9 8 10 10 11 9 12
REMARK H PARENT 3 5
REMARK Flexibility Score: inf
ROOT
ATOM      1  C   UNL     1       6.131   1.434   1.168  1.00  0.00     0.127 C 
ENDROOT
BRANCH   1   2
ATOM      2  C   UNL     1       5.286   0.572   2.028  1.00  0.00     0.303 C 
ATOM      3  O   UNL     1       5.704  -0.534   2.451  1.00  0.00    -0.252 OA
BRANCH   2   4
ATOM      4  O   UNL     1       4.008   0.965   2.389  1.00  0.00    -0.481 OA
ATOM      5  H   UNL     1       3.213   0.368   2.144  1.00  0.00     0.296 HD
ENDBRANCH   2   4
ENDBRANCH   1   2
BRANCH   1   6
ATOM      6  C   UNL     1       5.797   1.144  -0.263  1.00  0.00     0.047 C 
BRANCH   6   7
ATOM      7  C   UNL     1       6.876   0.494  -1.005  1.00  0.00    -0.047 A 
ATOM      8  C   UNL     1       8.153   1.005  -0.983  1.00  0.00     0.004 A 
ATOM      9  C   UNL     1       6.602  -0.643  -1.730  1.00  0.00     0.004 A 
ATOM     10  C   UNL     1       9.134   0.332  -1.714  1.00  0.00     0.000 A 
ATOM     11  C   UNL     1       7.573  -1.307  -2.453  1.00  0.00     0.000 A 
ATOM     12  C   UNL     1       8.855  -0.801  -2.436  1.00  0.00     0.000 A 
ENDBRANCH   6   7
ENDBRANCH   1   6
TORSDOF 4
ENDMDL
