@<TRIPOS>MOLECULE
/home/cewinharhar/GITHUB/reincatalyze/data/processed/docking_pred/2023_Apr_20-15:07/2d863d4e78c56822cb27942f8f89755da93ab859_ligand_2.pdbqt
 12 12 0 0 0
SMALL
GASTEIGER

@<TRIPOS>ATOM
      1  C          8.2360    0.3720   -1.9930 C.3     1  UNL1        0.1270
      2  C          9.4270    0.3970   -1.1120 C.2     1  UNL1        0.3030
      3  O          9.5160   -0.3640   -0.1170 O.2     1  UNL1       -0.2520
      4  O         10.4780    1.2650   -1.3630 O.3     1  UNL1       -0.4810
      5  H         11.4090    1.0430   -0.9980 H       1  UNL1        0.2960
      6  C          7.2020   -0.5090   -1.3620 C.3     1  UNL1        0.0470
      7  C          6.3730    0.1680   -0.3660 C.2     1  UNL1       -0.0470
      8  C          5.8070    1.3920   -0.6360 C.2     1  UNL1        0.0040
      9  C          6.1600   -0.4360    0.8520 C.2     1  UNL1        0.0040
     10  C          5.0250    1.9790    0.3610 C.2     1  UNL1        0.0000
     11  C          5.3870    0.1470    1.8370 C.2     1  UNL1        0.0000
     12  C          4.8170    1.3730    1.5750 C.2     1  UNL1        0.0000
@<TRIPOS>BOND
     1     1     6    1
     2     1     2    1
     3     4     2    1
     4     4     5    1
     5     6     7    1
     6     2     3    2
     7     8     7    2
     8     8    10    1
     9     7     9    1
    10    10    12    2
    11     9    11    2
    12    12    11    1
