@<TRIPOS>MOLECULE
/home/cewinharhar/GITHUB/reincatalyze/data/processed/docking_pred/2023_Apr_20-15:07/2d863d4e78c56822cb27942f8f89755da93ab859_ligand_2.pdbqt
 12 12 0 0 0
SMALL
GASTEIGER

@<TRIPOS>ATOM
      1  C          8.4360   -0.6200   -2.1640 C.3     1  UNL1        0.1270
      2  C          8.4730   -1.8980   -2.9130 C.2     1  UNL1        0.3030
      3  O          9.5460   -2.5300   -3.0700 O.2     1  UNL1       -0.2520
      4  O          7.3190   -2.4310   -3.4640 O.3     1  UNL1       -0.4810
      5  H          7.0910   -3.4150   -3.2950 H       1  UNL1        0.2960
      6  C          7.0200   -0.1290   -2.1400 C.3     1  UNL1        0.0470
      7  C          6.4800    0.0630   -0.7950 C.2     1  UNL1       -0.0470
      8  C          5.8450    1.2340   -0.4530 C.2     1  UNL1        0.0040
      9  C          6.6120   -0.9450    0.1320 C.2     1  UNL1        0.0040
     10  C          5.3530    1.3490    0.8490 C.2     1  UNL1        0.0000
     11  C          6.1260   -0.8300    1.4180 C.2     1  UNL1        0.0000
     12  C          5.4880    0.3400    1.7690 C.2     1  UNL1        0.0000
@<TRIPOS>BOND
     1     4     5    1
     2     4     2    1
     3     3     2    2
     4     2     1    1
     5     1     6    1
     6     6     7    1
     7     7     8    2
     8     7     9    1
     9     8    10    1
    10     9    11    2
    11    10    12    2
    12    11    12    1
