@<TRIPOS>MOLECULE
/home/cewinharhar/GITHUB/reincatalyze/data/processed/docking_pred/2023_Apr_20-15:07/2d863d4e78c56822cb27942f8f89755da93ab859_ligand_2.pdbqt
 12 12 0 0 0
SMALL
GASTEIGER

@<TRIPOS>ATOM
      1  C          8.4160   -0.6630   -2.0780 C.3     1  UNL1        0.1270
      2  C          8.3870   -1.9080   -2.8810 C.2     1  UNL1        0.3030
      3  O          7.3000   -2.4230   -3.2450 O.2     1  UNL1       -0.2520
      4  O          9.5620   -2.5410   -3.2540 O.3     1  UNL1       -0.4810
      5  H         10.2460   -2.0330   -3.8210 H       1  UNL1        0.2960
      6  C          7.0370   -0.0770   -2.0680 C.3     1  UNL1        0.0470
      7  C          6.4670    0.0790   -0.7310 C.2     1  UNL1       -0.0470
      8  C          6.5830   -0.9240    0.2040 C.2     1  UNL1        0.0040
      9  C          5.8120    1.2450   -0.4120 C.2     1  UNL1        0.0040
     10  C          6.0150   -0.7060    1.4620 C.2     1  UNL1        0.0000
     11  C          5.2510    1.4590    0.8320 C.2     1  UNL1        0.0000
     12  C          5.3620    0.4590    1.7740 C.2     1  UNL1        0.0000
@<TRIPOS>BOND
     1     5     4    1
     2     4     2    1
     3     3     2    2
     4     2     1    1
     5     1     6    1
     6     6     7    1
     7     7     9    2
     8     7     8    1
     9     9    11    1
    10     8    10    2
    11    11    12    2
    12    10    12    1
