@<TRIPOS>MOLECULE
/home/cewinharhar/GITHUB/reincatalyze/data/processed/docking_pred/2023_Apr_20-15:07/2d863d4e78c56822cb27942f8f89755da93ab859_ligand_2.pdbqt
 12 12 0 0 0
SMALL
GASTEIGER

@<TRIPOS>ATOM
      1  C          8.1940    0.2300   -2.1380 C.3     1  UNL1        0.1270
      2  C          9.3510    0.3500   -1.2190 C.2     1  UNL1        0.3030
      3  O          9.4660   -0.3970   -0.2160 O.2     1  UNL1       -0.2520
      4  O         10.3410    1.2930   -1.4440 O.3     1  UNL1       -0.4810
      5  H         10.2190    2.2430   -1.0820 H       1  UNL1        0.2960
      6  C          7.1380   -0.5890   -1.4600 C.3     1  UNL1        0.0470
      7  C          6.3560    0.1490   -0.4710 C.2     1  UNL1       -0.0470
      8  C          6.1540   -0.3620    0.7900 C.2     1  UNL1        0.0040
      9  C          5.8210    1.3700   -0.8130 C.2     1  UNL1        0.0040
     10  C          5.3970    0.3980    1.6850 C.2     1  UNL1        0.0000
     11  C          5.0730    2.1200    0.0730 C.2     1  UNL1        0.0000
     12  C          4.8660    1.6150    1.3380 C.2     1  UNL1        0.0000
@<TRIPOS>BOND
     1     1     6    1
     2     1     2    1
     3     6     7    1
     4     4     2    1
     5     4     5    1
     6     2     3    2
     7     9     7    2
     8     9    11    1
     9     7     8    1
    10    11    12    2
    11     8    10    2
    12    12    10    1
