@<TRIPOS>MOLECULE
/home/cewinharhar/GITHUB/reincatalyze/data/processed/docking_pred/2023_Apr_20-15:07/2d863d4e78c56822cb27942f8f89755da93ab859_ligand_2.pdbqt
 12 12 0 0 0
SMALL
GASTEIGER

@<TRIPOS>ATOM
      1  C          5.0080    1.7310    0.6710 C.3     1  UNL1        0.1270
      2  C          4.4920    1.0940    1.9060 C.2     1  UNL1        0.3030
      3  O          5.1460    0.2020    2.5000 O.2     1  UNL1       -0.2520
      4  O          3.2690    1.4680    2.4400 O.3     1  UNL1       -0.4810
      5  H          2.4840    0.8120    2.4000 H       1  UNL1        0.2960
      6  C          6.5040    1.7480    0.7400 C.3     1  UNL1        0.0470
      7  C          7.1570    1.0090   -0.3390 C.2     1  UNL1       -0.0470
      8  C          8.4750    1.2440   -0.6560 C.2     1  UNL1        0.0040
      9  C          6.4380    0.0670   -1.0390 C.2     1  UNL1        0.0040
     10  C          9.0340    0.5010   -1.6980 C.2     1  UNL1        0.0000
     11  C          6.9920   -0.6670   -2.0690 C.2     1  UNL1        0.0000
     12  C          8.3110   -0.4360   -2.3930 C.2     1  UNL1        0.0000
@<TRIPOS>BOND
     1    12    11    2
     2    12    10    1
     3    11     9    1
     4    10     8    2
     5     9     7    2
     6     8     7    1
     7     7     6    1
     8     1     6    1
     9     1     2    1
    10     2     4    1
    11     2     3    2
    12     5     4    1
