MODEL 1
REMARK VINA RESULT:      -7.3      0.000      0.000
REMARK SMILES O=C(O)CCc1ccccc1
REMARK SMILES IDX 4 1 2 2 1 3 3 4 5 6 6 7 7 8 11 9 8 10 10 11 9 12
REMARK H PARENT 3 5
REMARK Flexibility Score: inf
ROOT
ATOM      1  C   UNL     1       8.436  -0.620  -2.164  1.00  0.00     0.127 C 
ENDROOT
BRANCH   1   2
ATOM      2  C   UNL     1       8.473  -1.898  -2.913  1.00  0.00     0.303 C 
ATOM      3  O   UNL     1       9.546  -2.530  -3.070  1.00  0.00    -0.252 OA
BRANCH   2   4
ATOM      4  O   UNL     1       7.319  -2.431  -3.464  1.00  0.00    -0.481 OA
ATOM      5  H   UNL     1       7.091  -3.415  -3.295  1.00  0.00     0.296 HD
ENDBRANCH   2   4
ENDBRANCH   1   2
BRANCH   1   6
ATOM      6  C   UNL     1       7.020  -0.129  -2.140  1.00  0.00     0.047 C 
BRANCH   6   7
ATOM      7  C   UNL     1       6.480   0.063  -0.795  1.00  0.00    -0.047 A 
ATOM      8  C   UNL     1       5.845   1.234  -0.453  1.00  0.00     0.004 A 
ATOM      9  C   UNL     1       6.612  -0.945   0.132  1.00  0.00     0.004 A 
ATOM     10  C   UNL     1       5.353   1.349   0.849  1.00  0.00     0.000 A 
ATOM     11  C   UNL     1       6.126  -0.830   1.418  1.00  0.00     0.000 A 
ATOM     12  C   UNL     1       5.488   0.340   1.769  1.00  0.00     0.000 A 
ENDBRANCH   6   7
ENDBRANCH   1   6
TORSDOF 4
ENDMDL
MODEL 2
REMARK VINA RESULT:      -7.3      0.137      1.732
REMARK SMILES O=C(O)CCc1ccccc1
REMARK SMILES IDX 4 1 2 2 1 3 3 4 5 6 6 7 7 8 11 9 8 10 10 11 9 12
REMARK H PARENT 3 5
REMARK Flexibility Score: inf
ROOT
ATOM      1  C   UNL     1       8.416  -0.663  -2.078  1.00  0.00     0.127 C 
ENDROOT
BRANCH   1   2
ATOM      2  C   UNL     1       8.387  -1.908  -2.881  1.00  0.00     0.303 C 
ATOM      3  O   UNL     1       7.300  -2.423  -3.245  1.00  0.00    -0.252 OA
BRANCH   2   4
ATOM      4  O   UNL     1       9.562  -2.541  -3.254  1.00  0.00    -0.481 OA
ATOM      5  H   UNL     1      10.246  -2.033  -3.821  1.00  0.00     0.296 HD
ENDBRANCH   2   4
ENDBRANCH   1   2
BRANCH   1   6
ATOM      6  C   UNL     1       7.037  -0.077  -2.068  1.00  0.00     0.047 C 
BRANCH   6   7
ATOM      7  C   UNL     1       6.467   0.079  -0.731  1.00  0.00    -0.047 A 
ATOM      8  C   UNL     1       6.583  -0.924   0.204  1.00  0.00     0.004 A 
ATOM      9  C   UNL     1       5.812   1.245  -0.412  1.00  0.00     0.004 A 
ATOM     10  C   UNL     1       6.015  -0.706   1.462  1.00  0.00     0.000 A 
ATOM     11  C   UNL     1       5.251   1.459   0.832  1.00  0.00     0.000 A 
ATOM     12  C   UNL     1       5.362   0.459   1.774  1.00  0.00     0.000 A 
ENDBRANCH   6   7
ENDBRANCH   1   6
TORSDOF 4
ENDMDL
MODEL 3
REMARK VINA RESULT:      -6.8      3.388      5.048
REMARK SMILES O=C(O)CCc1ccccc1
REMARK SMILES IDX 4 1 2 2 1 3 3 4 5 6 6 7 7 8 11 9 8 10 10 11 9 12
REMARK H PARENT 3 5
REMARK Flexibility Score: inf
ROOT
ATOM      1  C   UNL     1       5.008   1.731   0.671  1.00  0.00     0.127 C 
ENDROOT
BRANCH   1   2
ATOM      2  C   UNL     1       4.492   1.094   1.906  1.00  0.00     0.303 C 
ATOM      3  O   UNL     1       5.146   0.202   2.500  1.00  0.00    -0.252 OA
BRANCH   2   4
ATOM      4  O   UNL     1       3.269   1.468   2.440  1.00  0.00    -0.481 OA
ATOM      5  H   UNL     1       2.484   0.812   2.400  1.00  0.00     0.296 HD
ENDBRANCH   2   4
ENDBRANCH   1   2
BRANCH   1   6
ATOM      6  C   UNL     1       6.504   1.748   0.740  1.00  0.00     0.047 C 
BRANCH   6   7
ATOM      7  C   UNL     1       7.157   1.009  -0.339  1.00  0.00    -0.047 A 
ATOM      8  C   UNL     1       8.475   1.244  -0.656  1.00  0.00     0.004 A 
ATOM      9  C   UNL     1       6.438   0.067  -1.039  1.00  0.00     0.004 A 
ATOM     10  C   UNL     1       9.034   0.501  -1.698  1.00  0.00     0.000 A 
ATOM     11  C   UNL     1       6.992  -0.667  -2.069  1.00  0.00     0.000 A 
ATOM     12  C   UNL     1       8.311  -0.436  -2.393  1.00  0.00     0.000 A 
ENDBRANCH   6   7
ENDBRANCH   1   6
TORSDOF 4
ENDMDL
MODEL 4
REMARK VINA RESULT:      -6.7      2.001      2.295
REMARK SMILES O=C(O)CCc1ccccc1
REMARK SMILES IDX 4 1 2 2 1 3 3 4 5 6 6 7 7 8 11 9 8 10 10 11 9 12
REMARK H PARENT 3 5
REMARK Flexibility Score: inf
ROOT
ATOM      1  C   UNL     1       8.236   0.372  -1.993  1.00  0.00     0.127 C 
ENDROOT
BRANCH   1   2
ATOM      2  C   UNL     1       9.427   0.397  -1.112  1.00  0.00     0.303 C 
ATOM      3  O   UNL     1       9.516  -0.364  -0.117  1.00  0.00    -0.252 OA
BRANCH   2   4
ATOM      4  O   UNL     1      10.478   1.265  -1.363  1.00  0.00    -0.481 OA
ATOM      5  H   UNL     1      11.409   1.043  -0.998  1.00  0.00     0.296 HD
ENDBRANCH   2   4
ENDBRANCH   1   2
BRANCH   1   6
ATOM      6  C   UNL     1       7.202  -0.509  -1.362  1.00  0.00     0.047 C 
BRANCH   6   7
ATOM      7  C   UNL     1       6.373   0.168  -0.366  1.00  0.00    -0.047 A 
ATOM      8  C   UNL     1       5.807   1.392  -0.636  1.00  0.00     0.004 A 
ATOM      9  C   UNL     1       6.160  -0.436   0.852  1.00  0.00     0.004 A 
ATOM     10  C   UNL     1       5.025   1.979   0.361  1.00  0.00     0.000 A 
ATOM     11  C   UNL     1       5.387   0.147   1.837  1.00  0.00     0.000 A 
ATOM     12  C   UNL     1       4.817   1.373   1.575  1.00  0.00     0.000 A 
ENDBRANCH   6   7
ENDBRANCH   1   6
TORSDOF 4
ENDMDL
