@<TRIPOS>MOLECULE
/home/cewinharhar/GITHUB/reincatalyze/data/processed/docking_pred/2023_Apr_20-15:07/2f41e52dfc6618f39d2325611a45b0a1c53476a0_ligand_2.pdbqt
 12 12 0 0 0
SMALL
GASTEIGER

@<TRIPOS>ATOM
      1  C          8.4490   -0.5970   -2.2020 C.3     1  UNL1        0.1270
      2  C          8.4930   -1.8940   -2.9170 C.2     1  UNL1        0.3030
      3  O          9.5760   -2.5050   -3.0910 O.2     1  UNL1       -0.2520
      4  O          7.3350   -2.4700   -3.4160 O.3     1  UNL1       -0.4810
      5  H          6.9820   -2.1740   -4.3300 H       1  UNL1        0.2960
      6  C          7.0260   -0.1300   -2.1610 C.3     1  UNL1        0.0470
      7  C          6.4900    0.0230   -0.8090 C.2     1  UNL1       -0.0470
      8  C          6.6220   -0.9840    0.1180 C.2     1  UNL1        0.0040
      9  C          5.8490    1.1930   -0.4700 C.2     1  UNL1        0.0040
     10  C          6.0870   -0.7680    1.3900 C.2     1  UNL1        0.0000
     11  C          5.3200    1.4040    0.7870 C.2     1  UNL1        0.0000
     12  C          5.4480    0.4000    1.7230 C.2     1  UNL1        0.0000
@<TRIPOS>BOND
     1     5     4    1
     2     4     2    1
     3     3     2    2
     4     2     1    1
     5     1     6    1
     6     6     7    1
     7     7     9    2
     8     7     8    1
     9     9    11    1
    10     8    10    2
    11    11    12    2
    12    10    12    1
