@<TRIPOS>MOLECULE
/home/cewinharhar/GITHUB/reincatalyze/data/processed/docking_pred/2023_Apr_20-15:07/2f41e52dfc6618f39d2325611a45b0a1c53476a0_ligand_2.pdbqt
 12 12 0 0 0
SMALL
GASTEIGER

@<TRIPOS>ATOM
      1  C          5.0000    1.7900    0.7100 C.3     1  UNL1        0.1270
      2  C          4.4700    1.1110    1.9160 C.2     1  UNL1        0.3030
      3  O          5.1110    0.1890    2.4790 O.2     1  UNL1       -0.2520
      4  O          3.2470    1.4750    2.4560 O.3     1  UNL1       -0.4810
      5  H          2.9730    1.1050    3.3710 H       1  UNL1        0.2960
      6  C          6.4970    1.7630    0.7750 C.3     1  UNL1        0.0470
      7  C          7.1260    1.0220   -0.3170 C.2     1  UNL1       -0.0470
      8  C          8.4290    1.2730   -0.6790 C.2     1  UNL1        0.0040
      9  C          6.3990    0.0610   -0.9810 C.2     1  UNL1        0.0040
     10  C          8.9650    0.5260   -1.7300 C.2     1  UNL1        0.0000
     11  C          6.9310   -0.6770   -2.0200 C.2     1  UNL1        0.0000
     12  C          8.2360   -0.4300   -2.3900 C.2     1  UNL1        0.0000
@<TRIPOS>BOND
     1    12    11    2
     2    12    10    1
     3    11     9    1
     4    10     8    2
     5     9     7    2
     6     8     7    1
     7     7     6    1
     8     1     6    1
     9     1     2    1
    10     2     4    1
    11     2     3    2
    12     4     5    1
