@<TRIPOS>MOLECULE
/home/cewinharhar/GITHUB/reincatalyze/data/processed/docking_pred/2023_Apr_20-15:07/2f41e52dfc6618f39d2325611a45b0a1c53476a0_ligand_2.pdbqt
 12 12 0 0 0
SMALL
GASTEIGER

@<TRIPOS>ATOM
      1  C          8.2280    0.2350   -2.1830 C.3     1  UNL1        0.1270
      2  C          9.3560    0.3500   -1.2280 C.2     1  UNL1        0.3030
      3  O          9.4500   -0.4150   -0.2360 O.2     1  UNL1       -0.2520
      4  O         10.3410    1.3080   -1.4060 O.3     1  UNL1       -0.4810
      5  H         10.3390    2.1440   -0.8150 H       1  UNL1        0.2960
      6  C          7.1260   -0.5330   -1.5180 C.3     1  UNL1        0.0470
      7  C          6.3470    0.2520   -0.5630 C.2     1  UNL1       -0.0470
      8  C          6.1300   -0.2090    0.7150 C.2     1  UNL1        0.0040
      9  C          5.8300    1.4660   -0.9540 C.2     1  UNL1        0.0040
     10  C          5.3770    0.5940    1.5750 C.2     1  UNL1        0.0000
     11  C          5.0860    2.2580   -0.1020 C.2     1  UNL1        0.0000
     12  C          4.8640    1.8030    1.1790 C.2     1  UNL1        0.0000
@<TRIPOS>BOND
     1     1     6    1
     2     1     2    1
     3     6     7    1
     4     4     2    1
     5     4     5    1
     6     2     3    2
     7     9     7    2
     8     9    11    1
     9     7     8    1
    10    11    12    2
    11     8    10    2
    12    12    10    1
