@<TRIPOS>MOLECULE
/home/cewinharhar/GITHUB/reincatalyze/data/processed/docking_pred/2023_Apr_20-15:07/2f41e52dfc6618f39d2325611a45b0a1c53476a0_ligand_2.pdbqt
 12 12 0 0 0
SMALL
GASTEIGER

@<TRIPOS>ATOM
      1  C          5.3390    2.9710    0.0600 C.3     1  UNL1        0.1270
      2  C          6.2240    3.8700    0.8390 C.2     1  UNL1        0.3030
      3  O          6.8940    4.7710    0.2760 O.2     1  UNL1       -0.2520
      4  O          6.3360    3.7390    2.2140 O.3     1  UNL1       -0.4810
      5  H          7.2470    3.8810    2.6570 H       1  UNL1        0.2960
      6  C          5.2120    1.6760    0.8030 C.3     1  UNL1        0.0470
      7  C          5.9870    0.5800    0.2240 C.2     1  UNL1       -0.0470
      8  C          6.3840   -0.4860    0.9970 C.2     1  UNL1        0.0040
      9  C          6.3170    0.6240   -1.1110 C.2     1  UNL1        0.0040
     10  C          7.1210   -1.4970    0.3770 C.2     1  UNL1        0.0000
     11  C          7.0470   -0.3760   -1.7220 C.2     1  UNL1        0.0000
     12  C          7.4490   -1.4480   -0.9550 C.2     1  UNL1        0.0000
@<TRIPOS>BOND
     1    11     9    1
     2    11    12    2
     3     9     7    2
     4    12    10    1
     5     1     6    1
     6     1     2    1
     7     7     6    1
     8     7     8    1
     9     3     2    2
    10    10     8    2
    11     2     4    1
    12     4     5    1
