MODEL 1
REMARK VINA RESULT:      -7.4      0.000      0.000
REMARK SMILES O=C(O)CCc1ccccc1
REMARK SMILES IDX 4 1 2 2 1 3 3 4 5 6 6 7 7 8 11 9 8 10 10 11 9 12
REMARK H PARENT 3 5
REMARK Flexibility Score: inf
ROOT
ATOM      1  C   UNL     1       8.449  -0.597  -2.202  1.00  0.00     0.127 C 
ENDROOT
BRANCH   1   2
ATOM      2  C   UNL     1       8.493  -1.894  -2.917  1.00  0.00     0.303 C 
ATOM      3  O   UNL     1       9.576  -2.505  -3.091  1.00  0.00    -0.252 OA
BRANCH   2   4
ATOM      4  O   UNL     1       7.335  -2.470  -3.416  1.00  0.00    -0.481 OA
ATOM      5  H   UNL     1       6.982  -2.174  -4.330  1.00  0.00     0.296 HD
ENDBRANCH   2   4
ENDBRANCH   1   2
BRANCH   1   6
ATOM      6  C   UNL     1       7.026  -0.130  -2.161  1.00  0.00     0.047 C 
BRANCH   6   7
ATOM      7  C   UNL     1       6.490   0.023  -0.809  1.00  0.00    -0.047 A 
ATOM      8  C   UNL     1       6.622  -0.984   0.118  1.00  0.00     0.004 A 
ATOM      9  C   UNL     1       5.849   1.193  -0.470  1.00  0.00     0.004 A 
ATOM     10  C   UNL     1       6.087  -0.768   1.390  1.00  0.00     0.000 A 
ATOM     11  C   UNL     1       5.320   1.404   0.787  1.00  0.00     0.000 A 
ATOM     12  C   UNL     1       5.448   0.400   1.723  1.00  0.00     0.000 A 
ENDBRANCH   6   7
ENDBRANCH   1   6
TORSDOF 4
ENDMDL
MODEL 2
REMARK VINA RESULT:      -7.4      0.057      1.438
REMARK SMILES O=C(O)CCc1ccccc1
REMARK SMILES IDX 4 1 2 2 1 3 3 4 5 6 6 7 7 8 11 9 8 10 10 11 9 12
REMARK H PARENT 3 5
REMARK Flexibility Score: inf
ROOT
ATOM      1  C   UNL     1       8.438  -0.637  -2.145  1.00  0.00     0.127 C 
ENDROOT
BRANCH   1   2
ATOM      2  C   UNL     1       8.475  -1.904  -2.912  1.00  0.00     0.303 C 
ATOM      3  O   UNL     1       9.553  -2.521  -3.097  1.00  0.00    -0.252 OA
BRANCH   2   4
ATOM      4  O   UNL     1       7.317  -2.444  -3.448  1.00  0.00    -0.481 OA
ATOM      5  H   UNL     1       7.187  -3.460  -3.438  1.00  0.00     0.296 HD
ENDBRANCH   2   4
ENDBRANCH   1   2
BRANCH   1   6
ATOM      6  C   UNL     1       7.025  -0.139  -2.127  1.00  0.00     0.047 C 
BRANCH   6   7
ATOM      7  C   UNL     1       6.480   0.059  -0.785  1.00  0.00    -0.047 A 
ATOM      8  C   UNL     1       5.840   1.230  -0.451  1.00  0.00     0.004 A 
ATOM      9  C   UNL     1       6.612  -0.944   0.147  1.00  0.00     0.004 A 
ATOM     10  C   UNL     1       5.344   1.349   0.849  1.00  0.00     0.000 A 
ATOM     11  C   UNL     1       6.121  -0.824   1.432  1.00  0.00     0.000 A 
ATOM     12  C   UNL     1       5.480   0.346   1.775  1.00  0.00     0.000 A 
ENDBRANCH   6   7
ENDBRANCH   1   6
TORSDOF 4
ENDMDL
MODEL 3
REMARK VINA RESULT:      -6.8      3.384      5.085
REMARK SMILES O=C(O)CCc1ccccc1
REMARK SMILES IDX 4 1 2 2 1 3 3 4 5 6 6 7 7 8 11 9 8 10 10 11 9 12
REMARK H PARENT 3 5
REMARK Flexibility Score: inf
ROOT
ATOM      1  C   UNL     1       5.000   1.790   0.710  1.00  0.00     0.127 C 
ENDROOT
BRANCH   1   2
ATOM      2  C   UNL     1       4.470   1.111   1.916  1.00  0.00     0.303 C 
ATOM      3  O   UNL     1       5.111   0.189   2.479  1.00  0.00    -0.252 OA
BRANCH   2   4
ATOM      4  O   UNL     1       3.247   1.475   2.456  1.00  0.00    -0.481 OA
ATOM      5  H   UNL     1       2.973   1.105   3.371  1.00  0.00     0.296 HD
ENDBRANCH   2   4
ENDBRANCH   1   2
BRANCH   1   6
ATOM      6  C   UNL     1       6.497   1.763   0.775  1.00  0.00     0.047 C 
BRANCH   6   7
ATOM      7  C   UNL     1       7.126   1.022  -0.317  1.00  0.00    -0.047 A 
ATOM      8  C   UNL     1       8.429   1.273  -0.679  1.00  0.00     0.004 A 
ATOM      9  C   UNL     1       6.399   0.061  -0.981  1.00  0.00     0.004 A 
ATOM     10  C   UNL     1       8.965   0.526  -1.730  1.00  0.00     0.000 A 
ATOM     11  C   UNL     1       6.931  -0.677  -2.020  1.00  0.00     0.000 A 
ATOM     12  C   UNL     1       8.236  -0.430  -2.390  1.00  0.00     0.000 A 
ENDBRANCH   6   7
ENDBRANCH   1   6
TORSDOF 4
ENDMDL
MODEL 4
REMARK VINA RESULT:      -6.7      1.926      2.297
REMARK SMILES O=C(O)CCc1ccccc1
REMARK SMILES IDX 4 1 2 2 1 3 3 4 5 6 6 7 7 8 11 9 8 10 10 11 9 12
REMARK H PARENT 3 5
REMARK Flexibility Score: inf
ROOT
ATOM      1  C   UNL     1       8.228   0.235  -2.183  1.00  0.00     0.127 C 
ENDROOT
BRANCH   1   2
ATOM      2  C   UNL     1       9.356   0.350  -1.228  1.00  0.00     0.303 C 
ATOM      3  O   UNL     1       9.450  -0.415  -0.236  1.00  0.00    -0.252 OA
BRANCH   2   4
ATOM      4  O   UNL     1      10.341   1.308  -1.406  1.00  0.00    -0.481 OA
ATOM      5  H   UNL     1      10.339   2.144  -0.815  1.00  0.00     0.296 HD
ENDBRANCH   2   4
ENDBRANCH   1   2
BRANCH   1   6
ATOM      6  C   UNL     1       7.126  -0.533  -1.518  1.00  0.00     0.047 C 
BRANCH   6   7
ATOM      7  C   UNL     1       6.347   0.252  -0.563  1.00  0.00    -0.047 A 
ATOM      8  C   UNL     1       6.130  -0.209   0.715  1.00  0.00     0.004 A 
ATOM      9  C   UNL     1       5.830   1.466  -0.954  1.00  0.00     0.004 A 
ATOM     10  C   UNL     1       5.377   0.594   1.575  1.00  0.00     0.000 A 
ATOM     11  C   UNL     1       5.086   2.258  -0.102  1.00  0.00     0.000 A 
ATOM     12  C   UNL     1       4.864   1.803   1.179  1.00  0.00     0.000 A 
ENDBRANCH   6   7
ENDBRANCH   1   6
TORSDOF 4
ENDMDL
MODEL 5
REMARK VINA RESULT:      -6.6      3.717      4.967
REMARK SMILES O=C(O)CCc1ccccc1
REMARK SMILES IDX 4 1 2 2 1 3 3 4 5 6 6 7 7 8 11 9 8 10 10 11 9 12
REMARK H PARENT 3 5
REMARK Flexibility Score: inf
ROOT
ATOM      1  C   UNL     1       5.339   2.971   0.060  1.00  0.00     0.127 C 
ENDROOT
BRANCH   1   2
ATOM      2  C   UNL     1       6.224   3.870   0.839  1.00  0.00     0.303 C 
ATOM      3  O   UNL     1       6.894   4.771   0.276  1.00  0.00    -0.252 OA
BRANCH   2   4
ATOM      4  O   UNL     1       6.336   3.739   2.214  1.00  0.00    -0.481 OA
ATOM      5  H   UNL     1       7.247   3.881   2.657  1.00  0.00     0.296 HD
ENDBRANCH   2   4
ENDBRANCH   1   2
BRANCH   1   6
ATOM      6  C   UNL     1       5.212   1.676   0.803  1.00  0.00     0.047 C 
BRANCH   6   7
ATOM      7  C   UNL     1       5.987   0.580   0.224  1.00  0.00    -0.047 A 
ATOM      8  C   UNL     1       6.384  -0.486   0.997  1.00  0.00     0.004 A 
ATOM      9  C   UNL     1       6.317   0.624  -1.111  1.00  0.00     0.004 A 
ATOM     10  C   UNL     1       7.121  -1.497   0.377  1.00  0.00     0.000 A 
ATOM     11  C   UNL     1       7.047  -0.376  -1.722  1.00  0.00     0.000 A 
ATOM     12  C   UNL     1       7.449  -1.448  -0.955  1.00  0.00     0.000 A 
ENDBRANCH   6   7
ENDBRANCH   1   6
TORSDOF 4
ENDMDL
