@<TRIPOS>MOLECULE
/home/cewinharhar/GITHUB/reincatalyze/data/processed/docking_pred/2023_Apr_20-15:07/30246d56752cb6be0208f58fab85103c625ac011_ligand_2.pdbqt
 12 12 0 0 0
SMALL
GASTEIGER

@<TRIPOS>ATOM
      1  C          5.0070    1.7190    0.6440 C.3     1  UNL1        0.1270
      2  C          4.5060    1.0920    1.8890 C.2     1  UNL1        0.3030
      3  O          5.1690    0.2080    2.4860 O.2     1  UNL1       -0.2520
      4  O          3.2860    1.4650    2.4310 O.3     1  UNL1       -0.4810
      5  H          2.5390    0.7700    2.5090 H       1  UNL1        0.2960
      6  C          6.5040    1.7620    0.7080 C.3     1  UNL1        0.0470
      7  C          7.1670    1.0180   -0.3610 C.2     1  UNL1       -0.0470
      8  C          8.5000    1.2190   -0.6360 C.2     1  UNL1        0.0040
      9  C          6.4420    0.1070   -1.0940 C.2     1  UNL1        0.0040
     10  C          9.0680    0.4730   -1.6710 C.2     1  UNL1        0.0000
     11  C          7.0050   -0.6300   -2.1170 C.2     1  UNL1        0.0000
     12  C          8.3400   -0.4340   -2.3990 C.2     1  UNL1        0.0000
@<TRIPOS>BOND
     1    12    11    2
     2    12    10    1
     3    11     9    1
     4    10     8    2
     5     9     7    2
     6     8     7    1
     7     7     6    1
     8     1     6    1
     9     1     2    1
    10     2     4    1
    11     2     3    2
    12     4     5    1
