MODEL 1
REMARK VINA RESULT:      -7.4      0.000      0.000
REMARK SMILES O=C(O)CCc1ccccc1
REMARK SMILES IDX 4 1 2 2 1 3 3 4 5 6 6 7 7 8 11 9 8 10 10 11 9 12
REMARK H PARENT 3 5
REMARK Flexibility Score: inf
ROOT
ATOM      1  C   UNL     1       8.441  -0.575  -2.225  1.00  0.00     0.127 C 
ENDROOT
BRANCH   1   2
ATOM      2  C   UNL     1       8.486  -1.879  -2.927  1.00  0.00     0.303 C 
ATOM      3  O   UNL     1       9.570  -2.491  -3.095  1.00  0.00    -0.252 OA
BRANCH   2   4
ATOM      4  O   UNL     1       7.328  -2.461  -3.419  1.00  0.00    -0.481 OA
ATOM      5  H   UNL     1       7.401  -3.228  -4.093  1.00  0.00     0.296 HD
ENDBRANCH   2   4
ENDBRANCH   1   2
BRANCH   1   6
ATOM      6  C   UNL     1       7.016  -0.113  -2.180  1.00  0.00     0.047 C 
BRANCH   6   7
ATOM      7  C   UNL     1       6.485   0.049  -0.828  1.00  0.00    -0.047 A 
ATOM      8  C   UNL     1       6.629  -0.950   0.108  1.00  0.00     0.004 A 
ATOM      9  C   UNL     1       5.839   1.217  -0.495  1.00  0.00     0.004 A 
ATOM     10  C   UNL     1       6.098  -0.726   1.381  1.00  0.00     0.000 A 
ATOM     11  C   UNL     1       5.315   1.436   0.763  1.00  0.00     0.000 A 
ATOM     12  C   UNL     1       5.454   0.440   1.706  1.00  0.00     0.000 A 
ENDBRANCH   6   7
ENDBRANCH   1   6
TORSDOF 4
ENDMDL
MODEL 2
REMARK VINA RESULT:      -7.3      0.065      1.438
REMARK SMILES O=C(O)CCc1ccccc1
REMARK SMILES IDX 4 1 2 2 1 3 3 4 5 6 6 7 7 8 11 9 8 10 10 11 9 12
REMARK H PARENT 3 5
REMARK Flexibility Score: inf
ROOT
ATOM      1  C   UNL     1       8.420  -0.547  -2.226  1.00  0.00     0.127 C 
ENDROOT
BRANCH   1   2
ATOM      2  C   UNL     1       8.489  -1.859  -2.912  1.00  0.00     0.303 C 
ATOM      3  O   UNL     1       9.581  -2.461  -3.058  1.00  0.00    -0.252 OA
BRANCH   2   4
ATOM      4  O   UNL     1       7.345  -2.458  -3.415  1.00  0.00    -0.481 OA
ATOM      5  H   UNL     1       7.189  -3.457  -3.250  1.00  0.00     0.296 HD
ENDBRANCH   2   4
ENDBRANCH   1   2
BRANCH   1   6
ATOM      6  C   UNL     1       6.985  -0.116  -2.177  1.00  0.00     0.047 C 
BRANCH   6   7
ATOM      7  C   UNL     1       6.468   0.078  -0.824  1.00  0.00    -0.047 A 
ATOM      8  C   UNL     1       5.838   1.249  -0.473  1.00  0.00     0.004 A 
ATOM      9  C   UNL     1       6.616  -0.929   0.102  1.00  0.00     0.004 A 
ATOM     10  C   UNL     1       5.368   1.365   0.837  1.00  0.00     0.000 A 
ATOM     11  C   UNL     1       6.151  -0.813   1.397  1.00  0.00     0.000 A 
ATOM     12  C   UNL     1       5.519   0.358   1.757  1.00  0.00     0.000 A 
ENDBRANCH   6   7
ENDBRANCH   1   6
TORSDOF 4
ENDMDL
MODEL 3
REMARK VINA RESULT:      -6.8      3.371      5.066
REMARK SMILES O=C(O)CCc1ccccc1
REMARK SMILES IDX 4 1 2 2 1 3 3 4 5 6 6 7 7 8 11 9 8 10 10 11 9 12
REMARK H PARENT 3 5
REMARK Flexibility Score: inf
ROOT
ATOM      1  C   UNL     1       5.007   1.719   0.644  1.00  0.00     0.127 C 
ENDROOT
BRANCH   1   2
ATOM      2  C   UNL     1       4.506   1.092   1.889  1.00  0.00     0.303 C 
ATOM      3  O   UNL     1       5.169   0.208   2.486  1.00  0.00    -0.252 OA
BRANCH   2   4
ATOM      4  O   UNL     1       3.286   1.465   2.431  1.00  0.00    -0.481 OA
ATOM      5  H   UNL     1       2.539   0.770   2.509  1.00  0.00     0.296 HD
ENDBRANCH   2   4
ENDBRANCH   1   2
BRANCH   1   6
ATOM      6  C   UNL     1       6.504   1.762   0.708  1.00  0.00     0.047 C 
BRANCH   6   7
ATOM      7  C   UNL     1       7.167   1.018  -0.361  1.00  0.00    -0.047 A 
ATOM      8  C   UNL     1       8.500   1.219  -0.636  1.00  0.00     0.004 A 
ATOM      9  C   UNL     1       6.442   0.107  -1.094  1.00  0.00     0.004 A 
ATOM     10  C   UNL     1       9.068   0.473  -1.671  1.00  0.00     0.000 A 
ATOM     11  C   UNL     1       7.005  -0.630  -2.117  1.00  0.00     0.000 A 
ATOM     12  C   UNL     1       8.340  -0.434  -2.399  1.00  0.00     0.000 A 
ENDBRANCH   6   7
ENDBRANCH   1   6
TORSDOF 4
ENDMDL
MODEL 4
REMARK VINA RESULT:      -6.6      3.726      4.980
REMARK SMILES O=C(O)CCc1ccccc1
REMARK SMILES IDX 4 1 2 2 1 3 3 4 5 6 6 7 7 8 11 9 8 10 10 11 9 12
REMARK H PARENT 3 5
REMARK Flexibility Score: inf
ROOT
ATOM      1  C   UNL     1       5.342   2.946   0.149  1.00  0.00     0.127 C 
ENDROOT
BRANCH   1   2
ATOM      2  C   UNL     1       6.232   3.875   0.884  1.00  0.00     0.303 C 
ATOM      3  O   UNL     1       6.889   4.760   0.282  1.00  0.00    -0.252 OA
BRANCH   2   4
ATOM      4  O   UNL     1       6.363   3.792   2.261  1.00  0.00    -0.481 OA
ATOM      5  H   UNL     1       7.284   3.933   2.685  1.00  0.00     0.296 HD
ENDBRANCH   2   4
ENDBRANCH   1   2
BRANCH   1   6
ATOM      6  C   UNL     1       5.274   1.658   0.911  1.00  0.00     0.047 C 
BRANCH   6   7
ATOM      7  C   UNL     1       6.031   0.566   0.302  1.00  0.00    -0.047 A 
ATOM      8  C   UNL     1       6.469  -0.495   1.060  1.00  0.00     0.004 A 
ATOM      9  C   UNL     1       6.303   0.607  -1.046  1.00  0.00     0.004 A 
ATOM     10  C   UNL     1       7.186  -1.503   0.412  1.00  0.00     0.000 A 
ATOM     11  C   UNL     1       7.013  -0.390  -1.685  1.00  0.00     0.000 A 
ATOM     12  C   UNL     1       7.455  -1.456  -0.932  1.00  0.00     0.000 A 
ENDBRANCH   6   7
ENDBRANCH   1   6
TORSDOF 4
ENDMDL
MODEL 5
REMARK VINA RESULT:      -6.6      2.050      2.711
REMARK SMILES O=C(O)CCc1ccccc1
REMARK SMILES IDX 4 1 2 2 1 3 3 4 5 6 6 7 7 8 11 9 8 10 10 11 9 12
REMARK H PARENT 3 5
REMARK Flexibility Score: inf
ROOT
ATOM      1  C   UNL     1       8.418   0.596  -1.751  1.00  0.00     0.127 C 
ENDROOT
BRANCH   1   2
ATOM      2  C   UNL     1       9.580   0.286  -0.885  1.00  0.00     0.303 C 
ATOM      3  O   UNL     1       9.475  -0.504   0.085  1.00  0.00    -0.252 OA
BRANCH   2   4
ATOM      4  O   UNL     1      10.817   0.862  -1.125  1.00  0.00    -0.481 OA
ATOM      5  H   UNL     1      10.890   1.632  -1.796  1.00  0.00     0.296 HD
ENDBRANCH   2   4
ENDBRANCH   1   2
BRANCH   1   6
ATOM      6  C   UNL     1       7.279  -0.289  -1.346  1.00  0.00     0.047 C 
BRANCH   6   7
ATOM      7  C   UNL     1       6.398   0.300  -0.338  1.00  0.00    -0.047 A 
ATOM      8  C   UNL     1       5.793   1.515  -0.557  1.00  0.00     0.004 A 
ATOM      9  C   UNL     1       6.177  -0.378   0.838  1.00  0.00     0.004 A 
ATOM     10  C   UNL     1       4.964   2.017   0.449  1.00  0.00     0.000 A 
ATOM     11  C   UNL     1       5.357   0.120   1.832  1.00  0.00     0.000 A 
ATOM     12  C   UNL     1       4.747   1.337   1.621  1.00  0.00     0.000 A 
ENDBRANCH   6   7
ENDBRANCH   1   6
TORSDOF 4
ENDMDL
