@<TRIPOS>MOLECULE
/home/cewinharhar/GITHUB/reincatalyze/data/processed/docking_pred/2023_Apr_20-15:07/30246d56752cb6be0208f58fab85103c625ac011_ligand_2.pdbqt
 12 12 0 0 0
SMALL
GASTEIGER

@<TRIPOS>ATOM
      1  C          5.3420    2.9460    0.1490 C.3     1  UNL1        0.1270
      2  C          6.2320    3.8750    0.8840 C.2     1  UNL1        0.3030
      3  O          6.8890    4.7600    0.2820 O.2     1  UNL1       -0.2520
      4  O          6.3630    3.7920    2.2610 O.3     1  UNL1       -0.4810
      5  H          7.2840    3.9330    2.6850 H       1  UNL1        0.2960
      6  C          5.2740    1.6580    0.9110 C.3     1  UNL1        0.0470
      7  C          6.0310    0.5660    0.3020 C.2     1  UNL1       -0.0470
      8  C          6.4690   -0.4950    1.0600 C.2     1  UNL1        0.0040
      9  C          6.3030    0.6070   -1.0460 C.2     1  UNL1        0.0040
     10  C          7.1860   -1.5030    0.4120 C.2     1  UNL1        0.0000
     11  C          7.0130   -0.3900   -1.6850 C.2     1  UNL1        0.0000
     12  C          7.4550   -1.4560   -0.9320 C.2     1  UNL1        0.0000
@<TRIPOS>BOND
     1    11     9    1
     2    11    12    2
     3     9     7    2
     4    12    10    1
     5     1     2    1
     6     1     6    1
     7     3     2    2
     8     7     6    1
     9     7     8    1
    10    10     8    2
    11     2     4    1
    12     4     5    1
