@<TRIPOS>MOLECULE
/home/cewinharhar/GITHUB/reincatalyze/data/processed/docking_pred/2023_Apr_20-15:07/30246d56752cb6be0208f58fab85103c625ac011_ligand_2.pdbqt
 12 12 0 0 0
SMALL
GASTEIGER

@<TRIPOS>ATOM
      1  C          8.4410   -0.5750   -2.2250 C.3     1  UNL1        0.1270
      2  C          8.4860   -1.8790   -2.9270 C.2     1  UNL1        0.3030
      3  O          9.5700   -2.4910   -3.0950 O.2     1  UNL1       -0.2520
      4  O          7.3280   -2.4610   -3.4190 O.3     1  UNL1       -0.4810
      5  H          7.4010   -3.2280   -4.0930 H       1  UNL1        0.2960
      6  C          7.0160   -0.1130   -2.1800 C.3     1  UNL1        0.0470
      7  C          6.4850    0.0490   -0.8280 C.2     1  UNL1       -0.0470
      8  C          6.6290   -0.9500    0.1080 C.2     1  UNL1        0.0040
      9  C          5.8390    1.2170   -0.4950 C.2     1  UNL1        0.0040
     10  C          6.0980   -0.7260    1.3810 C.2     1  UNL1        0.0000
     11  C          5.3150    1.4360    0.7630 C.2     1  UNL1        0.0000
     12  C          5.4540    0.4400    1.7060 C.2     1  UNL1        0.0000
@<TRIPOS>BOND
     1     5     4    1
     2     4     2    1
     3     3     2    2
     4     2     1    1
     5     1     6    1
     6     6     7    1
     7     7     9    2
     8     7     8    1
     9     9    11    1
    10     8    10    2
    11    11    12    2
    12    10    12    1
