@<TRIPOS>MOLECULE
/home/cewinharhar/GITHUB/reincatalyze/data/processed/docking_pred/2023_Apr_20-15:07/30246d56752cb6be0208f58fab85103c625ac011_ligand_2.pdbqt
 12 12 0 0 0
SMALL
GASTEIGER

@<TRIPOS>ATOM
      1  C          8.4200   -0.5470   -2.2260 C.3     1  UNL1        0.1270
      2  C          8.4890   -1.8590   -2.9120 C.2     1  UNL1        0.3030
      3  O          9.5810   -2.4610   -3.0580 O.2     1  UNL1       -0.2520
      4  O          7.3450   -2.4580   -3.4150 O.3     1  UNL1       -0.4810
      5  H          7.1890   -3.4570   -3.2500 H       1  UNL1        0.2960
      6  C          6.9850   -0.1160   -2.1770 C.3     1  UNL1        0.0470
      7  C          6.4680    0.0780   -0.8240 C.2     1  UNL1       -0.0470
      8  C          5.8380    1.2490   -0.4730 C.2     1  UNL1        0.0040
      9  C          6.6160   -0.9290    0.1020 C.2     1  UNL1        0.0040
     10  C          5.3680    1.3650    0.8370 C.2     1  UNL1        0.0000
     11  C          6.1510   -0.8130    1.3970 C.2     1  UNL1        0.0000
     12  C          5.5190    0.3580    1.7570 C.2     1  UNL1        0.0000
@<TRIPOS>BOND
     1     4     5    1
     2     4     2    1
     3     3     2    2
     4     2     1    1
     5     1     6    1
     6     6     7    1
     7     7     8    2
     8     7     9    1
     9     8    10    1
    10     9    11    2
    11    10    12    2
    12    11    12    1
