@<TRIPOS>MOLECULE
/home/cewinharhar/GITHUB/reincatalyze/data/processed/docking_pred/2023_Apr_20-15:07/30246d56752cb6be0208f58fab85103c625ac011_ligand_2.pdbqt
 12 12 0 0 0
SMALL
GASTEIGER

@<TRIPOS>ATOM
      1  C          8.4180    0.5960   -1.7510 C.3     1  UNL1        0.1270
      2  C          9.5800    0.2860   -0.8850 C.2     1  UNL1        0.3030
      3  O          9.4750   -0.5040    0.0850 O.2     1  UNL1       -0.2520
      4  O         10.8170    0.8620   -1.1250 O.3     1  UNL1       -0.4810
      5  H         10.8900    1.6320   -1.7960 H       1  UNL1        0.2960
      6  C          7.2790   -0.2890   -1.3460 C.3     1  UNL1        0.0470
      7  C          6.3980    0.3000   -0.3380 C.2     1  UNL1       -0.0470
      8  C          5.7930    1.5150   -0.5570 C.2     1  UNL1        0.0040
      9  C          6.1770   -0.3780    0.8380 C.2     1  UNL1        0.0040
     10  C          4.9640    2.0170    0.4490 C.2     1  UNL1        0.0000
     11  C          5.3570    0.1200    1.8320 C.2     1  UNL1        0.0000
     12  C          4.7470    1.3370    1.6210 C.2     1  UNL1        0.0000
@<TRIPOS>BOND
     1     5     4    1
     2     1     6    1
     3     1     2    1
     4     6     7    1
     5     4     2    1
     6     2     3    2
     7     8     7    2
     8     8    10    1
     9     7     9    1
    10    10    12    2
    11     9    11    2
    12    12    11    1
