@<TRIPOS>MOLECULE
/home/cewinharhar/GITHUB/reincatalyze/data/processed/docking_pred/2023_Apr_20-15:07/306d1dfeb5e1085b4f3e24b09348dc81ae645662_ligand_2.pdbqt
 12 12 0 0 0
SMALL
GASTEIGER

@<TRIPOS>ATOM
      1  C          8.4740   -0.6910   -2.0540 C.3     1  UNL1        0.1270
      2  C          8.4820   -1.9240   -2.8770 C.2     1  UNL1        0.3030
      3  O          9.5490   -2.5440   -3.1080 O.2     1  UNL1       -0.2520
      4  O          7.3080   -2.4270   -3.4140 O.3     1  UNL1       -0.4810
      5  H          7.3550   -3.0460   -4.2280 H       1  UNL1        0.2960
      6  C          7.0900   -0.1160   -2.0820 C.3     1  UNL1        0.0470
      7  C          6.4990    0.0720   -0.7580 C.2     1  UNL1       -0.0470
      8  C          6.6100   -0.9010    0.2070 C.2     1  UNL1        0.0040
      9  C          5.8260    1.2410   -0.4840 C.2     1  UNL1        0.0040
     10  C          6.0210   -0.6530    1.4490 C.2     1  UNL1        0.0000
     11  C          5.2440    1.4840    0.7440 C.2     1  UNL1        0.0000
     12  C          5.3510    0.5140    1.7170 C.2     1  UNL1        0.0000
@<TRIPOS>BOND
     1     5     4    1
     2     4     2    1
     3     3     2    2
     4     2     1    1
     5     6     1    1
     6     6     7    1
     7     7     9    2
     8     7     8    1
     9     9    11    1
    10     8    10    2
    11    11    12    2
    12    10    12    1
