MODEL 1
REMARK VINA RESULT:      -7.4      0.000      0.000
REMARK SMILES O=C(O)CCc1ccccc1
REMARK SMILES IDX 4 1 2 2 1 3 3 4 5 6 6 7 7 8 11 9 8 10 10 11 9 12
REMARK H PARENT 3 5
REMARK Flexibility Score: inf
ROOT
ATOM      1  C   UNL     1       8.474  -0.691  -2.054  1.00  0.00     0.127 C 
ENDROOT
BRANCH   1   2
ATOM      2  C   UNL     1       8.482  -1.924  -2.877  1.00  0.00     0.303 C 
ATOM      3  O   UNL     1       9.549  -2.544  -3.108  1.00  0.00    -0.252 OA
BRANCH   2   4
ATOM      4  O   UNL     1       7.308  -2.427  -3.414  1.00  0.00    -0.481 OA
ATOM      5  H   UNL     1       7.355  -3.046  -4.228  1.00  0.00     0.296 HD
ENDBRANCH   2   4
ENDBRANCH   1   2
BRANCH   1   6
ATOM      6  C   UNL     1       7.090  -0.116  -2.082  1.00  0.00     0.047 C 
BRANCH   6   7
ATOM      7  C   UNL     1       6.499   0.072  -0.758  1.00  0.00    -0.047 A 
ATOM      8  C   UNL     1       6.610  -0.901   0.207  1.00  0.00     0.004 A 
ATOM      9  C   UNL     1       5.826   1.241  -0.484  1.00  0.00     0.004 A 
ATOM     10  C   UNL     1       6.021  -0.653   1.449  1.00  0.00     0.000 A 
ATOM     11  C   UNL     1       5.244   1.484   0.744  1.00  0.00     0.000 A 
ATOM     12  C   UNL     1       5.351   0.514   1.717  1.00  0.00     0.000 A 
ENDBRANCH   6   7
ENDBRANCH   1   6
TORSDOF 4
ENDMDL
MODEL 2
REMARK VINA RESULT:      -7.2      0.162      1.734
REMARK SMILES O=C(O)CCc1ccccc1
REMARK SMILES IDX 4 1 2 2 1 3 3 4 5 6 6 7 7 8 11 9 8 10 10 11 9 12
REMARK H PARENT 3 5
REMARK Flexibility Score: inf
ROOT
ATOM      1  C   UNL     1       8.426  -0.633  -2.118  1.00  0.00     0.127 C 
ENDROOT
BRANCH   1   2
ATOM      2  C   UNL     1       8.391  -1.909  -2.872  1.00  0.00     0.303 C 
ATOM      3  O   UNL     1       7.303  -2.423  -3.232  1.00  0.00    -0.252 OA
BRANCH   2   4
ATOM      4  O   UNL     1       9.563  -2.571  -3.201  1.00  0.00    -0.481 OA
ATOM      5  H   UNL     1       9.727  -2.847  -4.173  1.00  0.00     0.296 HD
ENDBRANCH   2   4
ENDBRANCH   1   2
BRANCH   1   6
ATOM      6  C   UNL     1       7.039  -0.067  -2.087  1.00  0.00     0.047 C 
BRANCH   6   7
ATOM      7  C   UNL     1       6.491   0.089  -0.741  1.00  0.00    -0.047 A 
ATOM      8  C   UNL     1       5.861   1.254  -0.369  1.00  0.00     0.004 A 
ATOM      9  C   UNL     1       6.609  -0.947   0.156  1.00  0.00     0.004 A 
ATOM     10  C   UNL     1       5.360   1.333   0.933  1.00  0.00     0.000 A 
ATOM     11  C   UNL     1       6.114  -0.867   1.443  1.00  0.00     0.000 A 
ATOM     12  C   UNL     1       5.482   0.296   1.824  1.00  0.00     0.000 A 
ENDBRANCH   6   7
ENDBRANCH   1   6
TORSDOF 4
ENDMDL
MODEL 3
REMARK VINA RESULT:      -6.8      1.015      1.939
REMARK SMILES O=C(O)CCc1ccccc1
REMARK SMILES IDX 4 1 2 2 1 3 3 4 5 6 6 7 7 8 11 9 8 10 10 11 9 12
REMARK H PARENT 3 5
REMARK Flexibility Score: inf
ROOT
ATOM      1  C   UNL     1       7.292  -1.311  -2.197  1.00  0.00     0.127 C 
ENDROOT
BRANCH   1   2
ATOM      2  C   UNL     1       8.742  -1.370  -2.498  1.00  0.00     0.303 C 
ATOM      3  O   UNL     1       9.231  -2.318  -3.161  1.00  0.00    -0.252 OA
BRANCH   2   4
ATOM      4  O   UNL     1       9.600  -0.378  -2.053  1.00  0.00    -0.481 OA
ATOM      5  H   UNL     1       9.947  -0.410  -1.090  1.00  0.00     0.296 HD
ENDBRANCH   2   4
ENDBRANCH   1   2
BRANCH   1   6
ATOM      6  C   UNL     1       7.115  -1.394  -0.712  1.00  0.00     0.047 C 
BRANCH   6   7
ATOM      7  C   UNL     1       6.378  -0.271  -0.137  1.00  0.00    -0.047 A 
ATOM      8  C   UNL     1       6.146   0.868  -0.873  1.00  0.00     0.004 A 
ATOM      9  C   UNL     1       5.912  -0.363   1.154  1.00  0.00     0.004 A 
ATOM     10  C   UNL     1       5.434   1.902  -0.260  1.00  0.00     0.000 A 
ATOM     11  C   UNL     1       5.208   0.659   1.758  1.00  0.00     0.000 A 
ATOM     12  C   UNL     1       4.972   1.804   1.028  1.00  0.00     0.000 A 
ENDBRANCH   6   7
ENDBRANCH   1   6
TORSDOF 4
ENDMDL
MODEL 4
REMARK VINA RESULT:      -6.7      3.368      5.087
REMARK SMILES O=C(O)CCc1ccccc1
REMARK SMILES IDX 4 1 2 2 1 3 3 4 5 6 6 7 7 8 11 9 8 10 10 11 9 12
REMARK H PARENT 3 5
REMARK Flexibility Score: inf
ROOT
ATOM      1  C   UNL     1       5.004   1.810   0.718  1.00  0.00     0.127 C 
ENDROOT
BRANCH   1   2
ATOM      2  C   UNL     1       4.504   1.115   1.927  1.00  0.00     0.303 C 
ATOM      3  O   UNL     1       5.180   0.216   2.487  1.00  0.00    -0.252 OA
BRANCH   2   4
ATOM      4  O   UNL     1       3.273   1.437   2.474  1.00  0.00    -0.481 OA
ATOM      5  H   UNL     1       3.194   1.571   3.486  1.00  0.00     0.296 HD
ENDBRANCH   2   4
ENDBRANCH   1   2
BRANCH   1   6
ATOM      6  C   UNL     1       6.502   1.800   0.754  1.00  0.00     0.047 C 
BRANCH   6   7
ATOM      7  C   UNL     1       7.118   1.074  -0.356  1.00  0.00    -0.047 A 
ATOM      8  C   UNL     1       6.365   0.258  -1.167  1.00  0.00     0.004 A 
ATOM      9  C   UNL     1       8.467   1.218  -0.585  1.00  0.00     0.004 A 
ATOM     10  C   UNL     1       7.019  -0.403  -2.209  1.00  0.00     0.000 A 
ATOM     11  C   UNL     1       9.112   0.564  -1.615  1.00  0.00     0.000 A 
ATOM     12  C   UNL     1       8.365  -0.257  -2.432  1.00  0.00     0.000 A 
ENDBRANCH   6   7
ENDBRANCH   1   6
TORSDOF 4
ENDMDL
MODEL 5
REMARK VINA RESULT:      -6.5      3.690      4.943
REMARK SMILES O=C(O)CCc1ccccc1
REMARK SMILES IDX 4 1 2 2 1 3 3 4 5 6 6 7 7 8 11 9 8 10 10 11 9 12
REMARK H PARENT 3 5
REMARK Flexibility Score: inf
ROOT
ATOM      1  C   UNL     1       5.387   2.917   0.075  1.00  0.00     0.127 C 
ENDROOT
BRANCH   1   2
ATOM      2  C   UNL     1       6.310   3.787   0.841  1.00  0.00     0.303 C 
ATOM      3  O   UNL     1       6.869   4.775   0.303  1.00  0.00    -0.252 OA
BRANCH   2   4
ATOM      4  O   UNL     1       6.581   3.534   2.176  1.00  0.00    -0.481 OA
ATOM      5  H   UNL     1       7.553   3.530   2.497  1.00  0.00     0.296 HD
ENDBRANCH   2   4
ENDBRANCH   1   2
BRANCH   1   6
ATOM      6  C   UNL     1       5.275   1.605   0.790  1.00  0.00     0.047 C 
BRANCH   6   7
ATOM      7  C   UNL     1       6.036   0.522   0.169  1.00  0.00    -0.047 A 
ATOM      8  C   UNL     1       6.469  -0.550   0.914  1.00  0.00     0.004 A 
ATOM      9  C   UNL     1       6.315   0.584  -1.176  1.00  0.00     0.004 A 
ATOM     10  C   UNL     1       7.189  -1.548   0.255  1.00  0.00     0.000 A 
ATOM     11  C   UNL     1       7.028  -0.404  -1.826  1.00  0.00     0.000 A 
ATOM     12  C   UNL     1       7.466  -1.481  -1.087  1.00  0.00     0.000 A 
ENDBRANCH   6   7
ENDBRANCH   1   6
TORSDOF 4
ENDMDL
