@<TRIPOS>MOLECULE
/home/cewinharhar/GITHUB/reincatalyze/data/processed/docking_pred/2023_Apr_20-15:07/306d1dfeb5e1085b4f3e24b09348dc81ae645662_ligand_2.pdbqt
 12 12 0 0 0
SMALL
GASTEIGER

@<TRIPOS>ATOM
      1  C          8.4260   -0.6330   -2.1180 C.3     1  UNL1        0.1270
      2  C          8.3910   -1.9090   -2.8720 C.2     1  UNL1        0.3030
      3  O          7.3030   -2.4230   -3.2320 O.2     1  UNL1       -0.2520
      4  O          9.5630   -2.5710   -3.2010 O.3     1  UNL1       -0.4810
      5  H          9.7270   -2.8470   -4.1730 H       1  UNL1        0.2960
      6  C          7.0390   -0.0670   -2.0870 C.3     1  UNL1        0.0470
      7  C          6.4910    0.0890   -0.7410 C.2     1  UNL1       -0.0470
      8  C          5.8610    1.2540   -0.3690 C.2     1  UNL1        0.0040
      9  C          6.6090   -0.9470    0.1560 C.2     1  UNL1        0.0040
     10  C          5.3600    1.3330    0.9330 C.2     1  UNL1        0.0000
     11  C          6.1140   -0.8670    1.4430 C.2     1  UNL1        0.0000
     12  C          5.4820    0.2960    1.8240 C.2     1  UNL1        0.0000
@<TRIPOS>BOND
     1     5     4    1
     2     3     2    2
     3     4     2    1
     4     2     1    1
     5     1     6    1
     6     6     7    1
     7     7     8    2
     8     7     9    1
     9     8    10    1
    10     9    11    2
    11    10    12    2
    12    11    12    1
