@<TRIPOS>MOLECULE
/home/cewinharhar/GITHUB/reincatalyze/data/processed/docking_pred/2023_Apr_20-15:07/306d1dfeb5e1085b4f3e24b09348dc81ae645662_ligand_2.pdbqt
 12 12 0 0 0
SMALL
GASTEIGER

@<TRIPOS>ATOM
      1  C          5.3870    2.9170    0.0750 C.3     1  UNL1        0.1270
      2  C          6.3100    3.7870    0.8410 C.2     1  UNL1        0.3030
      3  O          6.8690    4.7750    0.3030 O.2     1  UNL1       -0.2520
      4  O          6.5810    3.5340    2.1760 O.3     1  UNL1       -0.4810
      5  H          7.5530    3.5300    2.4970 H       1  UNL1        0.2960
      6  C          5.2750    1.6050    0.7900 C.3     1  UNL1        0.0470
      7  C          6.0360    0.5220    0.1690 C.2     1  UNL1       -0.0470
      8  C          6.4690   -0.5500    0.9140 C.2     1  UNL1        0.0040
      9  C          6.3150    0.5840   -1.1760 C.2     1  UNL1        0.0040
     10  C          7.1890   -1.5480    0.2550 C.2     1  UNL1        0.0000
     11  C          7.0280   -0.4040   -1.8260 C.2     1  UNL1        0.0000
     12  C          7.4660   -1.4810   -1.0870 C.2     1  UNL1        0.0000
@<TRIPOS>BOND
     1    11     9    1
     2    11    12    2
     3     9     7    2
     4    12    10    1
     5     1     6    1
     6     1     2    1
     7     7     6    1
     8     7     8    1
     9    10     8    2
    10     3     2    2
    11     2     4    1
    12     4     5    1
