@<TRIPOS>MOLECULE
/home/cewinharhar/GITHUB/reincatalyze/data/processed/docking_pred/2023_Apr_20-15:07/306d1dfeb5e1085b4f3e24b09348dc81ae645662_ligand_2.pdbqt
 12 12 0 0 0
SMALL
GASTEIGER

@<TRIPOS>ATOM
      1  C          7.2920   -1.3110   -2.1970 C.3     1  UNL1        0.1270
      2  C          8.7420   -1.3700   -2.4980 C.2     1  UNL1        0.3030
      3  O          9.2310   -2.3180   -3.1610 O.2     1  UNL1       -0.2520
      4  O          9.6000   -0.3780   -2.0530 O.3     1  UNL1       -0.4810
      5  H          9.9470   -0.4100   -1.0900 H       1  UNL1        0.2960
      6  C          7.1150   -1.3940   -0.7120 C.3     1  UNL1        0.0470
      7  C          6.3780   -0.2710   -0.1370 C.2     1  UNL1       -0.0470
      8  C          6.1460    0.8680   -0.8730 C.2     1  UNL1        0.0040
      9  C          5.9120   -0.3630    1.1540 C.2     1  UNL1        0.0040
     10  C          5.4340    1.9020   -0.2600 C.2     1  UNL1        0.0000
     11  C          5.2080    0.6590    1.7580 C.2     1  UNL1        0.0000
     12  C          4.9720    1.8040    1.0280 C.2     1  UNL1        0.0000
@<TRIPOS>BOND
     1     3     2    2
     2     2     1    1
     3     2     4    1
     4     1     6    1
     5     4     5    1
     6     8    10    1
     7     8     7    2
     8     6     7    1
     9    10    12    2
    10     7     9    1
    11    12    11    1
    12     9    11    2
