@<TRIPOS>MOLECULE
/home/cewinharhar/GITHUB/reincatalyze/data/processed/docking_pred/2023_Apr_20-15:07/306d1dfeb5e1085b4f3e24b09348dc81ae645662_ligand_2.pdbqt
 12 12 0 0 0
SMALL
GASTEIGER

@<TRIPOS>ATOM
      1  C          5.0040    1.8100    0.7180 C.3     1  UNL1        0.1270
      2  C          4.5040    1.1150    1.9270 C.2     1  UNL1        0.3030
      3  O          5.1800    0.2160    2.4870 O.2     1  UNL1       -0.2520
      4  O          3.2730    1.4370    2.4740 O.3     1  UNL1       -0.4810
      5  H          3.1940    1.5710    3.4860 H       1  UNL1        0.2960
      6  C          6.5020    1.8000    0.7540 C.3     1  UNL1        0.0470
      7  C          7.1180    1.0740   -0.3560 C.2     1  UNL1       -0.0470
      8  C          6.3650    0.2580   -1.1670 C.2     1  UNL1        0.0040
      9  C          8.4670    1.2180   -0.5850 C.2     1  UNL1        0.0040
     10  C          7.0190   -0.4030   -2.2090 C.2     1  UNL1        0.0000
     11  C          9.1120    0.5640   -1.6150 C.2     1  UNL1        0.0000
     12  C          8.3650   -0.2570   -2.4320 C.2     1  UNL1        0.0000
@<TRIPOS>BOND
     1    12    10    2
     2    12    11    1
     3    10     8    1
     4    11     9    2
     5     8     7    2
     6     9     7    1
     7     7     6    1
     8     1     6    1
     9     1     2    1
    10     2     4    1
    11     2     3    2
    12     4     5    1
