@<TRIPOS>MOLECULE
/home/cewinharhar/GITHUB/reincatalyze/data/processed/docking_pred/2023_Apr_20-15:07/31018d4d3337f577513d0037205f1d699057d88b_ligand_2.pdbqt
 12 12 0 0 0
SMALL
GASTEIGER

@<TRIPOS>ATOM
      1  C          5.0700    1.7500    0.7100 C.3     1  UNL1        0.1270
      2  C          4.5120    1.0930    1.9160 C.2     1  UNL1        0.3030
      3  O          5.1370    0.1780    2.5060 O.2     1  UNL1       -0.2520
      4  O          3.2800    1.4720    2.4250 O.3     1  UNL1       -0.4810
      5  H          3.1900    1.6650    3.4260 H       1  UNL1        0.2960
      6  C          6.5650    1.6780    0.7840 C.3     1  UNL1        0.0470
      7  C          7.1800    0.9470   -0.3220 C.2     1  UNL1       -0.0470
      8  C          8.4700    1.2210   -0.7150 C.2     1  UNL1        0.0040
      9  C          6.4550   -0.0260   -0.9700 C.2     1  UNL1        0.0040
     10  C          8.9940    0.4820   -1.7790 C.2     1  UNL1        0.0000
     11  C          6.9740   -0.7550   -2.0210 C.2     1  UNL1        0.0000
     12  C          8.2650   -0.4860   -2.4220 C.2     1  UNL1        0.0000
@<TRIPOS>BOND
     1    12    11    2
     2    12    10    1
     3    11     9    1
     4    10     8    2
     5     9     7    2
     6     8     7    1
     7     7     6    1
     8     1     6    1
     9     1     2    1
    10     2     4    1
    11     2     3    2
    12     4     5    1
