@<TRIPOS>MOLECULE
/home/cewinharhar/GITHUB/reincatalyze/data/processed/docking_pred/2023_Apr_20-15:07/31018d4d3337f577513d0037205f1d699057d88b_ligand_2.pdbqt
 12 12 0 0 0
SMALL
GASTEIGER

@<TRIPOS>ATOM
      1  C          8.3880   -1.1500   -1.5610 C.3     1  UNL1        0.1270
      2  C          8.3720   -2.0650   -2.7270 C.2     1  UNL1        0.3030
      3  O          7.2920   -2.4250   -3.2570 O.2     1  UNL1       -0.2520
      4  O          9.5530   -2.5510   -3.2660 O.3     1  UNL1       -0.4810
      5  H         10.1650   -3.1330   -2.6880 H       1  UNL1        0.2960
      6  C          7.2580   -1.5250   -0.6530 C.3     1  UNL1        0.0470
      7  C          6.5000   -0.3830   -0.1450 C.2     1  UNL1       -0.0470
      8  C          6.2330    0.6990   -0.9510 C.2     1  UNL1        0.0040
      9  C          6.0500   -0.4010    1.1550 C.2     1  UNL1        0.0040
     10  C          5.5030    1.7540   -0.4000 C.2     1  UNL1        0.0000
     11  C          5.3280    0.6430    1.6990 C.2     1  UNL1        0.0000
     12  C          5.0580    1.7320    0.8980 C.2     1  UNL1        0.0000
@<TRIPOS>BOND
     1     4     2    1
     2     4     5    1
     3     3     2    2
     4     2     1    1
     5     1     6    1
     6     8    10    1
     7     8     7    2
     8     6     7    1
     9    10    12    2
    10     7     9    1
    11    12    11    1
    12     9    11    2
