MODEL 1
REMARK VINA RESULT:      -7.3      0.000      0.000
REMARK SMILES O=C(O)CCc1ccccc1
REMARK SMILES IDX 4 1 2 2 1 3 3 4 5 6 6 7 7 8 11 9 8 10 10 11 9 12
REMARK H PARENT 3 5
REMARK Flexibility Score: inf
ROOT
ATOM      1  C   UNL     1       8.431  -0.618  -2.185  1.00  0.00     0.127 C 
ENDROOT
BRANCH   1   2
ATOM      2  C   UNL     1       8.492  -1.904  -2.919  1.00  0.00     0.303 C 
ATOM      3  O   UNL     1       9.583  -2.500  -3.098  1.00  0.00    -0.252 OA
BRANCH   2   4
ATOM      4  O   UNL     1       7.342  -2.486  -3.429  1.00  0.00    -0.481 OA
ATOM      5  H   UNL     1       6.982  -2.174  -4.335  1.00  0.00     0.296 HD
ENDBRANCH   2   4
ENDBRANCH   1   2
BRANCH   1   6
ATOM      6  C   UNL     1       7.004  -0.162  -2.152  1.00  0.00     0.047 C 
BRANCH   6   7
ATOM      7  C   UNL     1       6.477   0.044  -0.804  1.00  0.00    -0.047 A 
ATOM      8  C   UNL     1       6.611  -0.928   0.160  1.00  0.00     0.004 A 
ATOM      9  C   UNL     1       5.842   1.227  -0.505  1.00  0.00     0.004 A 
ATOM     10  C   UNL     1       6.085  -0.663   1.426  1.00  0.00     0.000 A 
ATOM     11  C   UNL     1       5.322   1.488   0.748  1.00  0.00     0.000 A 
ATOM     12  C   UNL     1       5.452   0.519   1.719  1.00  0.00     0.000 A 
ENDBRANCH   6   7
ENDBRANCH   1   6
TORSDOF 4
ENDMDL
MODEL 2
REMARK VINA RESULT:      -7.3      0.153      1.734
REMARK SMILES O=C(O)CCc1ccccc1
REMARK SMILES IDX 4 1 2 2 1 3 3 4 5 6 6 7 7 8 11 9 8 10 10 11 9 12
REMARK H PARENT 3 5
REMARK Flexibility Score: inf
ROOT
ATOM      1  C   UNL     1       8.404  -0.658  -2.074  1.00  0.00     0.127 C 
ENDROOT
BRANCH   1   2
ATOM      2  C   UNL     1       8.375  -1.904  -2.875  1.00  0.00     0.303 C 
ATOM      3  O   UNL     1       7.289  -2.413  -3.247  1.00  0.00    -0.252 OA
BRANCH   2   4
ATOM      4  O   UNL     1       9.550  -2.543  -3.237  1.00  0.00    -0.481 OA
ATOM      5  H   UNL     1      10.256  -2.029  -3.770  1.00  0.00     0.296 HD
ENDBRANCH   2   4
ENDBRANCH   1   2
BRANCH   1   6
ATOM      6  C   UNL     1       7.026  -0.069  -2.068  1.00  0.00     0.047 C 
BRANCH   6   7
ATOM      7  C   UNL     1       6.457   0.100  -0.732  1.00  0.00    -0.047 A 
ATOM      8  C   UNL     1       5.807   1.262  -0.386  1.00  0.00     0.004 A 
ATOM      9  C   UNL     1       6.577  -0.921   0.183  1.00  0.00     0.004 A 
ATOM     10  C   UNL     1       5.287   1.354   0.907  1.00  0.00     0.000 A 
ATOM     11  C   UNL     1       6.063  -0.828   1.461  1.00  0.00     0.000 A 
ATOM     12  C   UNL     1       5.411   0.333   1.815  1.00  0.00     0.000 A 
ENDBRANCH   6   7
ENDBRANCH   1   6
TORSDOF 4
ENDMDL
MODEL 3
REMARK VINA RESULT:      -7.0      0.690      1.874
REMARK SMILES O=C(O)CCc1ccccc1
REMARK SMILES IDX 4 1 2 2 1 3 3 4 5 6 6 7 7 8 11 9 8 10 10 11 9 12
REMARK H PARENT 3 5
REMARK Flexibility Score: inf
ROOT
ATOM      1  C   UNL     1       8.388  -1.150  -1.561  1.00  0.00     0.127 C 
ENDROOT
BRANCH   1   2
ATOM      2  C   UNL     1       8.372  -2.065  -2.727  1.00  0.00     0.303 C 
ATOM      3  O   UNL     1       7.292  -2.425  -3.257  1.00  0.00    -0.252 OA
BRANCH   2   4
ATOM      4  O   UNL     1       9.553  -2.551  -3.266  1.00  0.00    -0.481 OA
ATOM      5  H   UNL     1      10.165  -3.133  -2.688  1.00  0.00     0.296 HD
ENDBRANCH   2   4
ENDBRANCH   1   2
BRANCH   1   6
ATOM      6  C   UNL     1       7.258  -1.525  -0.653  1.00  0.00     0.047 C 
BRANCH   6   7
ATOM      7  C   UNL     1       6.500  -0.383  -0.145  1.00  0.00    -0.047 A 
ATOM      8  C   UNL     1       6.233   0.699  -0.951  1.00  0.00     0.004 A 
ATOM      9  C   UNL     1       6.050  -0.401   1.155  1.00  0.00     0.004 A 
ATOM     10  C   UNL     1       5.503   1.754  -0.400  1.00  0.00     0.000 A 
ATOM     11  C   UNL     1       5.328   0.643   1.699  1.00  0.00     0.000 A 
ATOM     12  C   UNL     1       5.058   1.732   0.898  1.00  0.00     0.000 A 
ENDBRANCH   6   7
ENDBRANCH   1   6
TORSDOF 4
ENDMDL
MODEL 4
REMARK VINA RESULT:      -6.8      3.380      5.086
REMARK SMILES O=C(O)CCc1ccccc1
REMARK SMILES IDX 4 1 2 2 1 3 3 4 5 6 6 7 7 8 11 9 8 10 10 11 9 12
REMARK H PARENT 3 5
REMARK Flexibility Score: inf
ROOT
ATOM      1  C   UNL     1       5.070   1.750   0.710  1.00  0.00     0.127 C 
ENDROOT
BRANCH   1   2
ATOM      2  C   UNL     1       4.512   1.093   1.916  1.00  0.00     0.303 C 
ATOM      3  O   UNL     1       5.137   0.178   2.506  1.00  0.00    -0.252 OA
BRANCH   2   4
ATOM      4  O   UNL     1       3.280   1.472   2.425  1.00  0.00    -0.481 OA
ATOM      5  H   UNL     1       3.190   1.665   3.426  1.00  0.00     0.296 HD
ENDBRANCH   2   4
ENDBRANCH   1   2
BRANCH   1   6
ATOM      6  C   UNL     1       6.565   1.678   0.784  1.00  0.00     0.047 C 
BRANCH   6   7
ATOM      7  C   UNL     1       7.180   0.947  -0.322  1.00  0.00    -0.047 A 
ATOM      8  C   UNL     1       8.470   1.221  -0.715  1.00  0.00     0.004 A 
ATOM      9  C   UNL     1       6.455  -0.026  -0.970  1.00  0.00     0.004 A 
ATOM     10  C   UNL     1       8.994   0.482  -1.779  1.00  0.00     0.000 A 
ATOM     11  C   UNL     1       6.974  -0.755  -2.021  1.00  0.00     0.000 A 
ATOM     12  C   UNL     1       8.265  -0.486  -2.422  1.00  0.00     0.000 A 
ENDBRANCH   6   7
ENDBRANCH   1   6
TORSDOF 4
ENDMDL
MODEL 5
REMARK VINA RESULT:      -6.6      1.974      2.293
REMARK SMILES O=C(O)CCc1ccccc1
REMARK SMILES IDX 4 1 2 2 1 3 3 4 5 6 6 7 7 8 11 9 8 10 10 11 9 12
REMARK H PARENT 3 5
REMARK Flexibility Score: inf
ROOT
ATOM      1  C   UNL     1       8.288   0.333  -2.061  1.00  0.00     0.127 C 
ENDROOT
BRANCH   1   2
ATOM      2  C   UNL     1       9.441   0.383  -1.131  1.00  0.00     0.303 C 
ATOM      3  O   UNL     1       9.508  -0.380  -0.136  1.00  0.00    -0.252 OA
BRANCH   2   4
ATOM      4  O   UNL     1      10.479   1.278  -1.334  1.00  0.00    -0.481 OA
ATOM      5  H   UNL     1      11.353   1.159  -0.813  1.00  0.00     0.296 HD
ENDBRANCH   2   4
ENDBRANCH   1   2
BRANCH   1   6
ATOM      6  C   UNL     1       7.220  -0.514  -1.441  1.00  0.00     0.047 C 
BRANCH   6   7
ATOM      7  C   UNL     1       6.405   0.186  -0.450  1.00  0.00    -0.047 A 
ATOM      8  C   UNL     1       6.198  -0.352   0.798  1.00  0.00     0.004 A 
ATOM      9  C   UNL     1       5.844   1.399  -0.779  1.00  0.00     0.004 A 
ATOM     10  C   UNL     1       5.409   0.373   1.695  1.00  0.00     0.000 A 
ATOM     11  C   UNL     1       5.064   2.114   0.108  1.00  0.00     0.000 A 
ATOM     12  C   UNL     1       4.851   1.581   1.361  1.00  0.00     0.000 A 
ENDBRANCH   6   7
ENDBRANCH   1   6
TORSDOF 4
ENDMDL
