@<TRIPOS>MOLECULE
/home/cewinharhar/GITHUB/reincatalyze/data/processed/docking_pred/2023_Apr_20-15:07/31018d4d3337f577513d0037205f1d699057d88b_ligand_2.pdbqt
 12 12 0 0 0
SMALL
GASTEIGER

@<TRIPOS>ATOM
      1  C          8.2880    0.3330   -2.0610 C.3     1  UNL1        0.1270
      2  C          9.4410    0.3830   -1.1310 C.2     1  UNL1        0.3030
      3  O          9.5080   -0.3800   -0.1360 O.2     1  UNL1       -0.2520
      4  O         10.4790    1.2780   -1.3340 O.3     1  UNL1       -0.4810
      5  H         11.3530    1.1590   -0.8130 H       1  UNL1        0.2960
      6  C          7.2200   -0.5140   -1.4410 C.3     1  UNL1        0.0470
      7  C          6.4050    0.1860   -0.4500 C.2     1  UNL1       -0.0470
      8  C          6.1980   -0.3520    0.7980 C.2     1  UNL1        0.0040
      9  C          5.8440    1.3990   -0.7790 C.2     1  UNL1        0.0040
     10  C          5.4090    0.3730    1.6950 C.2     1  UNL1        0.0000
     11  C          5.0640    2.1140    0.1080 C.2     1  UNL1        0.0000
     12  C          4.8510    1.5810    1.3610 C.2     1  UNL1        0.0000
@<TRIPOS>BOND
     1     1     6    1
     2     1     2    1
     3     6     7    1
     4     4     2    1
     5     4     5    1
     6     2     3    2
     7     9     7    2
     8     9    11    1
     9     7     8    1
    10    11    12    2
    11     8    10    2
    12    12    10    1
