@<TRIPOS>MOLECULE
/home/cewinharhar/GITHUB/reincatalyze/data/processed/docking_pred/2023_Apr_20-15:07/31018d4d3337f577513d0037205f1d699057d88b_ligand_2.pdbqt
 12 12 0 0 0
SMALL
GASTEIGER

@<TRIPOS>ATOM
      1  C          8.4310   -0.6180   -2.1850 C.3     1  UNL1        0.1270
      2  C          8.4920   -1.9040   -2.9190 C.2     1  UNL1        0.3030
      3  O          9.5830   -2.5000   -3.0980 O.2     1  UNL1       -0.2520
      4  O          7.3420   -2.4860   -3.4290 O.3     1  UNL1       -0.4810
      5  H          6.9820   -2.1740   -4.3350 H       1  UNL1        0.2960
      6  C          7.0040   -0.1620   -2.1520 C.3     1  UNL1        0.0470
      7  C          6.4770    0.0440   -0.8040 C.2     1  UNL1       -0.0470
      8  C          6.6110   -0.9280    0.1600 C.2     1  UNL1        0.0040
      9  C          5.8420    1.2270   -0.5050 C.2     1  UNL1        0.0040
     10  C          6.0850   -0.6630    1.4260 C.2     1  UNL1        0.0000
     11  C          5.3220    1.4880    0.7480 C.2     1  UNL1        0.0000
     12  C          5.4520    0.5190    1.7190 C.2     1  UNL1        0.0000
@<TRIPOS>BOND
     1     5     4    1
     2     4     2    1
     3     3     2    2
     4     2     1    1
     5     1     6    1
     6     6     7    1
     7     7     9    2
     8     7     8    1
     9     9    11    1
    10     8    10    2
    11    11    12    2
    12    10    12    1
