@<TRIPOS>MOLECULE
/home/cewinharhar/GITHUB/reincatalyze/data/processed/docking_pred/2023_Apr_20-15:07/3110d36e974f17e9d190d2a4a051583463654b40_ligand_2.pdbqt
 12 12 0 0 0
SMALL
GASTEIGER

@<TRIPOS>ATOM
      1  C          8.2870   -1.5500    0.9630 C.3     1  UNL1        0.1270
      2  C          8.5120   -2.8210    0.2340 C.2     1  UNL1        0.3030
      3  O          9.0930   -3.7910    0.7810 O.2     1  UNL1       -0.2520
      4  O          8.0870   -2.9730   -1.0750 O.3     1  UNL1       -0.4810
      5  H          8.6090   -3.5890   -1.7030 H       1  UNL1        0.2960
      6  C          6.8230   -1.4290    1.2570 C.3     1  UNL1        0.0470
      7  C          6.2230   -0.1810    0.7870 C.2     1  UNL1       -0.0470
      8  C          5.4460    0.5850    1.6240 C.2     1  UNL1        0.0040
      9  C          6.4470    0.2250   -0.5080 C.2     1  UNL1        0.0040
     10  C          4.9060    1.7650    1.1080 C.2     1  UNL1        0.0000
     11  C          5.9120    1.3920   -1.0170 C.2     1  UNL1        0.0000
     12  C          5.1320    2.1640   -0.1850 C.2     1  UNL1        0.0000
@<TRIPOS>BOND
     1     5     4    1
     2     4     2    1
     3    11     9    1
     4    11    12    2
     5     9     7    2
     6    12    10    1
     7     2     3    2
     8     2     1    1
     9     7     6    1
    10     7     8    1
    11     1     6    1
    12    10     8    2
