@<TRIPOS>MOLECULE
/home/cewinharhar/GITHUB/reincatalyze/data/processed/docking_pred/2023_Apr_20-15:07/3110d36e974f17e9d190d2a4a051583463654b40_ligand_2.pdbqt
 12 12 0 0 0
SMALL
GASTEIGER

@<TRIPOS>ATOM
      1  C          8.4340   -0.6040   -2.1570 C.3     1  UNL1        0.1270
      2  C          8.4770   -1.8830   -2.9050 C.2     1  UNL1        0.3030
      3  O          9.5590   -2.4910   -3.0940 O.2     1  UNL1       -0.2520
      4  O          7.3180   -2.4440   -3.4170 O.3     1  UNL1       -0.4810
      5  H          6.6160   -1.8380   -3.8490 H       1  UNL1        0.2960
      6  C          7.0160   -0.1210   -2.1310 C.3     1  UNL1        0.0470
      7  C          6.4750    0.0600   -0.7850 C.2     1  UNL1       -0.0470
      8  C          5.8370    1.2270   -0.4350 C.2     1  UNL1        0.0040
      9  C          6.6070   -0.9550    0.1340 C.2     1  UNL1        0.0040
     10  C          5.3430    1.3310    0.8680 C.2     1  UNL1        0.0000
     11  C          6.1180   -0.8520    1.4210 C.2     1  UNL1        0.0000
     12  C          5.4790    0.3150    1.7810 C.2     1  UNL1        0.0000
@<TRIPOS>BOND
     1     5     4    1
     2     4     2    1
     3     3     2    2
     4     2     1    1
     5     1     6    1
     6     6     7    1
     7     7     8    2
     8     7     9    1
     9     8    10    1
    10     9    11    2
    11    10    12    2
    12    11    12    1
