@<TRIPOS>MOLECULE
/home/cewinharhar/GITHUB/reincatalyze/data/processed/docking_pred/2023_Apr_20-15:07/3110d36e974f17e9d190d2a4a051583463654b40_ligand_2.pdbqt
 12 12 0 0 0
SMALL
GASTEIGER

@<TRIPOS>ATOM
      1  C          5.0640    1.6800    0.6770 C.3     1  UNL1        0.1270
      2  C          4.6230    1.0210    1.9290 C.2     1  UNL1        0.3030
      3  O          5.3560    0.1890    2.5190 O.2     1  UNL1       -0.2520
      4  O          3.3850    1.3050    2.4830 O.3     1  UNL1       -0.4810
      5  H          3.1440    2.2760    2.6980 H       1  UNL1        0.2960
      6  C          6.5600    1.7600    0.6890 C.3     1  UNL1        0.0470
      7  C          7.2060    0.9900   -0.3730 C.2     1  UNL1       -0.0470
      8  C          8.5270    1.2030   -0.6920 C.2     1  UNL1        0.0040
      9  C          6.4770    0.0420   -1.0530 C.2     1  UNL1        0.0040
     10  C          9.0780    0.4300   -1.7170 C.2     1  UNL1        0.0000
     11  C          7.0230   -0.7210   -2.0650 C.2     1  UNL1        0.0000
     12  C          8.3460   -0.5130   -2.3920 C.2     1  UNL1        0.0000
@<TRIPOS>BOND
     1    12    11    2
     2    12    10    1
     3    11     9    1
     4    10     8    2
     5     9     7    2
     6     8     7    1
     7     7     6    1
     8     1     6    1
     9     1     2    1
    10     2     4    1
    11     2     3    2
    12     4     5    1
