MODEL 1
REMARK VINA RESULT:      -7.3      0.000      0.000
REMARK SMILES O=C(O)CCc1ccccc1
REMARK SMILES IDX 4 1 2 2 1 3 3 4 5 6 6 7 7 8 11 9 8 10 10 11 9 12
REMARK H PARENT 3 5
REMARK Flexibility Score: inf
ROOT
ATOM      1  C   UNL     1       8.434  -0.604  -2.157  1.00  0.00     0.127 C 
ENDROOT
BRANCH   1   2
ATOM      2  C   UNL     1       8.477  -1.883  -2.905  1.00  0.00     0.303 C 
ATOM      3  O   UNL     1       9.559  -2.491  -3.094  1.00  0.00    -0.252 OA
BRANCH   2   4
ATOM      4  O   UNL     1       7.318  -2.444  -3.417  1.00  0.00    -0.481 OA
ATOM      5  H   UNL     1       6.616  -1.838  -3.849  1.00  0.00     0.296 HD
ENDBRANCH   2   4
ENDBRANCH   1   2
BRANCH   1   6
ATOM      6  C   UNL     1       7.016  -0.121  -2.131  1.00  0.00     0.047 C 
BRANCH   6   7
ATOM      7  C   UNL     1       6.475   0.060  -0.785  1.00  0.00    -0.047 A 
ATOM      8  C   UNL     1       5.837   1.227  -0.435  1.00  0.00     0.004 A 
ATOM      9  C   UNL     1       6.607  -0.955   0.134  1.00  0.00     0.004 A 
ATOM     10  C   UNL     1       5.343   1.331   0.868  1.00  0.00     0.000 A 
ATOM     11  C   UNL     1       6.118  -0.852   1.421  1.00  0.00     0.000 A 
ATOM     12  C   UNL     1       5.479   0.315   1.781  1.00  0.00     0.000 A 
ENDBRANCH   6   7
ENDBRANCH   1   6
TORSDOF 4
ENDMDL
MODEL 2
REMARK VINA RESULT:      -7.3      0.068      1.438
REMARK SMILES O=C(O)CCc1ccccc1
REMARK SMILES IDX 4 1 2 2 1 3 3 4 5 6 6 7 7 8 11 9 8 10 10 11 9 12
REMARK H PARENT 3 5
REMARK Flexibility Score: inf
ROOT
ATOM      1  C   UNL     1       8.433  -0.539  -2.217  1.00  0.00     0.127 C 
ENDROOT
BRANCH   1   2
ATOM      2  C   UNL     1       8.493  -1.852  -2.901  1.00  0.00     0.303 C 
ATOM      3  O   UNL     1       9.583  -2.457  -3.054  1.00  0.00    -0.252 OA
BRANCH   2   4
ATOM      4  O   UNL     1       7.344  -2.450  -3.393  1.00  0.00    -0.481 OA
ATOM      5  H   UNL     1       7.404  -3.382  -3.811  1.00  0.00     0.296 HD
ENDBRANCH   2   4
ENDBRANCH   1   2
BRANCH   1   6
ATOM      6  C   UNL     1       7.001  -0.101  -2.163  1.00  0.00     0.047 C 
BRANCH   6   7
ATOM      7  C   UNL     1       6.474   0.044  -0.808  1.00  0.00    -0.047 A 
ATOM      8  C   UNL     1       6.609  -0.970   0.112  1.00  0.00     0.004 A 
ATOM      9  C   UNL     1       5.839   1.213  -0.456  1.00  0.00     0.004 A 
ATOM     10  C   UNL     1       6.082  -0.762   1.389  1.00  0.00     0.000 A 
ATOM     11  C   UNL     1       5.319   1.417   0.807  1.00  0.00     0.000 A 
ATOM     12  C   UNL     1       5.449   0.406   1.734  1.00  0.00     0.000 A 
ENDBRANCH   6   7
ENDBRANCH   1   6
TORSDOF 4
ENDMDL
MODEL 3
REMARK VINA RESULT:      -6.7      3.340      5.006
REMARK SMILES O=C(O)CCc1ccccc1
REMARK SMILES IDX 4 1 2 2 1 3 3 4 5 6 6 7 7 8 11 9 8 10 10 11 9 12
REMARK H PARENT 3 5
REMARK Flexibility Score: inf
ROOT
ATOM      1  C   UNL     1       5.064   1.680   0.677  1.00  0.00     0.127 C 
ENDROOT
BRANCH   1   2
ATOM      2  C   UNL     1       4.623   1.021   1.929  1.00  0.00     0.303 C 
ATOM      3  O   UNL     1       5.356   0.189   2.519  1.00  0.00    -0.252 OA
BRANCH   2   4
ATOM      4  O   UNL     1       3.385   1.305   2.483  1.00  0.00    -0.481 OA
ATOM      5  H   UNL     1       3.144   2.276   2.698  1.00  0.00     0.296 HD
ENDBRANCH   2   4
ENDBRANCH   1   2
BRANCH   1   6
ATOM      6  C   UNL     1       6.560   1.760   0.689  1.00  0.00     0.047 C 
BRANCH   6   7
ATOM      7  C   UNL     1       7.206   0.990  -0.373  1.00  0.00    -0.047 A 
ATOM      8  C   UNL     1       8.527   1.203  -0.692  1.00  0.00     0.004 A 
ATOM      9  C   UNL     1       6.477   0.042  -1.053  1.00  0.00     0.004 A 
ATOM     10  C   UNL     1       9.078   0.430  -1.717  1.00  0.00     0.000 A 
ATOM     11  C   UNL     1       7.023  -0.721  -2.065  1.00  0.00     0.000 A 
ATOM     12  C   UNL     1       8.346  -0.513  -2.392  1.00  0.00     0.000 A 
ENDBRANCH   6   7
ENDBRANCH   1   6
TORSDOF 4
ENDMDL
MODEL 4
REMARK VINA RESULT:      -6.6      1.919      2.662
REMARK SMILES O=C(O)CCc1ccccc1
REMARK SMILES IDX 4 1 2 2 1 3 3 4 5 6 6 7 7 8 11 9 8 10 10 11 9 12
REMARK H PARENT 3 5
REMARK Flexibility Score: inf
ROOT
ATOM      1  C   UNL     1       8.189   0.261  -2.218  1.00  0.00     0.127 C 
ENDROOT
BRANCH   1   2
ATOM      2  C   UNL     1       9.323   0.360  -1.268  1.00  0.00     0.303 C 
ATOM      3  O   UNL     1       9.418  -0.416  -0.285  1.00  0.00    -0.252 OA
BRANCH   2   4
ATOM      4  O   UNL     1      10.311   1.316  -1.440  1.00  0.00    -0.481 OA
ATOM      5  H   UNL     1      10.245   1.969  -2.225  1.00  0.00     0.296 HD
ENDBRANCH   2   4
ENDBRANCH   1   2
BRANCH   1   6
ATOM      6  C   UNL     1       7.082  -0.497  -1.551  1.00  0.00     0.047 C 
BRANCH   6   7
ATOM      7  C   UNL     1       6.311   0.295  -0.594  1.00  0.00    -0.047 A 
ATOM      8  C   UNL     1       6.094  -0.163   0.684  1.00  0.00     0.004 A 
ATOM      9  C   UNL     1       5.803   1.512  -0.985  1.00  0.00     0.004 A 
ATOM     10  C   UNL     1       5.350   0.647   1.546  1.00  0.00     0.000 A 
ATOM     11  C   UNL     1       5.068   2.311  -0.133  1.00  0.00     0.000 A 
ATOM     12  C   UNL     1       4.845   1.859   1.150  1.00  0.00     0.000 A 
ENDBRANCH   6   7
ENDBRANCH   1   6
TORSDOF 4
ENDMDL
MODEL 5
REMARK VINA RESULT:      -6.5      1.869      2.796
REMARK SMILES O=C(O)CCc1ccccc1
REMARK SMILES IDX 4 1 2 2 1 3 3 4 5 6 6 7 7 8 11 9 8 10 10 11 9 12
REMARK H PARENT 3 5
REMARK Flexibility Score: inf
ROOT
ATOM      1  C   UNL     1       8.287  -1.550   0.963  1.00  0.00     0.127 C 
ENDROOT
BRANCH   1   2
ATOM      2  C   UNL     1       8.512  -2.821   0.234  1.00  0.00     0.303 C 
ATOM      3  O   UNL     1       9.093  -3.791   0.781  1.00  0.00    -0.252 OA
BRANCH   2   4
ATOM      4  O   UNL     1       8.087  -2.973  -1.075  1.00  0.00    -0.481 OA
ATOM      5  H   UNL     1       8.609  -3.589  -1.703  1.00  0.00     0.296 HD
ENDBRANCH   2   4
ENDBRANCH   1   2
BRANCH   1   6
ATOM      6  C   UNL     1       6.823  -1.429   1.257  1.00  0.00     0.047 C 
BRANCH   6   7
ATOM      7  C   UNL     1       6.223  -0.181   0.787  1.00  0.00    -0.047 A 
ATOM      8  C   UNL     1       5.446   0.585   1.624  1.00  0.00     0.004 A 
ATOM      9  C   UNL     1       6.447   0.225  -0.508  1.00  0.00     0.004 A 
ATOM     10  C   UNL     1       4.906   1.765   1.108  1.00  0.00     0.000 A 
ATOM     11  C   UNL     1       5.912   1.392  -1.017  1.00  0.00     0.000 A 
ATOM     12  C   UNL     1       5.132   2.164  -0.185  1.00  0.00     0.000 A 
ENDBRANCH   6   7
ENDBRANCH   1   6
TORSDOF 4
ENDMDL
