@<TRIPOS>MOLECULE
/home/cewinharhar/GITHUB/reincatalyze/data/processed/docking_pred/2023_Apr_20-15:07/3110d36e974f17e9d190d2a4a051583463654b40_ligand_2.pdbqt
 12 12 0 0 0
SMALL
GASTEIGER

@<TRIPOS>ATOM
      1  C          8.4330   -0.5390   -2.2170 C.3     1  UNL1        0.1270
      2  C          8.4930   -1.8520   -2.9010 C.2     1  UNL1        0.3030
      3  O          9.5830   -2.4570   -3.0540 O.2     1  UNL1       -0.2520
      4  O          7.3440   -2.4500   -3.3930 O.3     1  UNL1       -0.4810
      5  H          7.4040   -3.3820   -3.8110 H       1  UNL1        0.2960
      6  C          7.0010   -0.1010   -2.1630 C.3     1  UNL1        0.0470
      7  C          6.4740    0.0440   -0.8080 C.2     1  UNL1       -0.0470
      8  C          6.6090   -0.9700    0.1120 C.2     1  UNL1        0.0040
      9  C          5.8390    1.2130   -0.4560 C.2     1  UNL1        0.0040
     10  C          6.0820   -0.7620    1.3890 C.2     1  UNL1        0.0000
     11  C          5.3190    1.4170    0.8070 C.2     1  UNL1        0.0000
     12  C          5.4490    0.4060    1.7340 C.2     1  UNL1        0.0000
@<TRIPOS>BOND
     1     5     4    1
     2     4     2    1
     3     3     2    2
     4     2     1    1
     5     1     6    1
     6     6     7    1
     7     7     9    2
     8     7     8    1
     9     9    11    1
    10     8    10    2
    11    11    12    2
    12    10    12    1
