@<TRIPOS>MOLECULE
/home/cewinharhar/GITHUB/reincatalyze/data/processed/docking_pred/2023_Apr_20-15:07/3110d36e974f17e9d190d2a4a051583463654b40_ligand_2.pdbqt
 12 12 0 0 0
SMALL
GASTEIGER

@<TRIPOS>ATOM
      1  C          8.1890    0.2610   -2.2180 C.3     1  UNL1        0.1270
      2  C          9.3230    0.3600   -1.2680 C.2     1  UNL1        0.3030
      3  O          9.4180   -0.4160   -0.2850 O.2     1  UNL1       -0.2520
      4  O         10.3110    1.3160   -1.4400 O.3     1  UNL1       -0.4810
      5  H         10.2450    1.9690   -2.2250 H       1  UNL1        0.2960
      6  C          7.0820   -0.4970   -1.5510 C.3     1  UNL1        0.0470
      7  C          6.3110    0.2950   -0.5940 C.2     1  UNL1       -0.0470
      8  C          6.0940   -0.1630    0.6840 C.2     1  UNL1        0.0040
      9  C          5.8030    1.5120   -0.9850 C.2     1  UNL1        0.0040
     10  C          5.3500    0.6470    1.5460 C.2     1  UNL1        0.0000
     11  C          5.0680    2.3110   -0.1330 C.2     1  UNL1        0.0000
     12  C          4.8450    1.8590    1.1500 C.2     1  UNL1        0.0000
@<TRIPOS>BOND
     1     5     4    1
     2     1     6    1
     3     1     2    1
     4     6     7    1
     5     4     2    1
     6     2     3    2
     7     9     7    2
     8     9    11    1
     9     7     8    1
    10    11    12    2
    11     8    10    2
    12    12    10    1
