@<TRIPOS>MOLECULE
/home/cewinharhar/GITHUB/reincatalyze/data/processed/docking_pred/2023_Apr_20-15:07/3162da3d825baae428df1736f889259fa2bb10a2_ligand_2.pdbqt
 12 12 0 0 0
SMALL
GASTEIGER

@<TRIPOS>ATOM
      1  C          8.4110   -0.6480   -2.0870 C.3     1  UNL1        0.1270
      2  C          8.3730   -1.8970   -2.8830 C.2     1  UNL1        0.3030
      3  O          7.2830   -2.4090   -3.2390 O.2     1  UNL1       -0.2520
      4  O          9.5440   -2.5350   -3.2580 O.3     1  UNL1       -0.4810
      5  H         10.3890   -1.9790   -3.4200 H       1  UNL1        0.2960
      6  C          7.0360   -0.0520   -2.0810 C.3     1  UNL1        0.0470
      7  C          6.4640    0.1100   -0.7450 C.2     1  UNL1       -0.0470
      8  C          5.8130    1.2700   -0.3940 C.2     1  UNL1        0.0040
      9  C          6.5800   -0.9170    0.1630 C.2     1  UNL1        0.0040
     10  C          5.2900    1.3540    0.8980 C.2     1  UNL1        0.0000
     11  C          6.0620   -0.8320    1.4400 C.2     1  UNL1        0.0000
     12  C          5.4100    0.3270    1.8000 C.2     1  UNL1        0.0000
@<TRIPOS>BOND
     1     5     4    1
     2     4     2    1
     3     3     2    2
     4     2     1    1
     5     1     6    1
     6     6     7    1
     7     7     8    2
     8     7     9    1
     9     8    10    1
    10     9    11    2
    11    10    12    2
    12    11    12    1
