@<TRIPOS>MOLECULE
/home/cewinharhar/GITHUB/reincatalyze/data/processed/docking_pred/2023_Apr_20-15:07/3162da3d825baae428df1736f889259fa2bb10a2_ligand_2.pdbqt
 12 12 0 0 0
SMALL
GASTEIGER

@<TRIPOS>ATOM
      1  C          8.2250    0.2420   -2.1850 C.3     1  UNL1        0.1270
      2  C          9.3530    0.3400   -1.2280 C.2     1  UNL1        0.3030
      3  O          9.4340   -0.4270   -0.2360 O.2     1  UNL1       -0.2520
      4  O         10.3520    1.2840   -1.4030 O.3     1  UNL1       -0.4810
      5  H         10.1050    2.2770   -1.4200 H       1  UNL1        0.2960
      6  C          7.1140   -0.5170   -1.5260 C.3     1  UNL1        0.0470
      7  C          6.3350    0.2750   -0.5750 C.2     1  UNL1       -0.0470
      8  C          6.1060   -0.1850    0.7010 C.2     1  UNL1        0.0040
      9  C          5.8330    1.4930   -0.9690 C.2     1  UNL1        0.0040
     10  C          5.3550    0.6250    1.5560 C.2     1  UNL1        0.0000
     11  C          5.0910    2.2920   -0.1220 C.2     1  UNL1        0.0000
     12  C          4.8550    1.8390    1.1580 C.2     1  UNL1        0.0000
@<TRIPOS>BOND
     1     1     6    1
     2     1     2    1
     3     6     7    1
     4     5     4    1
     5     4     2    1
     6     2     3    2
     7     9     7    2
     8     9    11    1
     9     7     8    1
    10    11    12    2
    11     8    10    2
    12    12    10    1
