@<TRIPOS>MOLECULE
/home/cewinharhar/GITHUB/reincatalyze/data/processed/docking_pred/2023_Apr_20-15:07/3162da3d825baae428df1736f889259fa2bb10a2_ligand_2.pdbqt
 12 12 0 0 0
SMALL
GASTEIGER

@<TRIPOS>ATOM
      1  C          5.0220    1.7560    0.7340 C.3     1  UNL1        0.1270
      2  C          4.5650    1.0370    1.9470 C.2     1  UNL1        0.3030
      3  O          5.2810    0.1610    2.4930 O.2     1  UNL1       -0.2520
      4  O          3.3320    1.3140    2.5140 O.3     1  UNL1       -0.4810
      5  H          2.5310    1.5020    1.9050 H       1  UNL1        0.2960
      6  C          6.5200    1.7830    0.7390 C.3     1  UNL1        0.0470
      7  C          7.1310    1.0310   -0.3560 C.2     1  UNL1       -0.0470
      8  C          6.3820    0.1660   -1.1190 C.2     1  UNL1        0.0040
      9  C          8.4710    1.1980   -0.6190 C.2     1  UNL1        0.0040
     10  C          7.0320   -0.5190   -2.1490 C.2     1  UNL1        0.0000
     11  C          9.1120    0.5200   -1.6370 C.2     1  UNL1        0.0000
     12  C          8.3690   -0.3490   -2.4060 C.2     1  UNL1        0.0000
@<TRIPOS>BOND
     1    12    10    2
     2    12    11    1
     3    10     8    1
     4    11     9    2
     5     8     7    2
     6     9     7    1
     7     7     6    1
     8     1     6    1
     9     1     2    1
    10     5     4    1
    11     2     3    2
    12     2     4    1
