@<TRIPOS>MOLECULE
/home/cewinharhar/GITHUB/reincatalyze/data/processed/docking_pred/2023_Apr_20-15:07/3162da3d825baae428df1736f889259fa2bb10a2_ligand_2.pdbqt
 12 12 0 0 0
SMALL
GASTEIGER

@<TRIPOS>ATOM
      1  C          5.3500    2.9160    0.0850 C.3     1  UNL1        0.1270
      2  C          6.2950    3.7640    0.8480 C.2     1  UNL1        0.3030
      3  O          6.8300    4.7740    0.3270 O.2     1  UNL1       -0.2520
      4  O          6.6170    3.4640    2.1620 O.3     1  UNL1       -0.4810
      5  H          7.0150    2.5470    2.3830 H       1  UNL1        0.2960
      6  C          5.2320    1.5960    0.7830 C.3     1  UNL1        0.0470
      7  C          6.0220    0.5280    0.1720 C.2     1  UNL1       -0.0470
      8  C          6.4560   -0.5420    0.9200 C.2     1  UNL1        0.0040
      9  C          6.3290    0.6010   -1.1670 C.2     1  UNL1        0.0040
     10  C          7.2050   -1.5260    0.2710 C.2     1  UNL1        0.0000
     11  C          7.0700   -0.3720   -1.8070 C.2     1  UNL1        0.0000
     12  C          7.5080   -1.4470   -1.0650 C.2     1  UNL1        0.0000
@<TRIPOS>BOND
     1    11     9    1
     2    11    12    2
     3     9     7    2
     4    12    10    1
     5     1     6    1
     6     1     2    1
     7     7     6    1
     8     7     8    1
     9    10     8    2
    10     3     2    2
    11     2     4    1
    12     4     5    1
