MODEL 1
REMARK VINA RESULT:      -7.3      0.000      0.000
REMARK SMILES O=C(O)CCc1ccccc1
REMARK SMILES IDX 4 1 2 2 1 3 3 4 5 6 6 7 7 8 11 9 8 10 10 11 9 12
REMARK H PARENT 3 5
REMARK Flexibility Score: inf
ROOT
ATOM      1  C   UNL     1       8.421  -0.559  -2.230  1.00  0.00     0.127 C 
ENDROOT
BRANCH   1   2
ATOM      2  C   UNL     1       8.464  -1.861  -2.936  1.00  0.00     0.303 C 
ATOM      3  O   UNL     1       9.544  -2.482  -3.091  1.00  0.00    -0.252 OA
BRANCH   2   4
ATOM      4  O   UNL     1       7.308  -2.430  -3.447  1.00  0.00    -0.481 OA
ATOM      5  H   UNL     1       6.828  -1.974  -4.227  1.00  0.00     0.296 HD
ENDBRANCH   2   4
ENDBRANCH   1   2
BRANCH   1   6
ATOM      6  C   UNL     1       6.993  -0.112  -2.153  1.00  0.00     0.047 C 
BRANCH   6   7
ATOM      7  C   UNL     1       6.483   0.019  -0.790  1.00  0.00    -0.047 A 
ATOM      8  C   UNL     1       6.605  -1.016   0.109  1.00  0.00     0.004 A 
ATOM      9  C   UNL     1       5.878   1.194  -0.409  1.00  0.00     0.004 A 
ATOM     10  C   UNL     1       6.096  -0.821   1.395  1.00  0.00     0.000 A 
ATOM     11  C   UNL     1       5.375   1.385   0.863  1.00  0.00     0.000 A 
ATOM     12  C   UNL     1       5.493   0.353   1.769  1.00  0.00     0.000 A 
ENDBRANCH   6   7
ENDBRANCH   1   6
TORSDOF 4
ENDMDL
MODEL 2
REMARK VINA RESULT:      -7.3      0.129      1.732
REMARK SMILES O=C(O)CCc1ccccc1
REMARK SMILES IDX 4 1 2 2 1 3 3 4 5 6 6 7 7 8 11 9 8 10 10 11 9 12
REMARK H PARENT 3 5
REMARK Flexibility Score: inf
ROOT
ATOM      1  C   UNL     1       8.411  -0.648  -2.087  1.00  0.00     0.127 C 
ENDROOT
BRANCH   1   2
ATOM      2  C   UNL     1       8.373  -1.897  -2.883  1.00  0.00     0.303 C 
ATOM      3  O   UNL     1       7.283  -2.409  -3.239  1.00  0.00    -0.252 OA
BRANCH   2   4
ATOM      4  O   UNL     1       9.544  -2.535  -3.258  1.00  0.00    -0.481 OA
ATOM      5  H   UNL     1      10.389  -1.979  -3.420  1.00  0.00     0.296 HD
ENDBRANCH   2   4
ENDBRANCH   1   2
BRANCH   1   6
ATOM      6  C   UNL     1       7.036  -0.052  -2.081  1.00  0.00     0.047 C 
BRANCH   6   7
ATOM      7  C   UNL     1       6.464   0.110  -0.745  1.00  0.00    -0.047 A 
ATOM      8  C   UNL     1       5.813   1.270  -0.394  1.00  0.00     0.004 A 
ATOM      9  C   UNL     1       6.580  -0.917   0.163  1.00  0.00     0.004 A 
ATOM     10  C   UNL     1       5.290   1.354   0.898  1.00  0.00     0.000 A 
ATOM     11  C   UNL     1       6.062  -0.832   1.440  1.00  0.00     0.000 A 
ATOM     12  C   UNL     1       5.410   0.327   1.800  1.00  0.00     0.000 A 
ENDBRANCH   6   7
ENDBRANCH   1   6
TORSDOF 4
ENDMDL
MODEL 3
REMARK VINA RESULT:      -6.7      3.357      5.037
REMARK SMILES O=C(O)CCc1ccccc1
REMARK SMILES IDX 4 1 2 2 1 3 3 4 5 6 6 7 7 8 11 9 8 10 10 11 9 12
REMARK H PARENT 3 5
REMARK Flexibility Score: inf
ROOT
ATOM      1  C   UNL     1       5.022   1.756   0.734  1.00  0.00     0.127 C 
ENDROOT
BRANCH   1   2
ATOM      2  C   UNL     1       4.565   1.037   1.947  1.00  0.00     0.303 C 
ATOM      3  O   UNL     1       5.281   0.161   2.493  1.00  0.00    -0.252 OA
BRANCH   2   4
ATOM      4  O   UNL     1       3.332   1.314   2.514  1.00  0.00    -0.481 OA
ATOM      5  H   UNL     1       2.531   1.502   1.905  1.00  0.00     0.296 HD
ENDBRANCH   2   4
ENDBRANCH   1   2
BRANCH   1   6
ATOM      6  C   UNL     1       6.520   1.783   0.739  1.00  0.00     0.047 C 
BRANCH   6   7
ATOM      7  C   UNL     1       7.131   1.031  -0.356  1.00  0.00    -0.047 A 
ATOM      8  C   UNL     1       6.382   0.166  -1.119  1.00  0.00     0.004 A 
ATOM      9  C   UNL     1       8.471   1.198  -0.619  1.00  0.00     0.004 A 
ATOM     10  C   UNL     1       7.032  -0.519  -2.149  1.00  0.00     0.000 A 
ATOM     11  C   UNL     1       9.112   0.520  -1.637  1.00  0.00     0.000 A 
ATOM     12  C   UNL     1       8.369  -0.349  -2.406  1.00  0.00     0.000 A 
ENDBRANCH   6   7
ENDBRANCH   1   6
TORSDOF 4
ENDMDL
MODEL 4
REMARK VINA RESULT:      -6.7      1.929      2.312
REMARK SMILES O=C(O)CCc1ccccc1
REMARK SMILES IDX 4 1 2 2 1 3 3 4 5 6 6 7 7 8 11 9 8 10 10 11 9 12
REMARK H PARENT 3 5
REMARK Flexibility Score: inf
ROOT
ATOM      1  C   UNL     1       8.225   0.242  -2.185  1.00  0.00     0.127 C 
ENDROOT
BRANCH   1   2
ATOM      2  C   UNL     1       9.353   0.340  -1.228  1.00  0.00     0.303 C 
ATOM      3  O   UNL     1       9.434  -0.427  -0.236  1.00  0.00    -0.252 OA
BRANCH   2   4
ATOM      4  O   UNL     1      10.352   1.284  -1.403  1.00  0.00    -0.481 OA
ATOM      5  H   UNL     1      10.105   2.277  -1.420  1.00  0.00     0.296 HD
ENDBRANCH   2   4
ENDBRANCH   1   2
BRANCH   1   6
ATOM      6  C   UNL     1       7.114  -0.517  -1.526  1.00  0.00     0.047 C 
BRANCH   6   7
ATOM      7  C   UNL     1       6.335   0.275  -0.575  1.00  0.00    -0.047 A 
ATOM      8  C   UNL     1       6.106  -0.185   0.701  1.00  0.00     0.004 A 
ATOM      9  C   UNL     1       5.833   1.493  -0.969  1.00  0.00     0.004 A 
ATOM     10  C   UNL     1       5.355   0.625   1.556  1.00  0.00     0.000 A 
ATOM     11  C   UNL     1       5.091   2.292  -0.122  1.00  0.00     0.000 A 
ATOM     12  C   UNL     1       4.855   1.839   1.158  1.00  0.00     0.000 A 
ENDBRANCH   6   7
ENDBRANCH   1   6
TORSDOF 4
ENDMDL
MODEL 5
REMARK VINA RESULT:      -6.6      3.688      4.912
REMARK SMILES O=C(O)CCc1ccccc1
REMARK SMILES IDX 4 1 2 2 1 3 3 4 5 6 6 7 7 8 11 9 8 10 10 11 9 12
REMARK H PARENT 3 5
REMARK Flexibility Score: inf
ROOT
ATOM      1  C   UNL     1       5.350   2.916   0.085  1.00  0.00     0.127 C 
ENDROOT
BRANCH   1   2
ATOM      2  C   UNL     1       6.295   3.764   0.848  1.00  0.00     0.303 C 
ATOM      3  O   UNL     1       6.830   4.774   0.327  1.00  0.00    -0.252 OA
BRANCH   2   4
ATOM      4  O   UNL     1       6.617   3.464   2.162  1.00  0.00    -0.481 OA
ATOM      5  H   UNL     1       7.015   2.547   2.383  1.00  0.00     0.296 HD
ENDBRANCH   2   4
ENDBRANCH   1   2
BRANCH   1   6
ATOM      6  C   UNL     1       5.232   1.596   0.783  1.00  0.00     0.047 C 
BRANCH   6   7
ATOM      7  C   UNL     1       6.022   0.528   0.172  1.00  0.00    -0.047 A 
ATOM      8  C   UNL     1       6.456  -0.542   0.920  1.00  0.00     0.004 A 
ATOM      9  C   UNL     1       6.329   0.601  -1.167  1.00  0.00     0.004 A 
ATOM     10  C   UNL     1       7.205  -1.526   0.271  1.00  0.00     0.000 A 
ATOM     11  C   UNL     1       7.070  -0.372  -1.807  1.00  0.00     0.000 A 
ATOM     12  C   UNL     1       7.508  -1.447  -1.065  1.00  0.00     0.000 A 
ENDBRANCH   6   7
ENDBRANCH   1   6
TORSDOF 4
ENDMDL
