@<TRIPOS>MOLECULE
/home/cewinharhar/GITHUB/reincatalyze/data/processed/docking_pred/2023_Apr_20-15:07/3162da3d825baae428df1736f889259fa2bb10a2_ligand_2.pdbqt
 12 12 0 0 0
SMALL
GASTEIGER

@<TRIPOS>ATOM
      1  C          8.4210   -0.5590   -2.2300 C.3     1  UNL1        0.1270
      2  C          8.4640   -1.8610   -2.9360 C.2     1  UNL1        0.3030
      3  O          9.5440   -2.4820   -3.0910 O.2     1  UNL1       -0.2520
      4  O          7.3080   -2.4300   -3.4470 O.3     1  UNL1       -0.4810
      5  H          6.8280   -1.9740   -4.2270 H       1  UNL1        0.2960
      6  C          6.9930   -0.1120   -2.1530 C.3     1  UNL1        0.0470
      7  C          6.4830    0.0190   -0.7900 C.2     1  UNL1       -0.0470
      8  C          6.6050   -1.0160    0.1090 C.2     1  UNL1        0.0040
      9  C          5.8780    1.1940   -0.4090 C.2     1  UNL1        0.0040
     10  C          6.0960   -0.8210    1.3950 C.2     1  UNL1        0.0000
     11  C          5.3750    1.3850    0.8630 C.2     1  UNL1        0.0000
     12  C          5.4930    0.3530    1.7690 C.2     1  UNL1        0.0000
@<TRIPOS>BOND
     1     5     4    1
     2     4     2    1
     3     3     2    2
     4     2     1    1
     5     1     6    1
     6     6     7    1
     7     7     9    2
     8     7     8    1
     9     9    11    1
    10     8    10    2
    11    11    12    2
    12    10    12    1
