@<TRIPOS>MOLECULE
/home/cewinharhar/GITHUB/reincatalyze/data/processed/docking_pred/2023_Apr_20-15:07/31de0aabf4a391366091aaa04775d5537fef7eaf_ligand_2.pdbqt
 12 12 0 0 0
SMALL
GASTEIGER

@<TRIPOS>ATOM
      1  C          5.3400    2.8890    0.0960 C.3     1  UNL1        0.1270
      2  C          6.2010    3.8090    0.8750 C.2     1  UNL1        0.3030
      3  O          6.2620    3.7400    2.1270 O.2     1  UNL1       -0.2520
      4  O          6.9660    4.7740    0.2390 O.3     1  UNL1       -0.4810
      5  H          7.1730    5.6500    0.7270 H       1  UNL1        0.2960
      6  C          4.9810    1.7260    0.9700 C.3     1  UNL1        0.0470
      7  C          5.8020    0.5380    0.7460 C.2     1  UNL1       -0.0470
      8  C          6.0190   -0.3690    1.7570 C.2     1  UNL1        0.0040
      9  C          6.3590    0.3310   -0.4950 C.2     1  UNL1        0.0040
     10  C          6.8130   -1.4820    1.4710 C.2     1  UNL1        0.0000
     11  C          7.1440   -0.7700   -0.7770 C.2     1  UNL1        0.0000
     12  C          7.3660   -1.6830    0.2310 C.2     1  UNL1        0.0000
@<TRIPOS>BOND
     1    11     9    1
     2    11    12    2
     3     9     7    2
     4     1     2    1
     5     1     6    1
     6    12    10    1
     7     4     5    1
     8     4     2    1
     9     7     6    1
    10     7     8    1
    11     2     3    2
    12    10     8    2
