@<TRIPOS>MOLECULE
/home/cewinharhar/GITHUB/reincatalyze/data/processed/docking_pred/2023_Apr_20-15:07/31de0aabf4a391366091aaa04775d5537fef7eaf_ligand_2.pdbqt
 12 12 0 0 0
SMALL
GASTEIGER

@<TRIPOS>ATOM
      1  C          8.3010    0.3470   -2.0940 C.3     1  UNL1        0.1270
      2  C          9.4420    0.3930   -1.1480 C.2     1  UNL1        0.3030
      3  O          9.5030   -0.3860   -0.1640 O.2     1  UNL1       -0.2520
      4  O         10.4750    1.2990   -1.3250 O.3     1  UNL1       -0.4810
      5  H         11.1860    1.3960   -0.5950 H       1  UNL1        0.2960
      6  C          7.2140   -0.4820   -1.4810 C.3     1  UNL1        0.0470
      7  C          6.3980    0.2360   -0.5030 C.2     1  UNL1       -0.0470
      8  C          5.8330    1.4510   -0.8160 C.2     1  UNL1        0.0040
      9  C          6.1970   -0.3180    0.7400 C.2     1  UNL1        0.0040
     10  C          5.0640    2.0800    0.1660 C.2     1  UNL1        0.0000
     11  C          5.4370    0.3060    1.7090 C.2     1  UNL1        0.0000
     12  C          4.8670    1.5230    1.4040 C.2     1  UNL1        0.0000
@<TRIPOS>BOND
     1     1     6    1
     2     1     2    1
     3     6     7    1
     4     4     2    1
     5     4     5    1
     6     2     3    2
     7     8     7    2
     8     8    10    1
     9     7     9    1
    10    10    12    2
    11     9    11    2
    12    12    11    1
