@<TRIPOS>MOLECULE
/home/cewinharhar/GITHUB/reincatalyze/data/processed/docking_pred/2023_Apr_20-15:07/31de0aabf4a391366091aaa04775d5537fef7eaf_ligand_2.pdbqt
 12 12 0 0 0
SMALL
GASTEIGER

@<TRIPOS>ATOM
      1  C          5.0060    1.7890    0.6970 C.3     1  UNL1        0.1270
      2  C          4.4900    1.1120    1.9100 C.2     1  UNL1        0.3030
      3  O          5.1460    0.2050    2.4790 O.2     1  UNL1       -0.2520
      4  O          3.2630    1.4630    2.4510 O.3     1  UNL1       -0.4810
      5  H          3.1710    2.3550    2.9440 H       1  UNL1        0.2960
      6  C          6.5040    1.7710    0.7500 C.3     1  UNL1        0.0470
      7  C          7.1280    1.0270   -0.3430 C.2     1  UNL1       -0.0470
      8  C          6.3950    0.1460   -1.1030 C.2     1  UNL1        0.0040
      9  C          8.4650    1.2190   -0.6070 C.2     1  UNL1        0.0040
     10  C          7.0570   -0.5290   -2.1310 C.2     1  UNL1        0.0000
     11  C          9.1170    0.5500   -1.6240 C.2     1  UNL1        0.0000
     12  C          8.3900   -0.3350   -2.3900 C.2     1  UNL1        0.0000
@<TRIPOS>BOND
     1    12    10    2
     2    12    11    1
     3    10     8    1
     4    11     9    2
     5     8     7    2
     6     9     7    1
     7     7     6    1
     8     1     6    1
     9     1     2    1
    10     2     4    1
    11     2     3    2
    12     4     5    1
