@<TRIPOS>MOLECULE
/home/cewinharhar/GITHUB/reincatalyze/data/processed/docking_pred/2023_Apr_20-15:07/31de0aabf4a391366091aaa04775d5537fef7eaf_ligand_2.pdbqt
 12 12 0 0 0
SMALL
GASTEIGER

@<TRIPOS>ATOM
      1  C          8.4670   -0.6180   -2.1480 C.3     1  UNL1        0.1270
      2  C          8.4890   -1.8960   -2.8980 C.2     1  UNL1        0.3030
      3  O          9.5630   -2.5170   -3.0930 O.2     1  UNL1       -0.2520
      4  O          7.3210   -2.4410   -3.4060 O.3     1  UNL1       -0.4810
      5  H          6.5100   -1.8350   -3.5560 H       1  UNL1        0.2960
      6  C          7.0590   -0.1080   -2.1260 C.3     1  UNL1        0.0470
      7  C          6.5020    0.0450   -0.7830 C.2     1  UNL1       -0.0470
      8  C          6.6240   -0.9610    0.1470 C.2     1  UNL1        0.0040
      9  C          5.8530    1.2120   -0.4540 C.2     1  UNL1        0.0040
     10  C          6.0690   -0.7460    1.4110 C.2     1  UNL1        0.0000
     11  C          5.3050    1.4230    0.7950 C.2     1  UNL1        0.0000
     12  C          5.4220    0.4200    1.7330 C.2     1  UNL1        0.0000
@<TRIPOS>BOND
     1     5     4    1
     2     4     2    1
     3     3     2    2
     4     2     1    1
     5     1     6    1
     6     6     7    1
     7     7     9    2
     8     7     8    1
     9     9    11    1
    10     8    10    2
    11    11    12    2
    12    10    12    1
