MODEL 1
REMARK VINA RESULT:      -7.4      0.000      0.000
REMARK SMILES O=C(O)CCc1ccccc1
REMARK SMILES IDX 4 1 2 2 1 3 3 4 5 6 6 7 7 8 11 9 8 10 10 11 9 12
REMARK H PARENT 3 5
REMARK Flexibility Score: inf
ROOT
ATOM      1  C   UNL     1       8.467  -0.618  -2.148  1.00  0.00     0.127 C 
ENDROOT
BRANCH   1   2
ATOM      2  C   UNL     1       8.489  -1.896  -2.898  1.00  0.00     0.303 C 
ATOM      3  O   UNL     1       9.563  -2.517  -3.093  1.00  0.00    -0.252 OA
BRANCH   2   4
ATOM      4  O   UNL     1       7.321  -2.441  -3.406  1.00  0.00    -0.481 OA
ATOM      5  H   UNL     1       6.510  -1.835  -3.556  1.00  0.00     0.296 HD
ENDBRANCH   2   4
ENDBRANCH   1   2
BRANCH   1   6
ATOM      6  C   UNL     1       7.059  -0.108  -2.126  1.00  0.00     0.047 C 
BRANCH   6   7
ATOM      7  C   UNL     1       6.502   0.045  -0.783  1.00  0.00    -0.047 A 
ATOM      8  C   UNL     1       6.624  -0.961   0.147  1.00  0.00     0.004 A 
ATOM      9  C   UNL     1       5.853   1.212  -0.454  1.00  0.00     0.004 A 
ATOM     10  C   UNL     1       6.069  -0.746   1.411  1.00  0.00     0.000 A 
ATOM     11  C   UNL     1       5.305   1.423   0.795  1.00  0.00     0.000 A 
ATOM     12  C   UNL     1       5.422   0.420   1.733  1.00  0.00     0.000 A 
ENDBRANCH   6   7
ENDBRANCH   1   6
TORSDOF 4
ENDMDL
MODEL 2
REMARK VINA RESULT:      -7.2      0.125      1.732
REMARK SMILES O=C(O)CCc1ccccc1
REMARK SMILES IDX 4 1 2 2 1 3 3 4 5 6 6 7 7 8 11 9 8 10 10 11 9 12
REMARK H PARENT 3 5
REMARK Flexibility Score: inf
ROOT
ATOM      1  C   UNL     1       8.404  -0.595  -2.139  1.00  0.00     0.127 C 
ENDROOT
BRANCH   1   2
ATOM      2  C   UNL     1       8.387  -1.873  -2.889  1.00  0.00     0.303 C 
ATOM      3  O   UNL     1       7.305  -2.415  -3.226  1.00  0.00    -0.252 OA
BRANCH   2   4
ATOM      4  O   UNL     1       9.568  -2.506  -3.240  1.00  0.00    -0.481 OA
ATOM      5  H   UNL     1      10.403  -2.364  -2.665  1.00  0.00     0.296 HD
ENDBRANCH   2   4
ENDBRANCH   1   2
BRANCH   1   6
ATOM      6  C   UNL     1       7.007  -0.054  -2.098  1.00  0.00     0.047 C 
BRANCH   6   7
ATOM      7  C   UNL     1       6.467   0.094  -0.748  1.00  0.00    -0.047 A 
ATOM      8  C   UNL     1       5.839   1.257  -0.366  1.00  0.00     0.004 A 
ATOM      9  C   UNL     1       6.589  -0.947   0.142  1.00  0.00     0.004 A 
ATOM     10  C   UNL     1       5.346   1.329   0.939  1.00  0.00     0.000 A 
ATOM     11  C   UNL     1       6.101  -0.875   1.432  1.00  0.00     0.000 A 
ATOM     12  C   UNL     1       5.472   0.287   1.823  1.00  0.00     0.000 A 
ENDBRANCH   6   7
ENDBRANCH   1   6
TORSDOF 4
ENDMDL
MODEL 3
REMARK VINA RESULT:      -6.8      3.369      5.067
REMARK SMILES O=C(O)CCc1ccccc1
REMARK SMILES IDX 4 1 2 2 1 3 3 4 5 6 6 7 7 8 11 9 8 10 10 11 9 12
REMARK H PARENT 3 5
REMARK Flexibility Score: inf
ROOT
ATOM      1  C   UNL     1       5.006   1.789   0.697  1.00  0.00     0.127 C 
ENDROOT
BRANCH   1   2
ATOM      2  C   UNL     1       4.490   1.112   1.910  1.00  0.00     0.303 C 
ATOM      3  O   UNL     1       5.146   0.205   2.479  1.00  0.00    -0.252 OA
BRANCH   2   4
ATOM      4  O   UNL     1       3.263   1.463   2.451  1.00  0.00    -0.481 OA
ATOM      5  H   UNL     1       3.171   2.355   2.944  1.00  0.00     0.296 HD
ENDBRANCH   2   4
ENDBRANCH   1   2
BRANCH   1   6
ATOM      6  C   UNL     1       6.504   1.771   0.750  1.00  0.00     0.047 C 
BRANCH   6   7
ATOM      7  C   UNL     1       7.128   1.027  -0.343  1.00  0.00    -0.047 A 
ATOM      8  C   UNL     1       6.395   0.146  -1.103  1.00  0.00     0.004 A 
ATOM      9  C   UNL     1       8.465   1.219  -0.607  1.00  0.00     0.004 A 
ATOM     10  C   UNL     1       7.057  -0.529  -2.131  1.00  0.00     0.000 A 
ATOM     11  C   UNL     1       9.117   0.550  -1.624  1.00  0.00     0.000 A 
ATOM     12  C   UNL     1       8.390  -0.335  -2.390  1.00  0.00     0.000 A 
ENDBRANCH   6   7
ENDBRANCH   1   6
TORSDOF 4
ENDMDL
MODEL 4
REMARK VINA RESULT:      -6.6      1.961      2.659
REMARK SMILES O=C(O)CCc1ccccc1
REMARK SMILES IDX 4 1 2 2 1 3 3 4 5 6 6 7 7 8 11 9 8 10 10 11 9 12
REMARK H PARENT 3 5
REMARK Flexibility Score: inf
ROOT
ATOM      1  C   UNL     1       8.301   0.347  -2.094  1.00  0.00     0.127 C 
ENDROOT
BRANCH   1   2
ATOM      2  C   UNL     1       9.442   0.393  -1.148  1.00  0.00     0.303 C 
ATOM      3  O   UNL     1       9.503  -0.386  -0.164  1.00  0.00    -0.252 OA
BRANCH   2   4
ATOM      4  O   UNL     1      10.475   1.299  -1.325  1.00  0.00    -0.481 OA
ATOM      5  H   UNL     1      11.186   1.396  -0.595  1.00  0.00     0.296 HD
ENDBRANCH   2   4
ENDBRANCH   1   2
BRANCH   1   6
ATOM      6  C   UNL     1       7.214  -0.482  -1.481  1.00  0.00     0.047 C 
BRANCH   6   7
ATOM      7  C   UNL     1       6.398   0.236  -0.503  1.00  0.00    -0.047 A 
ATOM      8  C   UNL     1       5.833   1.451  -0.816  1.00  0.00     0.004 A 
ATOM      9  C   UNL     1       6.197  -0.318   0.740  1.00  0.00     0.004 A 
ATOM     10  C   UNL     1       5.064   2.080   0.166  1.00  0.00     0.000 A 
ATOM     11  C   UNL     1       5.437   0.306   1.709  1.00  0.00     0.000 A 
ATOM     12  C   UNL     1       4.867   1.523   1.404  1.00  0.00     0.000 A 
ENDBRANCH   6   7
ENDBRANCH   1   6
TORSDOF 4
ENDMDL
MODEL 5
REMARK VINA RESULT:      -6.6      3.739      4.943
REMARK SMILES O=C(O)CCc1ccccc1
REMARK SMILES IDX 4 1 2 2 1 3 3 4 5 6 6 7 7 8 11 9 8 10 10 11 9 12
REMARK H PARENT 3 5
REMARK Flexibility Score: inf
ROOT
ATOM      1  C   UNL     1       5.340   2.889   0.096  1.00  0.00     0.127 C 
ENDROOT
BRANCH   1   2
ATOM      2  C   UNL     1       6.201   3.809   0.875  1.00  0.00     0.303 C 
ATOM      3  O   UNL     1       6.262   3.740   2.127  1.00  0.00    -0.252 OA
BRANCH   2   4
ATOM      4  O   UNL     1       6.966   4.774   0.239  1.00  0.00    -0.481 OA
ATOM      5  H   UNL     1       7.173   5.650   0.727  1.00  0.00     0.296 HD
ENDBRANCH   2   4
ENDBRANCH   1   2
BRANCH   1   6
ATOM      6  C   UNL     1       4.981   1.726   0.970  1.00  0.00     0.047 C 
BRANCH   6   7
ATOM      7  C   UNL     1       5.802   0.538   0.746  1.00  0.00    -0.047 A 
ATOM      8  C   UNL     1       6.019  -0.369   1.757  1.00  0.00     0.004 A 
ATOM      9  C   UNL     1       6.359   0.331  -0.495  1.00  0.00     0.004 A 
ATOM     10  C   UNL     1       6.813  -1.482   1.471  1.00  0.00     0.000 A 
ATOM     11  C   UNL     1       7.144  -0.770  -0.777  1.00  0.00     0.000 A 
ATOM     12  C   UNL     1       7.366  -1.683   0.231  1.00  0.00     0.000 A 
ENDBRANCH   6   7
ENDBRANCH   1   6
TORSDOF 4
ENDMDL
