@<TRIPOS>MOLECULE
/home/cewinharhar/GITHUB/reincatalyze/data/processed/docking_pred/2023_Apr_20-15:07/31de0aabf4a391366091aaa04775d5537fef7eaf_ligand_2.pdbqt
 12 12 0 0 0
SMALL
GASTEIGER

@<TRIPOS>ATOM
      1  C          8.4040   -0.5950   -2.1390 C.3     1  UNL1        0.1270
      2  C          8.3870   -1.8730   -2.8890 C.2     1  UNL1        0.3030
      3  O          7.3050   -2.4150   -3.2260 O.2     1  UNL1       -0.2520
      4  O          9.5680   -2.5060   -3.2400 O.3     1  UNL1       -0.4810
      5  H         10.4030   -2.3640   -2.6650 H       1  UNL1        0.2960
      6  C          7.0070   -0.0540   -2.0980 C.3     1  UNL1        0.0470
      7  C          6.4670    0.0940   -0.7480 C.2     1  UNL1       -0.0470
      8  C          5.8390    1.2570   -0.3660 C.2     1  UNL1        0.0040
      9  C          6.5890   -0.9470    0.1420 C.2     1  UNL1        0.0040
     10  C          5.3460    1.3290    0.9390 C.2     1  UNL1        0.0000
     11  C          6.1010   -0.8750    1.4320 C.2     1  UNL1        0.0000
     12  C          5.4720    0.2870    1.8230 C.2     1  UNL1        0.0000
@<TRIPOS>BOND
     1     4     2    1
     2     4     5    1
     3     3     2    2
     4     2     1    1
     5     1     6    1
     6     6     7    1
     7     7     8    2
     8     7     9    1
     9     8    10    1
    10     9    11    2
    11    10    12    2
    12    11    12    1
