@<TRIPOS>MOLECULE
/home/cewinharhar/GITHUB/reincatalyze/data/processed/docking_pred/2023_Apr_20-15:07/32925d028e6f827171d23f19599134de0355568e_ligand_2.pdbqt
 12 12 0 0 0
SMALL
GASTEIGER

@<TRIPOS>ATOM
      1  C          5.0570    1.7600    0.6970 C.3     1  UNL1        0.1270
      2  C          4.5070    1.1000    1.9040 C.2     1  UNL1        0.3030
      3  O          5.1350    0.1820    2.4880 O.2     1  UNL1       -0.2520
      4  O          3.2790    1.4790    2.4230 O.3     1  UNL1       -0.4810
      5  H          3.1860    1.6280    3.4310 H       1  UNL1        0.2960
      6  C          6.5530    1.7040    0.7710 C.3     1  UNL1        0.0470
      7  C          7.1760    0.9660   -0.3260 C.2     1  UNL1       -0.0470
      8  C          8.4800    1.2120   -0.6890 C.2     1  UNL1        0.0040
      9  C          6.4420    0.0140   -0.9970 C.2     1  UNL1        0.0040
     10  C          9.0100    0.4680   -1.7450 C.2     1  UNL1        0.0000
     11  C          6.9680   -0.7190   -2.0410 C.2     1  UNL1        0.0000
     12  C          8.2730   -0.4790   -2.4110 C.2     1  UNL1        0.0000
@<TRIPOS>BOND
     1    12    11    2
     2    12    10    1
     3    11     9    1
     4    10     8    2
     5     9     7    2
     6     8     7    1
     7     7     6    1
     8     1     6    1
     9     1     2    1
    10     2     4    1
    11     2     3    2
    12     4     5    1
