@<TRIPOS>MOLECULE
/home/cewinharhar/GITHUB/reincatalyze/data/processed/docking_pred/2023_Apr_20-15:07/32925d028e6f827171d23f19599134de0355568e_ligand_2.pdbqt
 12 12 0 0 0
SMALL
GASTEIGER

@<TRIPOS>ATOM
      1  C          8.4010   -0.6300   -2.1080 C.3     1  UNL1        0.1270
      2  C          8.3680   -1.8870   -2.8910 C.2     1  UNL1        0.3030
      3  O          7.2790   -2.4020   -3.2490 O.2     1  UNL1       -0.2520
      4  O          9.5400   -2.5310   -3.2510 O.3     1  UNL1       -0.4810
      5  H         10.1340   -2.9350   -2.5220 H       1  UNL1        0.2960
      6  C          7.0180   -0.0530   -2.0830 C.3     1  UNL1        0.0470
      7  C          6.4610    0.0960   -0.7400 C.2     1  UNL1       -0.0470
      8  C          5.8160    1.2540   -0.3700 C.2     1  UNL1        0.0040
      9  C          6.5840   -0.9400    0.1570 C.2     1  UNL1        0.0040
     10  C          5.3070    1.3270    0.9280 C.2     1  UNL1        0.0000
     11  C          6.0810   -0.8660    1.4410 C.2     1  UNL1        0.0000
     12  C          5.4340    0.2910    1.8190 C.2     1  UNL1        0.0000
@<TRIPOS>BOND
     1     4     2    1
     2     4     5    1
     3     3     2    2
     4     2     1    1
     5     1     6    1
     6     6     7    1
     7     7     8    2
     8     7     9    1
     9     8    10    1
    10     9    11    2
    11    10    12    2
    12    11    12    1
