@<TRIPOS>MOLECULE
/home/cewinharhar/GITHUB/reincatalyze/data/processed/docking_pred/2023_Apr_20-15:07/32925d028e6f827171d23f19599134de0355568e_ligand_2.pdbqt
 12 12 0 0 0
SMALL
GASTEIGER

@<TRIPOS>ATOM
      1  C          8.4320   -0.6310   -2.1000 C.3     1  UNL1        0.1270
      2  C          8.4710   -1.8840   -2.8890 C.2     1  UNL1        0.3030
      3  O          9.5530   -2.4870   -3.1010 O.2     1  UNL1       -0.2520
      4  O          7.3110   -2.4270   -3.4180 O.3     1  UNL1       -0.4810
      5  H          6.9960   -2.1300   -4.3450 H       1  UNL1        0.2960
      6  C          7.0210   -0.1280   -2.0850 C.3     1  UNL1        0.0470
      7  C          6.4650    0.0440   -0.7440 C.2     1  UNL1       -0.0470
      8  C          6.5820   -0.9520    0.1990 C.2     1  UNL1        0.0040
      9  C          5.8220    1.2190   -0.4290 C.2     1  UNL1        0.0040
     10  C          6.0280   -0.7190    1.4600 C.2     1  UNL1        0.0000
     11  C          5.2750    1.4470    0.8180 C.2     1  UNL1        0.0000
     12  C          5.3870    0.4550    1.7680 C.2     1  UNL1        0.0000
@<TRIPOS>BOND
     1     5     4    1
     2     4     2    1
     3     3     2    2
     4     2     1    1
     5     1     6    1
     6     6     7    1
     7     7     9    2
     8     7     8    1
     9     9    11    1
    10     8    10    2
    11    11    12    2
    12    10    12    1
