@<TRIPOS>MOLECULE
/home/cewinharhar/GITHUB/reincatalyze/data/processed/docking_pred/2023_Apr_20-15:07/32925d028e6f827171d23f19599134de0355568e_ligand_2.pdbqt
 12 12 0 0 0
SMALL
GASTEIGER

@<TRIPOS>ATOM
      1  C          5.4190    2.7960    0.0310 C.3     1  UNL1        0.1270
      2  C          6.1750    3.7870    0.8320 C.2     1  UNL1        0.3030
      3  O          6.1540    3.7610    2.0880 O.2     1  UNL1       -0.2520
      4  O          6.9260    4.7750    0.2150 O.3     1  UNL1       -0.4810
      5  H          7.3980    4.5660   -0.6680 H       1  UNL1        0.2960
      6  C          4.9400    1.7140    0.9500 C.3     1  UNL1        0.0470
      7  C          5.7600    0.5040    0.9240 C.2     1  UNL1       -0.0470
      8  C          6.5020    0.1820   -0.1890 C.2     1  UNL1        0.0040
      9  C          5.7860   -0.3130    2.0300 C.2     1  UNL1        0.0040
     10  C          7.2630   -0.9880   -0.1440 C.2     1  UNL1        0.0000
     11  C          6.5390   -1.4700    2.0730 C.2     1  UNL1        0.0000
     12  C          7.2850   -1.8010    0.9620 C.2     1  UNL1        0.0000
@<TRIPOS>BOND
     1     5     4    1
     2     8    10    1
     3     8     7    2
     4    10    12    2
     5     1     2    1
     6     1     6    1
     7     4     2    1
     8     2     3    2
     9     7     6    1
    10     7     9    1
    11    12    11    1
    12     9    11    2
