MODEL 1
REMARK VINA RESULT:      -7.3      0.000      0.000
REMARK SMILES O=C(O)CCc1ccccc1
REMARK SMILES IDX 4 1 2 2 1 3 3 4 5 6 6 7 7 8 11 9 8 10 10 11 9 12
REMARK H PARENT 3 5
REMARK Flexibility Score: inf
ROOT
ATOM      1  C   UNL     1       8.432  -0.631  -2.100  1.00  0.00     0.127 C 
ENDROOT
BRANCH   1   2
ATOM      2  C   UNL     1       8.471  -1.884  -2.889  1.00  0.00     0.303 C 
ATOM      3  O   UNL     1       9.553  -2.487  -3.101  1.00  0.00    -0.252 OA
BRANCH   2   4
ATOM      4  O   UNL     1       7.311  -2.427  -3.418  1.00  0.00    -0.481 OA
ATOM      5  H   UNL     1       6.996  -2.130  -4.345  1.00  0.00     0.296 HD
ENDBRANCH   2   4
ENDBRANCH   1   2
BRANCH   1   6
ATOM      6  C   UNL     1       7.021  -0.128  -2.085  1.00  0.00     0.047 C 
BRANCH   6   7
ATOM      7  C   UNL     1       6.465   0.044  -0.744  1.00  0.00    -0.047 A 
ATOM      8  C   UNL     1       6.582  -0.952   0.199  1.00  0.00     0.004 A 
ATOM      9  C   UNL     1       5.822   1.219  -0.429  1.00  0.00     0.004 A 
ATOM     10  C   UNL     1       6.028  -0.719   1.460  1.00  0.00     0.000 A 
ATOM     11  C   UNL     1       5.275   1.447   0.818  1.00  0.00     0.000 A 
ATOM     12  C   UNL     1       5.387   0.455   1.768  1.00  0.00     0.000 A 
ENDBRANCH   6   7
ENDBRANCH   1   6
TORSDOF 4
ENDMDL
MODEL 2
REMARK VINA RESULT:      -7.3      0.123      1.732
REMARK SMILES O=C(O)CCc1ccccc1
REMARK SMILES IDX 4 1 2 2 1 3 3 4 5 6 6 7 7 8 11 9 8 10 10 11 9 12
REMARK H PARENT 3 5
REMARK Flexibility Score: inf
ROOT
ATOM      1  C   UNL     1       8.401  -0.630  -2.108  1.00  0.00     0.127 C 
ENDROOT
BRANCH   1   2
ATOM      2  C   UNL     1       8.368  -1.887  -2.891  1.00  0.00     0.303 C 
ATOM      3  O   UNL     1       7.279  -2.402  -3.249  1.00  0.00    -0.252 OA
BRANCH   2   4
ATOM      4  O   UNL     1       9.540  -2.531  -3.251  1.00  0.00    -0.481 OA
ATOM      5  H   UNL     1      10.134  -2.935  -2.522  1.00  0.00     0.296 HD
ENDBRANCH   2   4
ENDBRANCH   1   2
BRANCH   1   6
ATOM      6  C   UNL     1       7.018  -0.053  -2.083  1.00  0.00     0.047 C 
BRANCH   6   7
ATOM      7  C   UNL     1       6.461   0.096  -0.740  1.00  0.00    -0.047 A 
ATOM      8  C   UNL     1       5.816   1.254  -0.370  1.00  0.00     0.004 A 
ATOM      9  C   UNL     1       6.584  -0.940   0.157  1.00  0.00     0.004 A 
ATOM     10  C   UNL     1       5.307   1.327   0.928  1.00  0.00     0.000 A 
ATOM     11  C   UNL     1       6.081  -0.866   1.441  1.00  0.00     0.000 A 
ATOM     12  C   UNL     1       5.434   0.291   1.819  1.00  0.00     0.000 A 
ENDBRANCH   6   7
ENDBRANCH   1   6
TORSDOF 4
ENDMDL
MODEL 3
REMARK VINA RESULT:      -6.8      3.361      5.077
REMARK SMILES O=C(O)CCc1ccccc1
REMARK SMILES IDX 4 1 2 2 1 3 3 4 5 6 6 7 7 8 11 9 8 10 10 11 9 12
REMARK H PARENT 3 5
REMARK Flexibility Score: inf
ROOT
ATOM      1  C   UNL     1       5.057   1.760   0.697  1.00  0.00     0.127 C 
ENDROOT
BRANCH   1   2
ATOM      2  C   UNL     1       4.507   1.100   1.904  1.00  0.00     0.303 C 
ATOM      3  O   UNL     1       5.135   0.182   2.488  1.00  0.00    -0.252 OA
BRANCH   2   4
ATOM      4  O   UNL     1       3.279   1.479   2.423  1.00  0.00    -0.481 OA
ATOM      5  H   UNL     1       3.186   1.628   3.431  1.00  0.00     0.296 HD
ENDBRANCH   2   4
ENDBRANCH   1   2
BRANCH   1   6
ATOM      6  C   UNL     1       6.553   1.704   0.771  1.00  0.00     0.047 C 
BRANCH   6   7
ATOM      7  C   UNL     1       7.176   0.966  -0.326  1.00  0.00    -0.047 A 
ATOM      8  C   UNL     1       8.480   1.212  -0.689  1.00  0.00     0.004 A 
ATOM      9  C   UNL     1       6.442   0.014  -0.997  1.00  0.00     0.004 A 
ATOM     10  C   UNL     1       9.010   0.468  -1.745  1.00  0.00     0.000 A 
ATOM     11  C   UNL     1       6.968  -0.719  -2.041  1.00  0.00     0.000 A 
ATOM     12  C   UNL     1       8.273  -0.479  -2.411  1.00  0.00     0.000 A 
ENDBRANCH   6   7
ENDBRANCH   1   6
TORSDOF 4
ENDMDL
MODEL 4
REMARK VINA RESULT:      -6.6      3.802      4.998
REMARK SMILES O=C(O)CCc1ccccc1
REMARK SMILES IDX 4 1 2 2 1 3 3 4 5 6 6 7 7 8 11 9 8 10 10 11 9 12
REMARK H PARENT 3 5
REMARK Flexibility Score: inf
ROOT
ATOM      1  C   UNL     1       5.419   2.796   0.031  1.00  0.00     0.127 C 
ENDROOT
BRANCH   1   2
ATOM      2  C   UNL     1       6.175   3.787   0.832  1.00  0.00     0.303 C 
ATOM      3  O   UNL     1       6.154   3.761   2.088  1.00  0.00    -0.252 OA
BRANCH   2   4
ATOM      4  O   UNL     1       6.926   4.775   0.215  1.00  0.00    -0.481 OA
ATOM      5  H   UNL     1       7.398   4.566  -0.668  1.00  0.00     0.296 HD
ENDBRANCH   2   4
ENDBRANCH   1   2
BRANCH   1   6
ATOM      6  C   UNL     1       4.940   1.714   0.950  1.00  0.00     0.047 C 
BRANCH   6   7
ATOM      7  C   UNL     1       5.760   0.504   0.924  1.00  0.00    -0.047 A 
ATOM      8  C   UNL     1       6.502   0.182  -0.189  1.00  0.00     0.004 A 
ATOM      9  C   UNL     1       5.786  -0.313   2.030  1.00  0.00     0.004 A 
ATOM     10  C   UNL     1       7.263  -0.988  -0.144  1.00  0.00     0.000 A 
ATOM     11  C   UNL     1       6.539  -1.470   2.073  1.00  0.00     0.000 A 
ATOM     12  C   UNL     1       7.285  -1.801   0.962  1.00  0.00     0.000 A 
ENDBRANCH   6   7
ENDBRANCH   1   6
TORSDOF 4
ENDMDL
MODEL 5
REMARK VINA RESULT:      -6.6      1.926      2.652
REMARK SMILES O=C(O)CCc1ccccc1
REMARK SMILES IDX 4 1 2 2 1 3 3 4 5 6 6 7 7 8 11 9 8 10 10 11 9 12
REMARK H PARENT 3 5
REMARK Flexibility Score: inf
ROOT
ATOM      1  C   UNL     1       8.286   0.273  -2.202  1.00  0.00     0.127 C 
ENDROOT
BRANCH   1   2
ATOM      2  C   UNL     1       9.391   0.366  -1.219  1.00  0.00     0.303 C 
ATOM      3  O   UNL     1       9.453  -0.411  -0.234  1.00  0.00    -0.252 OA
BRANCH   2   4
ATOM      4  O   UNL     1      10.390   1.315  -1.362  1.00  0.00    -0.481 OA
ATOM      5  H   UNL     1      10.238   2.113  -1.985  1.00  0.00     0.296 HD
ENDBRANCH   2   4
ENDBRANCH   1   2
BRANCH   1   6
ATOM      6  C   UNL     1       7.154  -0.477  -1.568  1.00  0.00     0.047 C 
BRANCH   6   7
ATOM      7  C   UNL     1       6.359   0.322  -0.637  1.00  0.00    -0.047 A 
ATOM      8  C   UNL     1       5.827   1.530  -1.023  1.00  0.00     0.004 A 
ATOM      9  C   UNL     1       6.145  -0.148   0.638  1.00  0.00     0.004 A 
ATOM     10  C   UNL     1       5.077   2.239  -0.082  1.00  0.00     0.000 A 
ATOM     11  C   UNL     1       5.404   0.554   1.568  1.00  0.00     0.000 A 
ATOM     12  C   UNL     1       4.868   1.765   1.189  1.00  0.00     0.000 A 
ENDBRANCH   6   7
ENDBRANCH   1   6
TORSDOF 4
ENDMDL
