@<TRIPOS>MOLECULE
/home/cewinharhar/GITHUB/reincatalyze/data/processed/docking_pred/2023_Apr_20-15:07/32925d028e6f827171d23f19599134de0355568e_ligand_2.pdbqt
 12 12 0 0 0
SMALL
GASTEIGER

@<TRIPOS>ATOM
      1  C          8.2860    0.2730   -2.2020 C.3     1  UNL1        0.1270
      2  C          9.3910    0.3660   -1.2190 C.2     1  UNL1        0.3030
      3  O          9.4530   -0.4110   -0.2340 O.2     1  UNL1       -0.2520
      4  O         10.3900    1.3150   -1.3620 O.3     1  UNL1       -0.4810
      5  H         10.2380    2.1130   -1.9850 H       1  UNL1        0.2960
      6  C          7.1540   -0.4770   -1.5680 C.3     1  UNL1        0.0470
      7  C          6.3590    0.3220   -0.6370 C.2     1  UNL1       -0.0470
      8  C          5.8270    1.5300   -1.0230 C.2     1  UNL1        0.0040
      9  C          6.1450   -0.1480    0.6380 C.2     1  UNL1        0.0040
     10  C          5.0770    2.2390   -0.0820 C.2     1  UNL1        0.0000
     11  C          5.4040    0.5540    1.5680 C.2     1  UNL1        0.0000
     12  C          4.8680    1.7650    1.1890 C.2     1  UNL1        0.0000
@<TRIPOS>BOND
     1     1     6    1
     2     1     2    1
     3     5     4    1
     4     6     7    1
     5     4     2    1
     6     2     3    2
     7     8     7    2
     8     8    10    1
     9     7     9    1
    10    10    12    2
    11     9    11    2
    12    12    11    1
