MODEL 1
REMARK VINA RESULT:      -7.3      0.000      0.000
REMARK SMILES O=C(O)CCc1ccccc1
REMARK SMILES IDX 4 1 2 2 1 3 3 4 5 6 6 7 7 8 11 9 8 10 10 11 9 12
REMARK H PARENT 3 5
REMARK Flexibility Score: inf
ROOT
ATOM      1  C   UNL     1       8.416  -0.668  -2.063  1.00  0.00     0.127 C 
ENDROOT
BRANCH   1   2
ATOM      2  C   UNL     1       8.369  -1.906  -2.877  1.00  0.00     0.303 C 
ATOM      3  O   UNL     1       7.275  -2.398  -3.248  1.00  0.00    -0.252 OA
BRANCH   2   4
ATOM      4  O   UNL     1       9.534  -2.556  -3.249  1.00  0.00    -0.481 OA
ATOM      5  H   UNL     1       9.473  -3.439  -3.764  1.00  0.00     0.296 HD
ENDBRANCH   2   4
ENDBRANCH   1   2
BRANCH   1   6
ATOM      6  C   UNL     1       7.054  -0.044  -2.074  1.00  0.00     0.047 C 
BRANCH   6   7
ATOM      7  C   UNL     1       6.469   0.129  -0.746  1.00  0.00    -0.047 A 
ATOM      8  C   UNL     1       5.806   1.289  -0.415  1.00  0.00     0.004 A 
ATOM      9  C   UNL     1       6.586  -0.884   0.177  1.00  0.00     0.004 A 
ATOM     10  C   UNL     1       5.272   1.386   0.871  1.00  0.00     0.000 A 
ATOM     11  C   UNL     1       6.057  -0.787   1.449  1.00  0.00     0.000 A 
ATOM     12  C   UNL     1       5.392   0.372   1.788  1.00  0.00     0.000 A 
ENDBRANCH   6   7
ENDBRANCH   1   6
TORSDOF 4
ENDMDL
MODEL 2
REMARK VINA RESULT:      -7.3      0.065      1.438
REMARK SMILES O=C(O)CCc1ccccc1
REMARK SMILES IDX 4 1 2 2 1 3 3 4 5 6 6 7 7 8 11 9 8 10 10 11 9 12
REMARK H PARENT 3 5
REMARK Flexibility Score: inf
ROOT
ATOM      1  C   UNL     1       8.428  -0.626  -2.121  1.00  0.00     0.127 C 
ENDROOT
BRANCH   1   2
ATOM      2  C   UNL     1       8.384  -1.893  -2.888  1.00  0.00     0.303 C 
ATOM      3  O   UNL     1       7.291  -2.408  -3.232  1.00  0.00    -0.252 OA
BRANCH   2   4
ATOM      4  O   UNL     1       9.551  -2.547  -3.246  1.00  0.00    -0.481 OA
ATOM      5  H   UNL     1       9.731  -3.487  -2.882  1.00  0.00     0.296 HD
ENDBRANCH   2   4
ENDBRANCH   1   2
BRANCH   1   6
ATOM      6  C   UNL     1       7.050  -0.038  -2.103  1.00  0.00     0.047 C 
BRANCH   6   7
ATOM      7  C   UNL     1       6.484   0.109  -0.763  1.00  0.00    -0.047 A 
ATOM      8  C   UNL     1       6.622  -0.890   0.172  1.00  0.00     0.004 A 
ATOM      9  C   UNL     1       5.809   1.264  -0.443  1.00  0.00     0.004 A 
ATOM     10  C   UNL     1       6.056  -0.681   1.432  1.00  0.00     0.000 A 
ATOM     11  C   UNL     1       5.251   1.469   0.803  1.00  0.00     0.000 A 
ATOM     12  C   UNL     1       5.384   0.473   1.746  1.00  0.00     0.000 A 
ENDBRANCH   6   7
ENDBRANCH   1   6
TORSDOF 4
ENDMDL
MODEL 3
REMARK VINA RESULT:      -6.8      3.302      5.144
REMARK SMILES O=C(O)CCc1ccccc1
REMARK SMILES IDX 4 1 2 2 1 3 3 4 5 6 6 7 7 8 11 9 8 10 10 11 9 12
REMARK H PARENT 3 5
REMARK Flexibility Score: inf
ROOT
ATOM      1  C   UNL     1       5.014   1.832   0.720  1.00  0.00     0.127 C 
ENDROOT
BRANCH   1   2
ATOM      2  C   UNL     1       4.490   1.122   1.911  1.00  0.00     0.303 C 
ATOM      3  O   UNL     1       5.143   0.199   2.458  1.00  0.00    -0.252 OA
BRANCH   2   4
ATOM      4  O   UNL     1       3.260   1.458   2.454  1.00  0.00    -0.481 OA
ATOM      5  H   UNL     1       2.925   0.958   3.282  1.00  0.00     0.296 HD
ENDBRANCH   2   4
ENDBRANCH   1   2
BRANCH   1   6
ATOM      6  C   UNL     1       6.511   1.784   0.766  1.00  0.00     0.047 C 
BRANCH   6   7
ATOM      7  C   UNL     1       7.116   1.033  -0.333  1.00  0.00    -0.047 A 
ATOM      8  C   UNL     1       6.368   0.149  -1.075  1.00  0.00     0.004 A 
ATOM      9  C   UNL     1       8.448   1.221  -0.622  1.00  0.00     0.004 A 
ATOM     10  C   UNL     1       7.011  -0.534  -2.111  1.00  0.00     0.000 A 
ATOM     11  C   UNL     1       9.081   0.545  -1.645  1.00  0.00     0.000 A 
ATOM     12  C   UNL     1       8.340  -0.343  -2.393  1.00  0.00     0.000 A 
ENDBRANCH   6   7
ENDBRANCH   1   6
TORSDOF 4
ENDMDL
MODEL 4
REMARK VINA RESULT:      -6.6      1.966      2.190
REMARK SMILES O=C(O)CCc1ccccc1
REMARK SMILES IDX 4 1 2 2 1 3 3 4 5 6 6 7 7 8 11 9 8 10 10 11 9 12
REMARK H PARENT 3 5
REMARK Flexibility Score: inf
ROOT
ATOM      1  C   UNL     1       8.192   0.189  -2.008  1.00  0.00     0.127 C 
ENDROOT
BRANCH   1   2
ATOM      2  C   UNL     1       9.371   0.329  -1.121  1.00  0.00     0.303 C 
ATOM      3  O   UNL     1       9.509  -0.393  -0.103  1.00  0.00    -0.252 OA
BRANCH   2   4
ATOM      4  O   UNL     1      10.358   1.263  -1.393  1.00  0.00    -0.481 OA
ATOM      5  H   UNL     1      10.282   2.202  -0.993  1.00  0.00     0.296 HD
ENDBRANCH   2   4
ENDBRANCH   1   2
BRANCH   1   6
ATOM      6  C   UNL     1       7.179  -0.668  -1.313  1.00  0.00     0.047 C 
BRANCH   6   7
ATOM      7  C   UNL     1       6.372   0.048  -0.326  1.00  0.00    -0.047 A 
ATOM      8  C   UNL     1       5.851   1.289  -0.610  1.00  0.00     0.004 A 
ATOM      9  C   UNL     1       6.133  -0.536   0.897  1.00  0.00     0.004 A 
ATOM     10  C   UNL     1       5.088   1.914   0.379  1.00  0.00     0.000 A 
ATOM     11  C   UNL     1       5.379   0.084   1.873  1.00  0.00     0.000 A 
ATOM     12  C   UNL     1       4.854   1.328   1.597  1.00  0.00     0.000 A 
ENDBRANCH   6   7
ENDBRANCH   1   6
TORSDOF 4
ENDMDL
MODEL 5
REMARK VINA RESULT:      -6.5      1.895      2.904
REMARK SMILES O=C(O)CCc1ccccc1
REMARK SMILES IDX 4 1 2 2 1 3 3 4 5 6 6 7 7 8 11 9 8 10 10 11 9 12
REMARK H PARENT 3 5
REMARK Flexibility Score: inf
ROOT
ATOM      1  C   UNL     1       8.238  -1.518   1.039  1.00  0.00     0.127 C 
ENDROOT
BRANCH   1   2
ATOM      2  C   UNL     1       8.491  -2.776   0.298  1.00  0.00     0.303 C 
ATOM      3  O   UNL     1       9.103  -3.734   0.831  1.00  0.00    -0.252 OA
BRANCH   2   4
ATOM      4  O   UNL     1       8.058  -2.929  -1.010  1.00  0.00    -0.481 OA
ATOM      5  H   UNL     1       7.416  -3.693  -1.239  1.00  0.00     0.296 HD
ENDBRANCH   2   4
ENDBRANCH   1   2
BRANCH   1   6
ATOM      6  C   UNL     1       6.759  -1.371   1.227  1.00  0.00     0.047 C 
BRANCH   6   7
ATOM      7  C   UNL     1       6.210  -0.130   0.682  1.00  0.00    -0.047 A 
ATOM      8  C   UNL     1       6.454   0.234  -0.622  1.00  0.00     0.004 A 
ATOM      9  C   UNL     1       5.441   0.675   1.490  1.00  0.00     0.004 A 
ATOM     10  C   UNL     1       5.898   1.432  -1.075  1.00  0.00     0.000 A 
ATOM     11  C   UNL     1       4.892   1.859   1.040  1.00  0.00     0.000 A 
ATOM     12  C   UNL     1       5.132   2.232  -0.265  1.00  0.00     0.000 A 
ENDBRANCH   6   7
ENDBRANCH   1   6
TORSDOF 4
ENDMDL
