@<TRIPOS>MOLECULE
/home/cewinharhar/GITHUB/reincatalyze/data/processed/docking_pred/2023_Apr_20-15:07/354626f0a3e222b5e9865005b72eb67019ec4e19_ligand_2.pdbqt
 12 12 0 0 0
SMALL
GASTEIGER

@<TRIPOS>ATOM
      1  C          8.2380   -1.5180    1.0390 C.3     1  UNL1        0.1270
      2  C          8.4910   -2.7760    0.2980 C.2     1  UNL1        0.3030
      3  O          9.1030   -3.7340    0.8310 O.2     1  UNL1       -0.2520
      4  O          8.0580   -2.9290   -1.0100 O.3     1  UNL1       -0.4810
      5  H          7.4160   -3.6930   -1.2390 H       1  UNL1        0.2960
      6  C          6.7590   -1.3710    1.2270 C.3     1  UNL1        0.0470
      7  C          6.2100   -0.1300    0.6820 C.2     1  UNL1       -0.0470
      8  C          6.4540    0.2340   -0.6220 C.2     1  UNL1        0.0040
      9  C          5.4410    0.6750    1.4900 C.2     1  UNL1        0.0040
     10  C          5.8980    1.4320   -1.0750 C.2     1  UNL1        0.0000
     11  C          4.8920    1.8590    1.0400 C.2     1  UNL1        0.0000
     12  C          5.1320    2.2320   -0.2650 C.2     1  UNL1        0.0000
@<TRIPOS>BOND
     1     5     4    1
     2    10     8    1
     3    10    12    2
     4     4     2    1
     5     8     7    2
     6    12    11    1
     7     2     3    2
     8     2     1    1
     9     7     6    1
    10     7     9    1
    11     1     6    1
    12    11     9    2
