@<TRIPOS>MOLECULE
/home/cewinharhar/GITHUB/reincatalyze/data/processed/docking_pred/2023_Apr_20-15:07/354626f0a3e222b5e9865005b72eb67019ec4e19_ligand_2.pdbqt
 12 12 0 0 0
SMALL
GASTEIGER

@<TRIPOS>ATOM
      1  C          8.1920    0.1890   -2.0080 C.3     1  UNL1        0.1270
      2  C          9.3710    0.3290   -1.1210 C.2     1  UNL1        0.3030
      3  O          9.5090   -0.3930   -0.1030 O.2     1  UNL1       -0.2520
      4  O         10.3580    1.2630   -1.3930 O.3     1  UNL1       -0.4810
      5  H         10.2820    2.2020   -0.9930 H       1  UNL1        0.2960
      6  C          7.1790   -0.6680   -1.3130 C.3     1  UNL1        0.0470
      7  C          6.3720    0.0480   -0.3260 C.2     1  UNL1       -0.0470
      8  C          5.8510    1.2890   -0.6100 C.2     1  UNL1        0.0040
      9  C          6.1330   -0.5360    0.8970 C.2     1  UNL1        0.0040
     10  C          5.0880    1.9140    0.3790 C.2     1  UNL1        0.0000
     11  C          5.3790    0.0840    1.8730 C.2     1  UNL1        0.0000
     12  C          4.8540    1.3280    1.5970 C.2     1  UNL1        0.0000
@<TRIPOS>BOND
     1     1     6    1
     2     1     2    1
     3     4     2    1
     4     4     5    1
     5     6     7    1
     6     2     3    2
     7     8     7    2
     8     8    10    1
     9     7     9    1
    10    10    12    2
    11     9    11    2
    12    12    11    1
