@<TRIPOS>MOLECULE
/home/cewinharhar/GITHUB/reincatalyze/data/processed/docking_pred/2023_Apr_20-15:07/354626f0a3e222b5e9865005b72eb67019ec4e19_ligand_2.pdbqt
 12 12 0 0 0
SMALL
GASTEIGER

@<TRIPOS>ATOM
      1  C          5.0140    1.8320    0.7200 C.3     1  UNL1        0.1270
      2  C          4.4900    1.1220    1.9110 C.2     1  UNL1        0.3030
      3  O          5.1430    0.1990    2.4580 O.2     1  UNL1       -0.2520
      4  O          3.2600    1.4580    2.4540 O.3     1  UNL1       -0.4810
      5  H          2.9250    0.9580    3.2820 H       1  UNL1        0.2960
      6  C          6.5110    1.7840    0.7660 C.3     1  UNL1        0.0470
      7  C          7.1160    1.0330   -0.3330 C.2     1  UNL1       -0.0470
      8  C          6.3680    0.1490   -1.0750 C.2     1  UNL1        0.0040
      9  C          8.4480    1.2210   -0.6220 C.2     1  UNL1        0.0040
     10  C          7.0110   -0.5340   -2.1110 C.2     1  UNL1        0.0000
     11  C          9.0810    0.5450   -1.6450 C.2     1  UNL1        0.0000
     12  C          8.3400   -0.3430   -2.3930 C.2     1  UNL1        0.0000
@<TRIPOS>BOND
     1    12    10    2
     2    12    11    1
     3    10     8    1
     4    11     9    2
     5     8     7    2
     6     9     7    1
     7     7     6    1
     8     1     6    1
     9     1     2    1
    10     2     4    1
    11     2     3    2
    12     4     5    1
