@<TRIPOS>MOLECULE
/home/cewinharhar/GITHUB/reincatalyze/data/processed/docking_pred/2023_Apr_20-15:07/354626f0a3e222b5e9865005b72eb67019ec4e19_ligand_2.pdbqt
 12 12 0 0 0
SMALL
GASTEIGER

@<TRIPOS>ATOM
      1  C          8.4160   -0.6680   -2.0630 C.3     1  UNL1        0.1270
      2  C          8.3690   -1.9060   -2.8770 C.2     1  UNL1        0.3030
      3  O          7.2750   -2.3980   -3.2480 O.2     1  UNL1       -0.2520
      4  O          9.5340   -2.5560   -3.2490 O.3     1  UNL1       -0.4810
      5  H          9.4730   -3.4390   -3.7640 H       1  UNL1        0.2960
      6  C          7.0540   -0.0440   -2.0740 C.3     1  UNL1        0.0470
      7  C          6.4690    0.1290   -0.7460 C.2     1  UNL1       -0.0470
      8  C          5.8060    1.2890   -0.4150 C.2     1  UNL1        0.0040
      9  C          6.5860   -0.8840    0.1770 C.2     1  UNL1        0.0040
     10  C          5.2720    1.3860    0.8710 C.2     1  UNL1        0.0000
     11  C          6.0570   -0.7870    1.4490 C.2     1  UNL1        0.0000
     12  C          5.3920    0.3720    1.7880 C.2     1  UNL1        0.0000
@<TRIPOS>BOND
     1     5     4    1
     2     4     2    1
     3     3     2    2
     4     2     1    1
     5     6     1    1
     6     6     7    1
     7     7     8    2
     8     7     9    1
     9     8    10    1
    10     9    11    2
    11    10    12    2
    12    11    12    1
