@<TRIPOS>MOLECULE
/home/cewinharhar/GITHUB/reincatalyze/data/processed/docking_pred/2023_Apr_20-15:07/36543b95c0c748273319382419c31c9b55863a9a_ligand_2.pdbqt
 12 12 0 0 0
SMALL
GASTEIGER

@<TRIPOS>ATOM
      1  C          5.0340    1.7320    0.6930 C.3     1  UNL1        0.1270
      2  C          4.5880    1.0360    1.9230 C.2     1  UNL1        0.3030
      3  O          5.3130    0.1770    2.4830 O.2     1  UNL1       -0.2520
      4  O          3.3550    1.3160    2.4900 O.3     1  UNL1       -0.4810
      5  H          2.5300    1.3790    1.8870 H       1  UNL1        0.2960
      6  C          6.5310    1.8070    0.7100 C.3     1  UNL1        0.0470
      7  C          7.1760    1.0520   -0.3630 C.2     1  UNL1       -0.0470
      8  C          8.5130    1.2220   -0.6360 C.2     1  UNL1        0.0040
      9  C          6.4300    0.1620   -1.1000 C.2     1  UNL1        0.0040
     10  C          9.0640    0.4670   -1.6740 C.2     1  UNL1        0.0000
     11  C          6.9750   -0.5830   -2.1270 C.2     1  UNL1        0.0000
     12  C          8.3140   -0.4180   -2.4080 C.2     1  UNL1        0.0000
@<TRIPOS>BOND
     1    12    11    2
     2    12    10    1
     3    11     9    1
     4    10     8    2
     5     9     7    2
     6     8     7    1
     7     7     6    1
     8     1     6    1
     9     1     2    1
    10     5     4    1
    11     2     3    2
    12     2     4    1
