@<TRIPOS>MOLECULE
/home/cewinharhar/GITHUB/reincatalyze/data/processed/docking_pred/2023_Apr_20-15:07/36543b95c0c748273319382419c31c9b55863a9a_ligand_2.pdbqt
 12 12 0 0 0
SMALL
GASTEIGER

@<TRIPOS>ATOM
      1  C          5.3410    2.9670    0.0520 C.3     1  UNL1        0.1270
      2  C          6.2180    3.8710    0.8330 C.2     1  UNL1        0.3030
      3  O          6.8860    4.7750    0.2720 O.2     1  UNL1       -0.2520
      4  O          6.3270    3.7410    2.2080 O.3     1  UNL1       -0.4810
      5  H          6.6300    2.8470    2.6050 H       1  UNL1        0.2960
      6  C          5.2090    1.6760    0.8010 C.3     1  UNL1        0.0470
      7  C          5.9890    0.5780    0.2340 C.2     1  UNL1       -0.0470
      8  C          6.3830   -0.4820    1.0170 C.2     1  UNL1        0.0040
      9  C          6.3280    0.6130   -1.0990 C.2     1  UNL1        0.0040
     10  C          7.1260   -1.4970    0.4080 C.2     1  UNL1        0.0000
     11  C          7.0620   -0.3910   -1.6990 C.2     1  UNL1        0.0000
     12  C          7.4610   -1.4560   -0.9220 C.2     1  UNL1        0.0000
@<TRIPOS>BOND
     1    11     9    1
     2    11    12    2
     3     9     7    2
     4    12    10    1
     5     1     6    1
     6     1     2    1
     7     7     6    1
     8     7     8    1
     9     3     2    2
    10    10     8    2
    11     2     4    1
    12     4     5    1
