@<TRIPOS>MOLECULE
/home/cewinharhar/GITHUB/reincatalyze/data/processed/docking_pred/2023_Apr_20-15:07/36543b95c0c748273319382419c31c9b55863a9a_ligand_2.pdbqt
 12 12 0 0 0
SMALL
GASTEIGER

@<TRIPOS>ATOM
      1  C          8.3410   -1.0610   -1.6550 C.3     1  UNL1        0.1270
      2  C          8.4590   -2.0300   -2.7690 C.2     1  UNL1        0.3030
      3  O          9.5790   -2.4620   -3.1410 O.2     1  UNL1       -0.2520
      4  O          7.3330   -2.4880   -3.4350 O.3     1  UNL1       -0.4810
      5  H          6.4310   -2.4890   -2.9510 H       1  UNL1        0.2960
      6  C          7.2140   -1.4980   -0.7690 C.3     1  UNL1        0.0470
      7  C          6.4770   -0.3940   -0.1570 C.2     1  UNL1       -0.0470
      8  C          6.0740   -0.4600    1.1570 C.2     1  UNL1        0.0040
      9  C          6.1900    0.7210   -0.9100 C.2     1  UNL1        0.0040
     10  C          5.3750    0.6320    1.6760 C.2     1  UNL1        0.0000
     11  C          5.4980    1.8000   -0.3950 C.2     1  UNL1        0.0000
     12  C          5.0900    1.7410    0.9200 C.2     1  UNL1        0.0000
@<TRIPOS>BOND
     1     4     5    1
     2     4     2    1
     3     3     2    2
     4     2     1    1
     5     1     6    1
     6     9    11    1
     7     9     7    2
     8     6     7    1
     9    11    12    2
    10     7     8    1
    11    12    10    1
    12     8    10    2
