@<TRIPOS>MOLECULE
/home/cewinharhar/GITHUB/reincatalyze/data/processed/docking_pred/2023_Apr_20-15:07/36543b95c0c748273319382419c31c9b55863a9a_ligand_2.pdbqt
 12 12 0 0 0
SMALL
GASTEIGER

@<TRIPOS>ATOM
      1  C          8.3910   -0.5820   -2.1750 C.3     1  UNL1        0.1270
      2  C          8.3690   -1.8790   -2.8920 C.2     1  UNL1        0.3030
      3  O          7.2850   -2.4150   -3.2330 O.2     1  UNL1       -0.2520
      4  O          9.5470   -2.5360   -3.2060 O.3     1  UNL1       -0.4810
      5  H          9.6050   -3.0720   -4.0770 H       1  UNL1        0.2960
      6  C          6.9900   -0.0520   -2.1160 C.3     1  UNL1        0.0470
      7  C          6.4590    0.0720   -0.7600 C.2     1  UNL1       -0.0470
      8  C          6.6060   -0.9490    0.1500 C.2     1  UNL1        0.0040
      9  C          5.8070    1.2280   -0.3980 C.2     1  UNL1        0.0040
     10  C          6.0740   -0.7610    1.4270 C.2     1  UNL1        0.0000
     11  C          5.2810    1.4120    0.8660 C.2     1  UNL1        0.0000
     12  C          5.4240    0.3940    1.7830 C.2     1  UNL1        0.0000
@<TRIPOS>BOND
     1     5     4    1
     2     3     2    2
     3     4     2    1
     4     2     1    1
     5     1     6    1
     6     6     7    1
     7     7     9    2
     8     7     8    1
     9     9    11    1
    10     8    10    2
    11    11    12    2
    12    10    12    1
