MODEL 1
REMARK VINA RESULT:      -7.3      0.000      0.000
REMARK SMILES O=C(O)CCc1ccccc1
REMARK SMILES IDX 4 1 2 2 1 3 3 4 5 6 6 7 7 8 11 9 8 10 10 11 9 12
REMARK H PARENT 3 5
REMARK Flexibility Score: inf
ROOT
ATOM      1  C   UNL     1       8.412  -0.622  -2.152  1.00  0.00     0.127 C 
ENDROOT
BRANCH   1   2
ATOM      2  C   UNL     1       8.459  -1.893  -2.913  1.00  0.00     0.303 C 
ATOM      3  O   UNL     1       9.543  -2.498  -3.103  1.00  0.00    -0.252 OA
BRANCH   2   4
ATOM      4  O   UNL     1       7.304  -2.450  -3.438  1.00  0.00    -0.481 OA
ATOM      5  H   UNL     1       6.413  -2.303  -2.956  1.00  0.00     0.296 HD
ENDBRANCH   2   4
ENDBRANCH   1   2
BRANCH   1   6
ATOM      6  C   UNL     1       6.992  -0.142  -2.125  1.00  0.00     0.047 C 
BRANCH   6   7
ATOM      7  C   UNL     1       6.457   0.055  -0.780  1.00  0.00    -0.047 A 
ATOM      8  C   UNL     1       5.828   1.230  -0.438  1.00  0.00     0.004 A 
ATOM      9  C   UNL     1       6.586  -0.951   0.149  1.00  0.00     0.004 A 
ATOM     10  C   UNL     1       5.340   1.350   0.865  1.00  0.00     0.000 A 
ATOM     11  C   UNL     1       6.103  -0.832   1.437  1.00  0.00     0.000 A 
ATOM     12  C   UNL     1       5.473   0.343   1.787  1.00  0.00     0.000 A 
ENDBRANCH   6   7
ENDBRANCH   1   6
TORSDOF 4
ENDMDL
MODEL 2
REMARK VINA RESULT:      -7.2      0.094      1.731
REMARK SMILES O=C(O)CCc1ccccc1
REMARK SMILES IDX 4 1 2 2 1 3 3 4 5 6 6 7 7 8 11 9 8 10 10 11 9 12
REMARK H PARENT 3 5
REMARK Flexibility Score: inf
ROOT
ATOM      1  C   UNL     1       8.391  -0.582  -2.175  1.00  0.00     0.127 C 
ENDROOT
BRANCH   1   2
ATOM      2  C   UNL     1       8.369  -1.879  -2.892  1.00  0.00     0.303 C 
ATOM      3  O   UNL     1       7.285  -2.415  -3.233  1.00  0.00    -0.252 OA
BRANCH   2   4
ATOM      4  O   UNL     1       9.547  -2.536  -3.206  1.00  0.00    -0.481 OA
ATOM      5  H   UNL     1       9.605  -3.072  -4.077  1.00  0.00     0.296 HD
ENDBRANCH   2   4
ENDBRANCH   1   2
BRANCH   1   6
ATOM      6  C   UNL     1       6.990  -0.052  -2.116  1.00  0.00     0.047 C 
BRANCH   6   7
ATOM      7  C   UNL     1       6.459   0.072  -0.760  1.00  0.00    -0.047 A 
ATOM      8  C   UNL     1       6.606  -0.949   0.150  1.00  0.00     0.004 A 
ATOM      9  C   UNL     1       5.807   1.228  -0.398  1.00  0.00     0.004 A 
ATOM     10  C   UNL     1       6.074  -0.761   1.427  1.00  0.00     0.000 A 
ATOM     11  C   UNL     1       5.281   1.412   0.866  1.00  0.00     0.000 A 
ATOM     12  C   UNL     1       5.424   0.394   1.783  1.00  0.00     0.000 A 
ENDBRANCH   6   7
ENDBRANCH   1   6
TORSDOF 4
ENDMDL
MODEL 3
REMARK VINA RESULT:      -7.1      0.693      1.624
REMARK SMILES O=C(O)CCc1ccccc1
REMARK SMILES IDX 4 1 2 2 1 3 3 4 5 6 6 7 7 8 11 9 8 10 10 11 9 12
REMARK H PARENT 3 5
REMARK Flexibility Score: inf
ROOT
ATOM      1  C   UNL     1       8.341  -1.061  -1.655  1.00  0.00     0.127 C 
ENDROOT
BRANCH   1   2
ATOM      2  C   UNL     1       8.459  -2.030  -2.769  1.00  0.00     0.303 C 
ATOM      3  O   UNL     1       9.579  -2.462  -3.141  1.00  0.00    -0.252 OA
BRANCH   2   4
ATOM      4  O   UNL     1       7.333  -2.488  -3.435  1.00  0.00    -0.481 OA
ATOM      5  H   UNL     1       6.431  -2.489  -2.951  1.00  0.00     0.296 HD
ENDBRANCH   2   4
ENDBRANCH   1   2
BRANCH   1   6
ATOM      6  C   UNL     1       7.214  -1.498  -0.769  1.00  0.00     0.047 C 
BRANCH   6   7
ATOM      7  C   UNL     1       6.477  -0.394  -0.157  1.00  0.00    -0.047 A 
ATOM      8  C   UNL     1       6.074  -0.460   1.157  1.00  0.00     0.004 A 
ATOM      9  C   UNL     1       6.190   0.721  -0.910  1.00  0.00     0.004 A 
ATOM     10  C   UNL     1       5.375   0.632   1.676  1.00  0.00     0.000 A 
ATOM     11  C   UNL     1       5.498   1.800  -0.395  1.00  0.00     0.000 A 
ATOM     12  C   UNL     1       5.090   1.741   0.920  1.00  0.00     0.000 A 
ENDBRANCH   6   7
ENDBRANCH   1   6
TORSDOF 4
ENDMDL
MODEL 4
REMARK VINA RESULT:      -6.7      3.352      5.026
REMARK SMILES O=C(O)CCc1ccccc1
REMARK SMILES IDX 4 1 2 2 1 3 3 4 5 6 6 7 7 8 11 9 8 10 10 11 9 12
REMARK H PARENT 3 5
REMARK Flexibility Score: inf
ROOT
ATOM      1  C   UNL     1       5.034   1.732   0.693  1.00  0.00     0.127 C 
ENDROOT
BRANCH   1   2
ATOM      2  C   UNL     1       4.588   1.036   1.923  1.00  0.00     0.303 C 
ATOM      3  O   UNL     1       5.313   0.177   2.483  1.00  0.00    -0.252 OA
BRANCH   2   4
ATOM      4  O   UNL     1       3.355   1.316   2.490  1.00  0.00    -0.481 OA
ATOM      5  H   UNL     1       2.530   1.379   1.887  1.00  0.00     0.296 HD
ENDBRANCH   2   4
ENDBRANCH   1   2
BRANCH   1   6
ATOM      6  C   UNL     1       6.531   1.807   0.710  1.00  0.00     0.047 C 
BRANCH   6   7
ATOM      7  C   UNL     1       7.176   1.052  -0.363  1.00  0.00    -0.047 A 
ATOM      8  C   UNL     1       8.513   1.222  -0.636  1.00  0.00     0.004 A 
ATOM      9  C   UNL     1       6.430   0.162  -1.100  1.00  0.00     0.004 A 
ATOM     10  C   UNL     1       9.064   0.467  -1.674  1.00  0.00     0.000 A 
ATOM     11  C   UNL     1       6.975  -0.583  -2.127  1.00  0.00     0.000 A 
ATOM     12  C   UNL     1       8.314  -0.418  -2.408  1.00  0.00     0.000 A 
ENDBRANCH   6   7
ENDBRANCH   1   6
TORSDOF 4
ENDMDL
MODEL 5
REMARK VINA RESULT:      -6.6      3.725      5.090
REMARK SMILES O=C(O)CCc1ccccc1
REMARK SMILES IDX 4 1 2 2 1 3 3 4 5 6 6 7 7 8 11 9 8 10 10 11 9 12
REMARK H PARENT 3 5
REMARK Flexibility Score: inf
ROOT
ATOM      1  C   UNL     1       5.341   2.967   0.052  1.00  0.00     0.127 C 
ENDROOT
BRANCH   1   2
ATOM      2  C   UNL     1       6.218   3.871   0.833  1.00  0.00     0.303 C 
ATOM      3  O   UNL     1       6.886   4.775   0.272  1.00  0.00    -0.252 OA
BRANCH   2   4
ATOM      4  O   UNL     1       6.327   3.741   2.208  1.00  0.00    -0.481 OA
ATOM      5  H   UNL     1       6.630   2.847   2.605  1.00  0.00     0.296 HD
ENDBRANCH   2   4
ENDBRANCH   1   2
BRANCH   1   6
ATOM      6  C   UNL     1       5.209   1.676   0.801  1.00  0.00     0.047 C 
BRANCH   6   7
ATOM      7  C   UNL     1       5.989   0.578   0.234  1.00  0.00    -0.047 A 
ATOM      8  C   UNL     1       6.383  -0.482   1.017  1.00  0.00     0.004 A 
ATOM      9  C   UNL     1       6.328   0.613  -1.099  1.00  0.00     0.004 A 
ATOM     10  C   UNL     1       7.126  -1.497   0.408  1.00  0.00     0.000 A 
ATOM     11  C   UNL     1       7.062  -0.391  -1.699  1.00  0.00     0.000 A 
ATOM     12  C   UNL     1       7.461  -1.456  -0.922  1.00  0.00     0.000 A 
ENDBRANCH   6   7
ENDBRANCH   1   6
TORSDOF 4
ENDMDL
