@<TRIPOS>MOLECULE
/home/cewinharhar/GITHUB/reincatalyze/data/processed/docking_pred/2023_Apr_20-15:07/36543b95c0c748273319382419c31c9b55863a9a_ligand_2.pdbqt
 12 12 0 0 0
SMALL
GASTEIGER

@<TRIPOS>ATOM
      1  C          8.4120   -0.6220   -2.1520 C.3     1  UNL1        0.1270
      2  C          8.4590   -1.8930   -2.9130 C.2     1  UNL1        0.3030
      3  O          9.5430   -2.4980   -3.1030 O.2     1  UNL1       -0.2520
      4  O          7.3040   -2.4500   -3.4380 O.3     1  UNL1       -0.4810
      5  H          6.4130   -2.3030   -2.9560 H       1  UNL1        0.2960
      6  C          6.9920   -0.1420   -2.1250 C.3     1  UNL1        0.0470
      7  C          6.4570    0.0550   -0.7800 C.2     1  UNL1       -0.0470
      8  C          5.8280    1.2300   -0.4380 C.2     1  UNL1        0.0040
      9  C          6.5860   -0.9510    0.1490 C.2     1  UNL1        0.0040
     10  C          5.3400    1.3500    0.8650 C.2     1  UNL1        0.0000
     11  C          6.1030   -0.8320    1.4370 C.2     1  UNL1        0.0000
     12  C          5.4730    0.3430    1.7870 C.2     1  UNL1        0.0000
@<TRIPOS>BOND
     1     4     5    1
     2     4     2    1
     3     3     2    2
     4     2     1    1
     5     1     6    1
     6     6     7    1
     7     7     8    2
     8     7     9    1
     9     8    10    1
    10     9    11    2
    11    10    12    2
    12    11    12    1
