MODEL 1
REMARK VINA RESULT:      -7.3      0.000      0.000
REMARK SMILES O=C(O)CCc1ccccc1
REMARK SMILES IDX 4 1 2 2 1 3 3 4 5 6 6 7 7 8 11 9 8 10 10 11 9 12
REMARK H PARENT 3 5
REMARK Flexibility Score: inf
ROOT
ATOM      1  C   UNL     1       8.453  -0.630  -2.144  1.00  0.00     0.127 C 
ENDROOT
BRANCH   1   2
ATOM      2  C   UNL     1       8.482  -1.901  -2.906  1.00  0.00     0.303 C 
ATOM      3  O   UNL     1       9.556  -2.525  -3.090  1.00  0.00    -0.252 OA
BRANCH   2   4
ATOM      4  O   UNL     1       7.320  -2.436  -3.438  1.00  0.00    -0.481 OA
ATOM      5  H   UNL     1       6.947  -2.054  -4.312  1.00  0.00     0.296 HD
ENDBRANCH   2   4
ENDBRANCH   1   2
BRANCH   1   6
ATOM      6  C   UNL     1       7.036  -0.146  -2.088  1.00  0.00     0.047 C 
BRANCH   6   7
ATOM      7  C   UNL     1       6.503  -0.022  -0.733  1.00  0.00    -0.047 A 
ATOM      8  C   UNL     1       6.664  -1.036   0.183  1.00  0.00     0.004 A 
ATOM      9  C   UNL     1       5.836   1.127  -0.377  1.00  0.00     0.004 A 
ATOM     10  C   UNL     1       6.130  -0.848   1.459  1.00  0.00     0.000 A 
ATOM     11  C   UNL     1       5.308   1.311   0.885  1.00  0.00     0.000 A 
ATOM     12  C   UNL     1       5.464   0.300   1.808  1.00  0.00     0.000 A 
ENDBRANCH   6   7
ENDBRANCH   1   6
TORSDOF 4
ENDMDL
MODEL 2
REMARK VINA RESULT:      -7.3      0.128      1.733
REMARK SMILES O=C(O)CCc1ccccc1
REMARK SMILES IDX 4 1 2 2 1 3 3 4 5 6 6 7 7 8 11 9 8 10 10 11 9 12
REMARK H PARENT 3 5
REMARK Flexibility Score: inf
ROOT
ATOM      1  C   UNL     1       8.381  -0.652  -2.067  1.00  0.00     0.127 C 
ENDROOT
BRANCH   1   2
ATOM      2  C   UNL     1       8.364  -1.895  -2.873  1.00  0.00     0.303 C 
ATOM      3  O   UNL     1       7.283  -2.409  -3.254  1.00  0.00    -0.252 OA
BRANCH   2   4
ATOM      4  O   UNL     1       9.545  -2.527  -3.230  1.00  0.00    -0.481 OA
ATOM      5  H   UNL     1      10.071  -3.043  -2.519  1.00  0.00     0.296 HD
ENDBRANCH   2   4
ENDBRANCH   1   2
BRANCH   1   6
ATOM      6  C   UNL     1       6.998  -0.077  -2.059  1.00  0.00     0.047 C 
BRANCH   6   7
ATOM      7  C   UNL     1       6.436   0.103  -0.721  1.00  0.00    -0.047 A 
ATOM      8  C   UNL     1       5.795   1.270  -0.379  1.00  0.00     0.004 A 
ATOM      9  C   UNL     1       6.554  -0.914   0.198  1.00  0.00     0.004 A 
ATOM     10  C   UNL     1       5.282   1.372   0.917  1.00  0.00     0.000 A 
ATOM     11  C   UNL     1       6.047  -0.811   1.478  1.00  0.00     0.000 A 
ATOM     12  C   UNL     1       5.403   0.355   1.830  1.00  0.00     0.000 A 
ENDBRANCH   6   7
ENDBRANCH   1   6
TORSDOF 4
ENDMDL
MODEL 3
REMARK VINA RESULT:      -6.8      3.391      5.078
REMARK SMILES O=C(O)CCc1ccccc1
REMARK SMILES IDX 4 1 2 2 1 3 3 4 5 6 6 7 7 8 11 9 8 10 10 11 9 12
REMARK H PARENT 3 5
REMARK Flexibility Score: inf
ROOT
ATOM      1  C   UNL     1       4.998   1.796   0.700  1.00  0.00     0.127 C 
ENDROOT
BRANCH   1   2
ATOM      2  C   UNL     1       4.484   1.116   1.912  1.00  0.00     0.303 C 
ATOM      3  O   UNL     1       5.144   0.210   2.479  1.00  0.00    -0.252 OA
BRANCH   2   4
ATOM      4  O   UNL     1       3.257   1.462   2.455  1.00  0.00    -0.481 OA
ATOM      5  H   UNL     1       2.492   0.783   2.437  1.00  0.00     0.296 HD
ENDBRANCH   2   4
ENDBRANCH   1   2
BRANCH   1   6
ATOM      6  C   UNL     1       6.495   1.782   0.751  1.00  0.00     0.047 C 
BRANCH   6   7
ATOM      7  C   UNL     1       7.120   1.032  -0.337  1.00  0.00    -0.047 A 
ATOM      8  C   UNL     1       6.391   0.133  -1.081  1.00  0.00     0.004 A 
ATOM      9  C   UNL     1       8.452   1.235  -0.615  1.00  0.00     0.004 A 
ATOM     10  C   UNL     1       7.052  -0.547  -2.106  1.00  0.00     0.000 A 
ATOM     11  C   UNL     1       9.104   0.562  -1.628  1.00  0.00     0.000 A 
ATOM     12  C   UNL     1       8.381  -0.341  -2.378  1.00  0.00     0.000 A 
ENDBRANCH   6   7
ENDBRANCH   1   6
TORSDOF 4
ENDMDL
MODEL 4
REMARK VINA RESULT:      -6.6      3.802      4.991
REMARK SMILES O=C(O)CCc1ccccc1
REMARK SMILES IDX 4 1 2 2 1 3 3 4 5 6 6 7 7 8 11 9 8 10 10 11 9 12
REMARK H PARENT 3 5
REMARK Flexibility Score: inf
ROOT
ATOM      1  C   UNL     1       5.537   2.912   0.008  1.00  0.00     0.127 C 
ENDROOT
BRANCH   1   2
ATOM      2  C   UNL     1       6.302   3.840   0.873  1.00  0.00     0.303 C 
ATOM      3  O   UNL     1       6.190   3.807   2.124  1.00  0.00    -0.252 OA
BRANCH   2   4
ATOM      4  O   UNL     1       7.166   4.774   0.323  1.00  0.00    -0.481 OA
ATOM      5  H   UNL     1       7.021   5.083  -0.642  1.00  0.00     0.296 HD
ENDBRANCH   2   4
ENDBRANCH   1   2
BRANCH   1   6
ATOM      6  C   UNL     1       4.989   1.813   0.866  1.00  0.00     0.047 C 
BRANCH   6   7
ATOM      7  C   UNL     1       5.792   0.591   0.851  1.00  0.00    -0.047 A 
ATOM      8  C   UNL     1       6.463   0.204  -0.286  1.00  0.00     0.004 A 
ATOM      9  C   UNL     1       5.873  -0.173   1.993  1.00  0.00     0.004 A 
ATOM     10  C   UNL     1       7.211  -0.974  -0.227  1.00  0.00     0.000 A 
ATOM     11  C   UNL     1       6.613  -1.337   2.048  1.00  0.00     0.000 A 
ATOM     12  C   UNL     1       7.288  -1.732   0.914  1.00  0.00     0.000 A 
ENDBRANCH   6   7
ENDBRANCH   1   6
TORSDOF 4
ENDMDL
MODEL 5
REMARK VINA RESULT:      -6.6      2.010      2.354
REMARK SMILES O=C(O)CCc1ccccc1
REMARK SMILES IDX 4 1 2 2 1 3 3 4 5 6 6 7 7 8 11 9 8 10 10 11 9 12
REMARK H PARENT 3 5
REMARK Flexibility Score: inf
ROOT
ATOM      1  C   UNL     1       8.375   0.256  -1.947  1.00  0.00     0.127 C 
ENDROOT
BRANCH   1   2
ATOM      2  C   UNL     1       9.500   0.177  -0.985  1.00  0.00     0.303 C 
ATOM      3  O   UNL     1       9.426  -0.539   0.044  1.00  0.00    -0.252 OA
BRANCH   2   4
ATOM      4  O   UNL     1      10.666   0.895  -1.195  1.00  0.00    -0.481 OA
ATOM      5  H   UNL     1      11.567   0.412  -1.142  1.00  0.00     0.296 HD
ENDBRANCH   2   4
ENDBRANCH   1   2
BRANCH   1   6
ATOM      6  C   UNL     1       7.221  -0.517  -1.387  1.00  0.00     0.047 C 
BRANCH   6   7
ATOM      7  C   UNL     1       6.383   0.249  -0.466  1.00  0.00    -0.047 A 
ATOM      8  C   UNL     1       6.116  -0.219   0.799  1.00  0.00     0.004 A 
ATOM      9  C   UNL     1       5.861   1.454  -0.879  1.00  0.00     0.004 A 
ATOM     10  C   UNL     1       5.309   0.566   1.625  1.00  0.00     0.000 A 
ATOM     11  C   UNL     1       5.063   2.229  -0.061  1.00  0.00     0.000 A 
ATOM     12  C   UNL     1       4.790   1.766   1.208  1.00  0.00     0.000 A 
ENDBRANCH   6   7
ENDBRANCH   1   6
TORSDOF 4
ENDMDL
