@<TRIPOS>MOLECULE
/home/cewinharhar/GITHUB/reincatalyze/data/processed/docking_pred/2023_Apr_20-15:07/37a8b72800122466266a4bb22cdda1f56f02b914_ligand_2.pdbqt
 12 12 0 0 0
SMALL
GASTEIGER

@<TRIPOS>ATOM
      1  C          5.5370    2.9120    0.0080 C.3     1  UNL1        0.1270
      2  C          6.3020    3.8400    0.8730 C.2     1  UNL1        0.3030
      3  O          6.1900    3.8070    2.1240 O.2     1  UNL1       -0.2520
      4  O          7.1660    4.7740    0.3230 O.3     1  UNL1       -0.4810
      5  H          7.0210    5.0830   -0.6420 H       1  UNL1        0.2960
      6  C          4.9890    1.8130    0.8660 C.3     1  UNL1        0.0470
      7  C          5.7920    0.5910    0.8510 C.2     1  UNL1       -0.0470
      8  C          6.4630    0.2040   -0.2860 C.2     1  UNL1        0.0040
      9  C          5.8730   -0.1730    1.9930 C.2     1  UNL1        0.0040
     10  C          7.2110   -0.9740   -0.2270 C.2     1  UNL1        0.0000
     11  C          6.6130   -1.3370    2.0480 C.2     1  UNL1        0.0000
     12  C          7.2880   -1.7320    0.9140 C.2     1  UNL1        0.0000
@<TRIPOS>BOND
     1     5     4    1
     2     8    10    1
     3     8     7    2
     4    10    12    2
     5     1     6    1
     6     1     2    1
     7     4     2    1
     8     7     6    1
     9     7     9    1
    10     2     3    2
    11    12    11    1
    12     9    11    2
