@<TRIPOS>MOLECULE
/home/cewinharhar/GITHUB/reincatalyze/data/processed/docking_pred/2023_Apr_20-15:07/37a8b72800122466266a4bb22cdda1f56f02b914_ligand_2.pdbqt
 12 12 0 0 0
SMALL
GASTEIGER

@<TRIPOS>ATOM
      1  C          8.3750    0.2560   -1.9470 C.3     1  UNL1        0.1270
      2  C          9.5000    0.1770   -0.9850 C.2     1  UNL1        0.3030
      3  O          9.4260   -0.5390    0.0440 O.2     1  UNL1       -0.2520
      4  O         10.6660    0.8950   -1.1950 O.3     1  UNL1       -0.4810
      5  H         11.5670    0.4120   -1.1420 H       1  UNL1        0.2960
      6  C          7.2210   -0.5170   -1.3870 C.3     1  UNL1        0.0470
      7  C          6.3830    0.2490   -0.4660 C.2     1  UNL1       -0.0470
      8  C          6.1160   -0.2190    0.7990 C.2     1  UNL1        0.0040
      9  C          5.8610    1.4540   -0.8790 C.2     1  UNL1        0.0040
     10  C          5.3090    0.5660    1.6250 C.2     1  UNL1        0.0000
     11  C          5.0630    2.2290   -0.0610 C.2     1  UNL1        0.0000
     12  C          4.7900    1.7660    1.2080 C.2     1  UNL1        0.0000
@<TRIPOS>BOND
     1     1     6    1
     2     1     2    1
     3     6     7    1
     4     4     5    1
     5     4     2    1
     6     2     3    2
     7     9     7    2
     8     9    11    1
     9     7     8    1
    10    11    12    2
    11     8    10    2
    12    12    10    1
