@<TRIPOS>MOLECULE
/home/cewinharhar/GITHUB/reincatalyze/data/processed/docking_pred/2023_Apr_20-15:07/37a8b72800122466266a4bb22cdda1f56f02b914_ligand_2.pdbqt
 12 12 0 0 0
SMALL
GASTEIGER

@<TRIPOS>ATOM
      1  C          4.9980    1.7960    0.7000 C.3     1  UNL1        0.1270
      2  C          4.4840    1.1160    1.9120 C.2     1  UNL1        0.3030
      3  O          5.1440    0.2100    2.4790 O.2     1  UNL1       -0.2520
      4  O          3.2570    1.4620    2.4550 O.3     1  UNL1       -0.4810
      5  H          2.4920    0.7830    2.4370 H       1  UNL1        0.2960
      6  C          6.4950    1.7820    0.7510 C.3     1  UNL1        0.0470
      7  C          7.1200    1.0320   -0.3370 C.2     1  UNL1       -0.0470
      8  C          6.3910    0.1330   -1.0810 C.2     1  UNL1        0.0040
      9  C          8.4520    1.2350   -0.6150 C.2     1  UNL1        0.0040
     10  C          7.0520   -0.5470   -2.1060 C.2     1  UNL1        0.0000
     11  C          9.1040    0.5620   -1.6280 C.2     1  UNL1        0.0000
     12  C          8.3810   -0.3410   -2.3780 C.2     1  UNL1        0.0000
@<TRIPOS>BOND
     1    12    10    2
     2    12    11    1
     3    10     8    1
     4    11     9    2
     5     8     7    2
     6     9     7    1
     7     7     6    1
     8     1     6    1
     9     1     2    1
    10     2     4    1
    11     2     3    2
    12     5     4    1
