@<TRIPOS>MOLECULE
/home/cewinharhar/GITHUB/reincatalyze/data/processed/docking_pred/2023_Apr_20-15:07/37a8b72800122466266a4bb22cdda1f56f02b914_ligand_2.pdbqt
 12 12 0 0 0
SMALL
GASTEIGER

@<TRIPOS>ATOM
      1  C          8.4530   -0.6300   -2.1440 C.3     1  UNL1        0.1270
      2  C          8.4820   -1.9010   -2.9060 C.2     1  UNL1        0.3030
      3  O          9.5560   -2.5250   -3.0900 O.2     1  UNL1       -0.2520
      4  O          7.3200   -2.4360   -3.4380 O.3     1  UNL1       -0.4810
      5  H          6.9470   -2.0540   -4.3120 H       1  UNL1        0.2960
      6  C          7.0360   -0.1460   -2.0880 C.3     1  UNL1        0.0470
      7  C          6.5030   -0.0220   -0.7330 C.2     1  UNL1       -0.0470
      8  C          6.6640   -1.0360    0.1830 C.2     1  UNL1        0.0040
      9  C          5.8360    1.1270   -0.3770 C.2     1  UNL1        0.0040
     10  C          6.1300   -0.8480    1.4590 C.2     1  UNL1        0.0000
     11  C          5.3080    1.3110    0.8850 C.2     1  UNL1        0.0000
     12  C          5.4640    0.3000    1.8080 C.2     1  UNL1        0.0000
@<TRIPOS>BOND
     1     5     4    1
     2     4     2    1
     3     3     2    2
     4     2     1    1
     5     1     6    1
     6     6     7    1
     7     7     9    2
     8     7     8    1
     9     9    11    1
    10     8    10    2
    11    11    12    2
    12    10    12    1
