@<TRIPOS>MOLECULE
/home/cewinharhar/GITHUB/reincatalyze/data/processed/docking_pred/2023_Apr_20-15:07/37aabdb081a78d2f2d4d4e560ab17afff45a2586_ligand_2.pdbqt
 12 12 0 0 0
SMALL
GASTEIGER

@<TRIPOS>ATOM
      1  C          4.9820    1.8070    0.6620 C.3     1  UNL1        0.1270
      2  C          4.4960    1.1330    1.8900 C.2     1  UNL1        0.3030
      3  O          5.1820    0.2510    2.4620 O.2     1  UNL1       -0.2520
      4  O          3.2680    1.4600    2.4410 O.3     1  UNL1       -0.4810
      5  H          3.2310    1.8470    3.3880 H       1  UNL1        0.2960
      6  C          6.4800    1.8300    0.6990 C.3     1  UNL1        0.0470
      7  C          7.1130    1.0650   -0.3740 C.2     1  UNL1       -0.0470
      8  C          6.3750    0.2040   -1.1530 C.2     1  UNL1        0.0040
      9  C          8.4610    1.2150   -0.6000 C.2     1  UNL1        0.0040
     10  C          7.0450   -0.4940   -2.1600 C.2     1  UNL1        0.0000
     11  C          9.1220    0.5240   -1.5960 C.2     1  UNL1        0.0000
     12  C          8.3910   -0.3410   -2.3810 C.2     1  UNL1        0.0000
@<TRIPOS>BOND
     1    12    10    2
     2    12    11    1
     3    10     8    1
     4    11     9    2
     5     8     7    2
     6     9     7    1
     7     7     6    1
     8     1     6    1
     9     1     2    1
    10     2     4    1
    11     2     3    2
    12     4     5    1
