MODEL 1
REMARK VINA RESULT:      -7.4      0.000      0.000
REMARK SMILES O=C(O)CCc1ccccc1
REMARK SMILES IDX 4 1 2 2 1 3 3 4 5 6 6 7 7 8 11 9 8 10 10 11 9 12
REMARK H PARENT 3 5
REMARK Flexibility Score: inf
ROOT
ATOM      1  C   UNL     1       8.497  -0.637  -2.129  1.00  0.00     0.127 C 
ENDROOT
BRANCH   1   2
ATOM      2  C   UNL     1       8.498  -1.902  -2.901  1.00  0.00     0.303 C 
ATOM      3  O   UNL     1       9.563  -2.532  -3.116  1.00  0.00    -0.252 OA
BRANCH   2   4
ATOM      4  O   UNL     1       7.320  -2.425  -3.408  1.00  0.00    -0.481 OA
ATOM      5  H   UNL     1       6.425  -2.102  -3.030  1.00  0.00     0.296 HD
ENDBRANCH   2   4
ENDBRANCH   1   2
BRANCH   1   6
ATOM      6  C   UNL     1       7.102  -0.091  -2.121  1.00  0.00     0.047 C 
BRANCH   6   7
ATOM      7  C   UNL     1       6.527   0.052  -0.785  1.00  0.00    -0.047 A 
ATOM      8  C   UNL     1       6.639  -0.960   0.141  1.00  0.00     0.004 A 
ATOM      9  C   UNL     1       5.870   1.215  -0.458  1.00  0.00     0.004 A 
ATOM     10  C   UNL     1       6.066  -0.754   1.398  1.00  0.00     0.000 A 
ATOM     11  C   UNL     1       5.304   1.417   0.786  1.00  0.00     0.000 A 
ATOM     12  C   UNL     1       5.411   0.408   1.719  1.00  0.00     0.000 A 
ENDBRANCH   6   7
ENDBRANCH   1   6
TORSDOF 4
ENDMDL
MODEL 2
REMARK VINA RESULT:      -7.3      0.107      1.440
REMARK SMILES O=C(O)CCc1ccccc1
REMARK SMILES IDX 4 1 2 2 1 3 3 4 5 6 6 7 7 8 11 9 8 10 10 11 9 12
REMARK H PARENT 3 5
REMARK Flexibility Score: inf
ROOT
ATOM      1  C   UNL     1       8.398  -0.577  -2.170  1.00  0.00     0.127 C 
ENDROOT
BRANCH   1   2
ATOM      2  C   UNL     1       8.453  -1.865  -2.900  1.00  0.00     0.303 C 
ATOM      3  O   UNL     1       9.543  -2.461  -3.087  1.00  0.00    -0.252 OA
BRANCH   2   4
ATOM      4  O   UNL     1       7.300  -2.449  -3.398  1.00  0.00    -0.481 OA
ATOM      5  H   UNL     1       6.439  -1.897  -3.446  1.00  0.00     0.296 HD
ENDBRANCH   2   4
ENDBRANCH   1   2
BRANCH   1   6
ATOM      6  C   UNL     1       6.970  -0.125  -2.120  1.00  0.00     0.047 C 
BRANCH   6   7
ATOM      7  C   UNL     1       6.450   0.057  -0.766  1.00  0.00    -0.047 A 
ATOM      8  C   UNL     1       5.845   1.236  -0.398  1.00  0.00     0.004 A 
ATOM      9  C   UNL     1       6.571  -0.969   0.142  1.00  0.00     0.004 A 
ATOM     10  C   UNL     1       5.371   1.339   0.912  1.00  0.00     0.000 A 
ATOM     11  C   UNL     1       6.102  -0.865   1.437  1.00  0.00     0.000 A 
ATOM     12  C   UNL     1       5.495   0.313   1.814  1.00  0.00     0.000 A 
ENDBRANCH   6   7
ENDBRANCH   1   6
TORSDOF 4
ENDMDL
MODEL 3
REMARK VINA RESULT:      -6.7      3.362      5.067
REMARK SMILES O=C(O)CCc1ccccc1
REMARK SMILES IDX 4 1 2 2 1 3 3 4 5 6 6 7 7 8 11 9 8 10 10 11 9 12
REMARK H PARENT 3 5
REMARK Flexibility Score: inf
ROOT
ATOM      1  C   UNL     1       4.982   1.807   0.662  1.00  0.00     0.127 C 
ENDROOT
BRANCH   1   2
ATOM      2  C   UNL     1       4.496   1.133   1.890  1.00  0.00     0.303 C 
ATOM      3  O   UNL     1       5.182   0.251   2.462  1.00  0.00    -0.252 OA
BRANCH   2   4
ATOM      4  O   UNL     1       3.268   1.460   2.441  1.00  0.00    -0.481 OA
ATOM      5  H   UNL     1       3.231   1.847   3.388  1.00  0.00     0.296 HD
ENDBRANCH   2   4
ENDBRANCH   1   2
BRANCH   1   6
ATOM      6  C   UNL     1       6.480   1.830   0.699  1.00  0.00     0.047 C 
BRANCH   6   7
ATOM      7  C   UNL     1       7.113   1.065  -0.374  1.00  0.00    -0.047 A 
ATOM      8  C   UNL     1       6.375   0.204  -1.153  1.00  0.00     0.004 A 
ATOM      9  C   UNL     1       8.461   1.215  -0.600  1.00  0.00     0.004 A 
ATOM     10  C   UNL     1       7.045  -0.494  -2.160  1.00  0.00     0.000 A 
ATOM     11  C   UNL     1       9.122   0.524  -1.596  1.00  0.00     0.000 A 
ATOM     12  C   UNL     1       8.391  -0.341  -2.381  1.00  0.00     0.000 A 
ENDBRANCH   6   7
ENDBRANCH   1   6
TORSDOF 4
ENDMDL
MODEL 4
REMARK VINA RESULT:      -6.6      1.925      2.638
REMARK SMILES O=C(O)CCc1ccccc1
REMARK SMILES IDX 4 1 2 2 1 3 3 4 5 6 6 7 7 8 11 9 8 10 10 11 9 12
REMARK H PARENT 3 5
REMARK Flexibility Score: inf
ROOT
ATOM      1  C   UNL     1       8.209   0.230  -2.178  1.00  0.00     0.127 C 
ENDROOT
BRANCH   1   2
ATOM      2  C   UNL     1       9.337   0.336  -1.223  1.00  0.00     0.303 C 
ATOM      3  O   UNL     1       9.428  -0.434  -0.235  1.00  0.00    -0.252 OA
BRANCH   2   4
ATOM      4  O   UNL     1      10.327   1.290  -1.395  1.00  0.00    -0.481 OA
ATOM      5  H   UNL     1      10.885   1.584  -0.589  1.00  0.00     0.296 HD
ENDBRANCH   2   4
ENDBRANCH   1   2
BRANCH   1   6
ATOM      6  C   UNL     1       7.096  -0.519  -1.511  1.00  0.00     0.047 C 
BRANCH   6   7
ATOM      7  C   UNL     1       6.319   0.285  -0.569  1.00  0.00    -0.047 A 
ATOM      8  C   UNL     1       5.798   1.501  -0.946  1.00  0.00     0.004 A 
ATOM      9  C   UNL     1       6.110  -0.190   0.705  1.00  0.00     0.004 A 
ATOM     10  C   UNL     1       5.065   2.214   0.006  1.00  0.00     0.000 A 
ATOM     11  C   UNL     1       5.386   0.517   1.644  1.00  0.00     0.000 A 
ATOM     12  C   UNL     1       4.861   1.737   1.275  1.00  0.00     0.000 A 
ENDBRANCH   6   7
ENDBRANCH   1   6
TORSDOF 4
ENDMDL
MODEL 5
REMARK VINA RESULT:      -6.6      1.852      2.806
REMARK SMILES O=C(O)CCc1ccccc1
REMARK SMILES IDX 4 1 2 2 1 3 3 4 5 6 6 7 7 8 11 9 8 10 10 11 9 12
REMARK H PARENT 3 5
REMARK Flexibility Score: inf
ROOT
ATOM      1  C   UNL     1       8.255  -1.501   1.004  1.00  0.00     0.127 C 
ENDROOT
BRANCH   1   2
ATOM      2  C   UNL     1       8.495  -2.754   0.249  1.00  0.00     0.303 C 
ATOM      3  O   UNL     1       9.080  -3.731   0.779  1.00  0.00    -0.252 OA
BRANCH   2   4
ATOM      4  O   UNL     1       8.079  -2.881  -1.066  1.00  0.00    -0.481 OA
ATOM      5  H   UNL     1       8.511  -2.296  -1.787  1.00  0.00     0.296 HD
ENDBRANCH   2   4
ENDBRANCH   1   2
BRANCH   1   6
ATOM      6  C   UNL     1       6.783  -1.381   1.260  1.00  0.00     0.047 C 
BRANCH   6   7
ATOM      7  C   UNL     1       6.194  -0.137   0.768  1.00  0.00    -0.047 A 
ATOM      8  C   UNL     1       5.430   0.655   1.594  1.00  0.00     0.004 A 
ATOM      9  C   UNL     1       6.413   0.239  -0.537  1.00  0.00     0.004 A 
ATOM     10  C   UNL     1       4.899   1.829   1.057  1.00  0.00     0.000 A 
ATOM     11  C   UNL     1       5.887   1.400  -1.067  1.00  0.00     0.000 A 
ATOM     12  C   UNL     1       5.120   2.199  -0.246  1.00  0.00     0.000 A 
ENDBRANCH   6   7
ENDBRANCH   1   6
TORSDOF 4
ENDMDL
