@<TRIPOS>MOLECULE
/home/cewinharhar/GITHUB/reincatalyze/data/processed/docking_pred/2023_Apr_20-15:07/37aabdb081a78d2f2d4d4e560ab17afff45a2586_ligand_2.pdbqt
 12 12 0 0 0
SMALL
GASTEIGER

@<TRIPOS>ATOM
      1  C          8.4970   -0.6370   -2.1290 C.3     1  UNL1        0.1270
      2  C          8.4980   -1.9020   -2.9010 C.2     1  UNL1        0.3030
      3  O          9.5630   -2.5320   -3.1160 O.2     1  UNL1       -0.2520
      4  O          7.3200   -2.4250   -3.4080 O.3     1  UNL1       -0.4810
      5  H          6.4250   -2.1020   -3.0300 H       1  UNL1        0.2960
      6  C          7.1020   -0.0910   -2.1210 C.3     1  UNL1        0.0470
      7  C          6.5270    0.0520   -0.7850 C.2     1  UNL1       -0.0470
      8  C          6.6390   -0.9600    0.1410 C.2     1  UNL1        0.0040
      9  C          5.8700    1.2150   -0.4580 C.2     1  UNL1        0.0040
     10  C          6.0660   -0.7540    1.3980 C.2     1  UNL1        0.0000
     11  C          5.3040    1.4170    0.7860 C.2     1  UNL1        0.0000
     12  C          5.4110    0.4080    1.7190 C.2     1  UNL1        0.0000
@<TRIPOS>BOND
     1     4     5    1
     2     4     2    1
     3     3     2    2
     4     2     1    1
     5     1     6    1
     6     6     7    1
     7     7     9    2
     8     7     8    1
     9     9    11    1
    10     8    10    2
    11    11    12    2
    12    10    12    1
