@<TRIPOS>MOLECULE
/home/cewinharhar/GITHUB/reincatalyze/data/processed/docking_pred/2023_Apr_20-15:07/37aabdb081a78d2f2d4d4e560ab17afff45a2586_ligand_2.pdbqt
 12 12 0 0 0
SMALL
GASTEIGER

@<TRIPOS>ATOM
      1  C          8.2550   -1.5010    1.0040 C.3     1  UNL1        0.1270
      2  C          8.4950   -2.7540    0.2490 C.2     1  UNL1        0.3030
      3  O          9.0800   -3.7310    0.7790 O.2     1  UNL1       -0.2520
      4  O          8.0790   -2.8810   -1.0660 O.3     1  UNL1       -0.4810
      5  H          8.5110   -2.2960   -1.7870 H       1  UNL1        0.2960
      6  C          6.7830   -1.3810    1.2600 C.3     1  UNL1        0.0470
      7  C          6.1940   -0.1370    0.7680 C.2     1  UNL1       -0.0470
      8  C          5.4300    0.6550    1.5940 C.2     1  UNL1        0.0040
      9  C          6.4130    0.2390   -0.5370 C.2     1  UNL1        0.0040
     10  C          4.8990    1.8290    1.0570 C.2     1  UNL1        0.0000
     11  C          5.8870    1.4000   -1.0670 C.2     1  UNL1        0.0000
     12  C          5.1200    2.1990   -0.2460 C.2     1  UNL1        0.0000
@<TRIPOS>BOND
     1     5     4    1
     2    11     9    1
     3    11    12    2
     4     4     2    1
     5     9     7    2
     6    12    10    1
     7     2     3    2
     8     2     1    1
     9     7     6    1
    10     7     8    1
    11     1     6    1
    12    10     8    2
