@<TRIPOS>MOLECULE
/home/cewinharhar/GITHUB/reincatalyze/data/processed/docking_pred/2023_Apr_20-15:07/37aabdb081a78d2f2d4d4e560ab17afff45a2586_ligand_2.pdbqt
 12 12 0 0 0
SMALL
GASTEIGER

@<TRIPOS>ATOM
      1  C          8.3980   -0.5770   -2.1700 C.3     1  UNL1        0.1270
      2  C          8.4530   -1.8650   -2.9000 C.2     1  UNL1        0.3030
      3  O          9.5430   -2.4610   -3.0870 O.2     1  UNL1       -0.2520
      4  O          7.3000   -2.4490   -3.3980 O.3     1  UNL1       -0.4810
      5  H          6.4390   -1.8970   -3.4460 H       1  UNL1        0.2960
      6  C          6.9700   -0.1250   -2.1200 C.3     1  UNL1        0.0470
      7  C          6.4500    0.0570   -0.7660 C.2     1  UNL1       -0.0470
      8  C          5.8450    1.2360   -0.3980 C.2     1  UNL1        0.0040
      9  C          6.5710   -0.9690    0.1420 C.2     1  UNL1        0.0040
     10  C          5.3710    1.3390    0.9120 C.2     1  UNL1        0.0000
     11  C          6.1020   -0.8650    1.4370 C.2     1  UNL1        0.0000
     12  C          5.4950    0.3130    1.8140 C.2     1  UNL1        0.0000
@<TRIPOS>BOND
     1     5     4    1
     2     4     2    1
     3     3     2    2
     4     2     1    1
     5     1     6    1
     6     6     7    1
     7     7     8    2
     8     7     9    1
     9     8    10    1
    10     9    11    2
    11    10    12    2
    12    11    12    1
