@<TRIPOS>MOLECULE
/home/cewinharhar/GITHUB/reincatalyze/data/processed/docking_pred/2023_Apr_20-15:07/37aabdb081a78d2f2d4d4e560ab17afff45a2586_ligand_2.pdbqt
 12 12 0 0 0
SMALL
GASTEIGER

@<TRIPOS>ATOM
      1  C          8.2090    0.2300   -2.1780 C.3     1  UNL1        0.1270
      2  C          9.3370    0.3360   -1.2230 C.2     1  UNL1        0.3030
      3  O          9.4280   -0.4340   -0.2350 O.2     1  UNL1       -0.2520
      4  O         10.3270    1.2900   -1.3950 O.3     1  UNL1       -0.4810
      5  H         10.8850    1.5840   -0.5890 H       1  UNL1        0.2960
      6  C          7.0960   -0.5190   -1.5110 C.3     1  UNL1        0.0470
      7  C          6.3190    0.2850   -0.5690 C.2     1  UNL1       -0.0470
      8  C          5.7980    1.5010   -0.9460 C.2     1  UNL1        0.0040
      9  C          6.1100   -0.1900    0.7050 C.2     1  UNL1        0.0040
     10  C          5.0650    2.2140    0.0060 C.2     1  UNL1        0.0000
     11  C          5.3860    0.5170    1.6440 C.2     1  UNL1        0.0000
     12  C          4.8610    1.7370    1.2750 C.2     1  UNL1        0.0000
@<TRIPOS>BOND
     1     1     6    1
     2     1     2    1
     3     6     7    1
     4     4     2    1
     5     4     5    1
     6     2     3    2
     7     8     7    2
     8     8    10    1
     9     7     9    1
    10    10    12    2
    11     9    11    2
    12    12    11    1
