@<TRIPOS>MOLECULE
/home/cewinharhar/GITHUB/reincatalyze/data/processed/docking_pred/2023_Apr_20-15:07/3b11ad51370e6150fddf32b3aa65dd5e24197163_ligand_2.pdbqt
 12 12 0 0 0
SMALL
GASTEIGER

@<TRIPOS>ATOM
      1  C          8.4090   -0.5440   -2.2290 C.3     1  UNL1        0.1270
      2  C          8.4190   -1.8400   -2.9480 C.2     1  UNL1        0.3030
      3  O          7.3510   -2.4380   -3.2260 O.2     1  UNL1       -0.2520
      4  O          9.6130   -2.4280   -3.3330 O.3     1  UNL1       -0.4810
      5  H          9.8570   -3.3530   -2.9670 H       1  UNL1        0.2960
      6  C          6.9950   -0.0530   -2.1640 C.3     1  UNL1        0.0470
      7  C          6.4690    0.0650   -0.8050 C.2     1  UNL1       -0.0470
      8  C          6.5950   -0.9710    0.0910 C.2     1  UNL1        0.0040
      9  C          5.8440    1.2310   -0.4270 C.2     1  UNL1        0.0040
     10  C          6.0700   -0.7870    1.3720 C.2     1  UNL1        0.0000
     11  C          5.3250    1.4100    0.8400 C.2     1  UNL1        0.0000
     12  C          5.4470    0.3770    1.7440 C.2     1  UNL1        0.0000
@<TRIPOS>BOND
     1     4     5    1
     2     4     2    1
     3     3     2    2
     4     2     1    1
     5     1     6    1
     6     6     7    1
     7     7     9    2
     8     7     8    1
     9     9    11    1
    10     8    10    2
    11    11    12    2
    12    10    12    1
