MODEL 1
REMARK VINA RESULT:      -7.1      0.000      0.000
REMARK SMILES O=C(O)CCc1ccccc1
REMARK SMILES IDX 4 1 2 2 1 3 3 4 5 6 6 7 7 8 11 9 8 10 10 11 9 12
REMARK H PARENT 3 5
REMARK Flexibility Score: inf
ROOT
ATOM      1  C   UNL     1       8.458  -0.641  -2.055  1.00  0.00     0.127 C 
ENDROOT
BRANCH   1   2
ATOM      2  C   UNL     1       8.503  -1.856  -2.903  1.00  0.00     0.303 C 
ATOM      3  O   UNL     1       9.596  -2.379  -3.233  1.00  0.00    -0.252 OA
BRANCH   2   4
ATOM      4  O   UNL     1       7.336  -2.449  -3.356  1.00  0.00    -0.481 OA
ATOM      5  H   UNL     1       7.395  -3.264  -3.973  1.00  0.00     0.296 HD
ENDBRANCH   2   4
ENDBRANCH   1   2
BRANCH   1   6
ATOM      6  C   UNL     1       7.063  -0.094  -2.090  1.00  0.00     0.047 C 
BRANCH   6   7
ATOM      7  C   UNL     1       6.469   0.103  -0.769  1.00  0.00    -0.047 A 
ATOM      8  C   UNL     1       5.795   1.264  -0.467  1.00  0.00     0.004 A 
ATOM      9  C   UNL     1       6.589  -0.889   0.176  1.00  0.00     0.004 A 
ATOM     10  C   UNL     1       5.253   1.384   0.814  1.00  0.00     0.000 A 
ATOM     11  C   UNL     1       6.052  -0.769   1.443  1.00  0.00     0.000 A 
ATOM     12  C   UNL     1       5.376   0.391   1.753  1.00  0.00     0.000 A 
ENDBRANCH   6   7
ENDBRANCH   1   6
TORSDOF 4
ENDMDL
MODEL 2
REMARK VINA RESULT:      -7.0      0.110      1.732
REMARK SMILES O=C(O)CCc1ccccc1
REMARK SMILES IDX 4 1 2 2 1 3 3 4 5 6 6 7 7 8 11 9 8 10 10 11 9 12
REMARK H PARENT 3 5
REMARK Flexibility Score: inf
ROOT
ATOM      1  C   UNL     1       8.409  -0.544  -2.229  1.00  0.00     0.127 C 
ENDROOT
BRANCH   1   2
ATOM      2  C   UNL     1       8.419  -1.840  -2.948  1.00  0.00     0.303 C 
ATOM      3  O   UNL     1       7.351  -2.438  -3.226  1.00  0.00    -0.252 OA
BRANCH   2   4
ATOM      4  O   UNL     1       9.613  -2.428  -3.333  1.00  0.00    -0.481 OA
ATOM      5  H   UNL     1       9.857  -3.353  -2.967  1.00  0.00     0.296 HD
ENDBRANCH   2   4
ENDBRANCH   1   2
BRANCH   1   6
ATOM      6  C   UNL     1       6.995  -0.053  -2.164  1.00  0.00     0.047 C 
BRANCH   6   7
ATOM      7  C   UNL     1       6.469   0.065  -0.805  1.00  0.00    -0.047 A 
ATOM      8  C   UNL     1       6.595  -0.971   0.091  1.00  0.00     0.004 A 
ATOM      9  C   UNL     1       5.844   1.231  -0.427  1.00  0.00     0.004 A 
ATOM     10  C   UNL     1       6.070  -0.787   1.372  1.00  0.00     0.000 A 
ATOM     11  C   UNL     1       5.325   1.410   0.840  1.00  0.00     0.000 A 
ATOM     12  C   UNL     1       5.447   0.377   1.744  1.00  0.00     0.000 A 
ENDBRANCH   6   7
ENDBRANCH   1   6
TORSDOF 4
ENDMDL
MODEL 3
REMARK VINA RESULT:      -6.8      1.107      1.231
REMARK SMILES O=C(O)CCc1ccccc1
REMARK SMILES IDX 4 1 2 2 1 3 3 4 5 6 6 7 7 8 11 9 8 10 10 11 9 12
REMARK H PARENT 3 5
REMARK Flexibility Score: inf
ROOT
ATOM      1  C   UNL     1       8.541   0.279  -1.961  1.00  0.00     0.127 C 
ENDROOT
BRANCH   1   2
ATOM      2  C   UNL     1       9.081  -0.283  -3.221  1.00  0.00     0.303 C 
ATOM      3  O   UNL     1       9.697  -1.378  -3.234  1.00  0.00    -0.252 OA
BRANCH   2   4
ATOM      4  O   UNL     1       8.922   0.387  -4.424  1.00  0.00    -0.481 OA
ATOM      5  H   UNL     1       7.977   0.586  -4.764  1.00  0.00     0.296 HD
ENDBRANCH   2   4
ENDBRANCH   1   2
BRANCH   1   6
ATOM      6  C   UNL     1       7.053   0.109  -1.970  1.00  0.00     0.047 C 
BRANCH   6   7
ATOM      7  C   UNL     1       6.432   0.235  -0.652  1.00  0.00    -0.047 A 
ATOM      8  C   UNL     1       5.735   1.370  -0.308  1.00  0.00     0.004 A 
ATOM      9  C   UNL     1       6.550  -0.799   0.247  1.00  0.00     0.004 A 
ATOM     10  C   UNL     1       5.168   1.421   0.967  1.00  0.00     0.000 A 
ATOM     11  C   UNL     1       5.989  -0.747   1.508  1.00  0.00     0.000 A 
ATOM     12  C   UNL     1       5.290   0.387   1.860  1.00  0.00     0.000 A 
ENDBRANCH   6   7
ENDBRANCH   1   6
TORSDOF 4
ENDMDL
MODEL 4
REMARK VINA RESULT:      -6.7      3.304      5.113
REMARK SMILES O=C(O)CCc1ccccc1
REMARK SMILES IDX 4 1 2 2 1 3 3 4 5 6 6 7 7 8 11 9 8 10 10 11 9 12
REMARK H PARENT 3 5
REMARK Flexibility Score: inf
ROOT
ATOM      1  C   UNL     1       5.539   1.394  -0.295  1.00  0.00     0.127 C 
ENDROOT
BRANCH   1   2
ATOM      2  C   UNL     1       5.355   1.754   1.130  1.00  0.00     0.303 C 
ATOM      3  O   UNL     1       5.606   2.912   1.547  1.00  0.00    -0.252 OA
BRANCH   2   4
ATOM      4  O   UNL     1       4.899   0.818   2.046  1.00  0.00    -0.481 OA
ATOM      5  H   UNL     1       5.342  -0.104   2.082  1.00  0.00     0.296 HD
ENDBRANCH   2   4
ENDBRANCH   1   2
BRANCH   1   6
ATOM      6  C   UNL     1       6.381   0.156  -0.363  1.00  0.00     0.047 C 
BRANCH   6   7
ATOM      7  C   UNL     1       7.589   0.303  -1.174  1.00  0.00    -0.047 A 
ATOM      8  C   UNL     1       8.755   0.776  -0.619  1.00  0.00     0.004 A 
ATOM      9  C   UNL     1       7.549  -0.041  -2.505  1.00  0.00     0.004 A 
ATOM     10  C   UNL     1       9.870   0.890  -1.452  1.00  0.00     0.000 A 
ATOM     11  C   UNL     1       8.653   0.072  -3.328  1.00  0.00     0.000 A 
ATOM     12  C   UNL     1       9.825   0.546  -2.780  1.00  0.00     0.000 A 
ENDBRANCH   6   7
ENDBRANCH   1   6
TORSDOF 4
ENDMDL
MODEL 5
REMARK VINA RESULT:      -6.6      3.360      5.081
REMARK SMILES O=C(O)CCc1ccccc1
REMARK SMILES IDX 4 1 2 2 1 3 3 4 5 6 6 7 7 8 11 9 8 10 10 11 9 12
REMARK H PARENT 3 5
REMARK Flexibility Score: inf
ROOT
ATOM      1  C   UNL     1       6.557   0.380   1.002  1.00  0.00     0.127 C 
ENDROOT
BRANCH   1   2
ATOM      2  C   UNL     1       5.351   1.017   1.581  1.00  0.00     0.303 C 
ATOM      3  O   UNL     1       4.631   0.411   2.413  1.00  0.00    -0.252 OA
BRANCH   2   4
ATOM      4  O   UNL     1       4.984   2.303   1.220  1.00  0.00    -0.481 OA
ATOM      5  H   UNL     1       4.080   2.457   0.765  1.00  0.00     0.296 HD
ENDBRANCH   2   4
ENDBRANCH   1   2
BRANCH   1   6
ATOM      6  C   UNL     1       6.330   0.192  -0.467  1.00  0.00     0.047 C 
BRANCH   6   7
ATOM      7  C   UNL     1       7.542   0.311  -1.276  1.00  0.00    -0.047 A 
ATOM      8  C   UNL     1       7.528  -0.002  -2.615  1.00  0.00     0.004 A 
ATOM      9  C   UNL     1       8.705   0.744  -0.683  1.00  0.00     0.004 A 
ATOM     10  C   UNL     1       8.722   0.136  -3.326  1.00  0.00     0.000 A 
ATOM     11  C   UNL     1       9.885   0.880  -1.387  1.00  0.00     0.000 A 
ATOM     12  C   UNL     1       9.879   0.567  -2.729  1.00  0.00     0.000 A 
ENDBRANCH   6   7
ENDBRANCH   1   6
TORSDOF 4
ENDMDL
