@<TRIPOS>MOLECULE
/home/cewinharhar/GITHUB/reincatalyze/data/processed/docking_pred/2023_Apr_20-15:07/3b11ad51370e6150fddf32b3aa65dd5e24197163_ligand_2.pdbqt
 12 12 0 0 0
SMALL
GASTEIGER

@<TRIPOS>ATOM
      1  C          6.5570    0.3800    1.0020 C.3     1  UNL1        0.1270
      2  C          5.3510    1.0170    1.5810 C.2     1  UNL1        0.3030
      3  O          4.6310    0.4110    2.4130 O.2     1  UNL1       -0.2520
      4  O          4.9840    2.3030    1.2200 O.3     1  UNL1       -0.4810
      5  H          4.0800    2.4570    0.7650 H       1  UNL1        0.2960
      6  C          6.3300    0.1920   -0.4670 C.3     1  UNL1        0.0470
      7  C          7.5420    0.3110   -1.2760 C.2     1  UNL1       -0.0470
      8  C          7.5280   -0.0020   -2.6150 C.2     1  UNL1        0.0040
      9  C          8.7050    0.7440   -0.6830 C.2     1  UNL1        0.0040
     10  C          8.7220    0.1360   -3.3260 C.2     1  UNL1        0.0000
     11  C          9.8850    0.8800   -1.3870 C.2     1  UNL1        0.0000
     12  C          9.8790    0.5670   -2.7290 C.2     1  UNL1        0.0000
@<TRIPOS>BOND
     1    10    12    2
     2    10     8    1
     3    12    11    1
     4     8     7    2
     5    11     9    2
     6     7     9    1
     7     7     6    1
     8     6     1    1
     9     5     4    1
    10     1     2    1
    11     4     2    1
    12     2     3    2
