@<TRIPOS>MOLECULE
/home/cewinharhar/GITHUB/reincatalyze/data/processed/docking_pred/2023_Apr_20-15:07/3b11ad51370e6150fddf32b3aa65dd5e24197163_ligand_2.pdbqt
 12 12 0 0 0
SMALL
GASTEIGER

@<TRIPOS>ATOM
      1  C          8.4580   -0.6410   -2.0550 C.3     1  UNL1        0.1270
      2  C          8.5030   -1.8560   -2.9030 C.2     1  UNL1        0.3030
      3  O          9.5960   -2.3790   -3.2330 O.2     1  UNL1       -0.2520
      4  O          7.3360   -2.4490   -3.3560 O.3     1  UNL1       -0.4810
      5  H          7.3950   -3.2640   -3.9730 H       1  UNL1        0.2960
      6  C          7.0630   -0.0940   -2.0900 C.3     1  UNL1        0.0470
      7  C          6.4690    0.1030   -0.7690 C.2     1  UNL1       -0.0470
      8  C          5.7950    1.2640   -0.4670 C.2     1  UNL1        0.0040
      9  C          6.5890   -0.8890    0.1760 C.2     1  UNL1        0.0040
     10  C          5.2530    1.3840    0.8140 C.2     1  UNL1        0.0000
     11  C          6.0520   -0.7690    1.4430 C.2     1  UNL1        0.0000
     12  C          5.3760    0.3910    1.7530 C.2     1  UNL1        0.0000
@<TRIPOS>BOND
     1     5     4    1
     2     4     2    1
     3     3     2    2
     4     2     1    1
     5     6     1    1
     6     6     7    1
     7     7     8    2
     8     7     9    1
     9     8    10    1
    10     9    11    2
    11    10    12    2
    12    11    12    1
