@<TRIPOS>MOLECULE
/home/cewinharhar/GITHUB/reincatalyze/data/processed/docking_pred/2023_Apr_20-15:07/3b11ad51370e6150fddf32b3aa65dd5e24197163_ligand_2.pdbqt
 12 12 0 0 0
SMALL
GASTEIGER

@<TRIPOS>ATOM
      1  C          5.5390    1.3940   -0.2950 C.3     1  UNL1        0.1270
      2  C          5.3550    1.7540    1.1300 C.2     1  UNL1        0.3030
      3  O          5.6060    2.9120    1.5470 O.2     1  UNL1       -0.2520
      4  O          4.8990    0.8180    2.0460 O.3     1  UNL1       -0.4810
      5  H          5.3420   -0.1040    2.0820 H       1  UNL1        0.2960
      6  C          6.3810    0.1560   -0.3630 C.3     1  UNL1        0.0470
      7  C          7.5890    0.3030   -1.1740 C.2     1  UNL1       -0.0470
      8  C          8.7550    0.7760   -0.6190 C.2     1  UNL1        0.0040
      9  C          7.5490   -0.0410   -2.5050 C.2     1  UNL1        0.0040
     10  C          9.8700    0.8900   -1.4520 C.2     1  UNL1        0.0000
     11  C          8.6530    0.0720   -3.3280 C.2     1  UNL1        0.0000
     12  C          9.8250    0.5460   -2.7800 C.2     1  UNL1        0.0000
@<TRIPOS>BOND
     1    11    12    2
     2    11     9    1
     3    12    10    1
     4     9     7    2
     5    10     8    2
     6     7     8    1
     7     7     6    1
     8     6     1    1
     9     1     2    1
    10     2     3    2
    11     2     4    1
    12     4     5    1
