@<TRIPOS>MOLECULE
/home/cewinharhar/GITHUB/reincatalyze/data/processed/docking_pred/2023_Apr_20-15:07/3b11ad51370e6150fddf32b3aa65dd5e24197163_ligand_2.pdbqt
 12 12 0 0 0
SMALL
GASTEIGER

@<TRIPOS>ATOM
      1  C          8.5410    0.2790   -1.9610 C.3     1  UNL1        0.1270
      2  C          9.0810   -0.2830   -3.2210 C.2     1  UNL1        0.3030
      3  O          9.6970   -1.3780   -3.2340 O.2     1  UNL1       -0.2520
      4  O          8.9220    0.3870   -4.4240 O.3     1  UNL1       -0.4810
      5  H          7.9770    0.5860   -4.7640 H       1  UNL1        0.2960
      6  C          7.0530    0.1090   -1.9700 C.3     1  UNL1        0.0470
      7  C          6.4320    0.2350   -0.6520 C.2     1  UNL1       -0.0470
      8  C          5.7350    1.3700   -0.3080 C.2     1  UNL1        0.0040
      9  C          6.5500   -0.7990    0.2470 C.2     1  UNL1        0.0040
     10  C          5.1680    1.4210    0.9670 C.2     1  UNL1        0.0000
     11  C          5.9890   -0.7470    1.5080 C.2     1  UNL1        0.0000
     12  C          5.2900    0.3870    1.8600 C.2     1  UNL1        0.0000
@<TRIPOS>BOND
     1     5     4    1
     2     4     2    1
     3     3     2    2
     4     2     1    1
     5     6     1    1
     6     6     7    1
     7     7     8    2
     8     7     9    1
     9     8    10    1
    10     9    11    2
    11    10    12    2
    12    11    12    1
