@<TRIPOS>MOLECULE
/home/cewinharhar/GITHUB/reincatalyze/data/processed/docking_pred/2023_Apr_20-15:07/3b98b0574a09314ff34419eb6cee054edaec9098_ligand_2.pdbqt
 12 12 0 0 0
SMALL
GASTEIGER

@<TRIPOS>ATOM
      1  C          8.4230   -0.7330   -1.9670 C.3     1  UNL1        0.1270
      2  C          8.3810   -1.9220   -2.8510 C.2     1  UNL1        0.3030
      3  O          7.2900   -2.4100   -3.2340 O.2     1  UNL1       -0.2520
      4  O          9.5510   -2.5290   -3.2800 O.3     1  UNL1       -0.4810
      5  H          9.5090   -3.4730   -3.6750 H       1  UNL1        0.2960
      6  C          7.0850   -0.0610   -2.0190 C.3     1  UNL1        0.0470
      7  C          6.4670    0.1360   -0.7090 C.2     1  UNL1       -0.0470
      8  C          5.7890    1.2970   -0.4180 C.2     1  UNL1        0.0040
      9  C          6.5700   -0.8580    0.2380 C.2     1  UNL1        0.0040
     10  C          5.2230    1.4160    0.8530 C.2     1  UNL1        0.0000
     11  C          6.0100   -0.7380    1.4940 C.2     1  UNL1        0.0000
     12  C          5.3290    0.4220    1.7930 C.2     1  UNL1        0.0000
@<TRIPOS>BOND
     1     5     4    1
     2     4     2    1
     3     3     2    2
     4     2     1    1
     5     6     1    1
     6     6     7    1
     7     7     8    2
     8     7     9    1
     9     8    10    1
    10     9    11    2
    11    10    12    2
    12    11    12    1
