MODEL 1
REMARK VINA RESULT:      -7.4      0.000      0.000
REMARK SMILES O=C(O)CCc1ccccc1
REMARK SMILES IDX 4 1 2 2 1 3 3 4 5 6 6 7 7 8 11 9 8 10 10 11 9 12
REMARK H PARENT 3 5
REMARK Flexibility Score: inf
ROOT
ATOM      1  C   UNL     1       8.497  -0.614  -2.162  1.00  0.00     0.127 C 
ENDROOT
BRANCH   1   2
ATOM      2  C   UNL     1       8.502  -1.890  -2.916  1.00  0.00     0.303 C 
ATOM      3  O   UNL     1       9.570  -2.515  -3.129  1.00  0.00    -0.252 OA
BRANCH   2   4
ATOM      4  O   UNL     1       7.324  -2.428  -3.408  1.00  0.00    -0.481 OA
ATOM      5  H   UNL     1       6.935  -3.267  -2.969  1.00  0.00     0.296 HD
ENDBRANCH   2   4
ENDBRANCH   1   2
BRANCH   1   6
ATOM      6  C   UNL     1       7.097  -0.080  -2.150  1.00  0.00     0.047 C 
BRANCH   6   7
ATOM      7  C   UNL     1       6.527   0.063  -0.811  1.00  0.00    -0.047 A 
ATOM      8  C   UNL     1       6.656  -0.942   0.120  1.00  0.00     0.004 A 
ATOM      9  C   UNL     1       5.856   1.220  -0.487  1.00  0.00     0.004 A 
ATOM     10  C   UNL     1       6.087  -0.736   1.378  1.00  0.00     0.000 A 
ATOM     11  C   UNL     1       5.294   1.421   0.758  1.00  0.00     0.000 A 
ATOM     12  C   UNL     1       5.419   0.420   1.696  1.00  0.00     0.000 A 
ENDBRANCH   6   7
ENDBRANCH   1   6
TORSDOF 4
ENDMDL
MODEL 2
REMARK VINA RESULT:      -7.3      0.155      1.735
REMARK SMILES O=C(O)CCc1ccccc1
REMARK SMILES IDX 4 1 2 2 1 3 3 4 5 6 6 7 7 8 11 9 8 10 10 11 9 12
REMARK H PARENT 3 5
REMARK Flexibility Score: inf
ROOT
ATOM      1  C   UNL     1       8.423  -0.733  -1.967  1.00  0.00     0.127 C 
ENDROOT
BRANCH   1   2
ATOM      2  C   UNL     1       8.381  -1.922  -2.851  1.00  0.00     0.303 C 
ATOM      3  O   UNL     1       7.290  -2.410  -3.234  1.00  0.00    -0.252 OA
BRANCH   2   4
ATOM      4  O   UNL     1       9.551  -2.529  -3.280  1.00  0.00    -0.481 OA
ATOM      5  H   UNL     1       9.509  -3.473  -3.675  1.00  0.00     0.296 HD
ENDBRANCH   2   4
ENDBRANCH   1   2
BRANCH   1   6
ATOM      6  C   UNL     1       7.085  -0.061  -2.019  1.00  0.00     0.047 C 
BRANCH   6   7
ATOM      7  C   UNL     1       6.467   0.136  -0.709  1.00  0.00    -0.047 A 
ATOM      8  C   UNL     1       5.789   1.297  -0.418  1.00  0.00     0.004 A 
ATOM      9  C   UNL     1       6.570  -0.858   0.238  1.00  0.00     0.004 A 
ATOM     10  C   UNL     1       5.223   1.416   0.853  1.00  0.00     0.000 A 
ATOM     11  C   UNL     1       6.010  -0.738   1.494  1.00  0.00     0.000 A 
ATOM     12  C   UNL     1       5.329   0.422   1.793  1.00  0.00     0.000 A 
ENDBRANCH   6   7
ENDBRANCH   1   6
TORSDOF 4
ENDMDL
MODEL 3
REMARK VINA RESULT:      -6.8      0.923      1.106
REMARK SMILES O=C(O)CCc1ccccc1
REMARK SMILES IDX 4 1 2 2 1 3 3 4 5 6 6 7 7 8 11 9 8 10 10 11 9 12
REMARK H PARENT 3 5
REMARK Flexibility Score: inf
ROOT
ATOM      1  C   UNL     1       7.150  -1.298  -2.298  1.00  0.00     0.127 C 
ENDROOT
BRANCH   1   2
ATOM      2  C   UNL     1       8.285  -2.250  -2.243  1.00  0.00     0.303 C 
ATOM      3  O   UNL     1       8.459  -2.998  -1.250  1.00  0.00    -0.252 OA
BRANCH   2   4
ATOM      4  O   UNL     1       9.187  -2.339  -3.291  1.00  0.00    -0.481 OA
ATOM      5  H   UNL     1       8.943  -2.893  -4.117  1.00  0.00     0.296 HD
ENDBRANCH   2   4
ENDBRANCH   1   2
BRANCH   1   6
ATOM      6  C   UNL     1       7.532  -0.066  -1.534  1.00  0.00     0.047 C 
BRANCH   6   7
ATOM      7  C   UNL     1       6.673   0.210  -0.384  1.00  0.00    -0.047 A 
ATOM      8  C   UNL     1       6.594  -0.677   0.664  1.00  0.00     0.004 A 
ATOM      9  C   UNL     1       5.941   1.375  -0.358  1.00  0.00     0.004 A 
ATOM     10  C   UNL     1       5.755  -0.347   1.731  1.00  0.00     0.000 A 
ATOM     11  C   UNL     1       5.111   1.699   0.697  1.00  0.00     0.000 A 
ATOM     12  C   UNL     1       5.026   0.815   1.751  1.00  0.00     0.000 A 
ENDBRANCH   6   7
ENDBRANCH   1   6
TORSDOF 4
ENDMDL
MODEL 4
REMARK VINA RESULT:      -6.7      3.330      5.029
REMARK SMILES O=C(O)CCc1ccccc1
REMARK SMILES IDX 4 1 2 2 1 3 3 4 5 6 6 7 7 8 11 9 8 10 10 11 9 12
REMARK H PARENT 3 5
REMARK Flexibility Score: inf
ROOT
ATOM      1  C   UNL     1       5.037   1.756   0.695  1.00  0.00     0.127 C 
ENDROOT
BRANCH   1   2
ATOM      2  C   UNL     1       4.599   1.049   1.922  1.00  0.00     0.303 C 
ATOM      3  O   UNL     1       5.329   0.188   2.472  1.00  0.00    -0.252 OA
BRANCH   2   4
ATOM      4  O   UNL     1       3.368   1.321   2.497  1.00  0.00    -0.481 OA
ATOM      5  H   UNL     1       2.953   0.639   3.137  1.00  0.00     0.296 HD
ENDBRANCH   2   4
ENDBRANCH   1   2
BRANCH   1   6
ATOM      6  C   UNL     1       6.534   1.808   0.690  1.00  0.00     0.047 C 
BRANCH   6   7
ATOM      7  C   UNL     1       7.153   1.024  -0.377  1.00  0.00    -0.047 A 
ATOM      8  C   UNL     1       6.412   0.128  -1.112  1.00  0.00     0.004 A 
ATOM      9  C   UNL     1       8.493   1.193  -0.644  1.00  0.00     0.004 A 
ATOM     10  C   UNL     1       7.069  -0.586  -2.117  1.00  0.00     0.000 A 
ATOM     11  C   UNL     1       9.140   0.486  -1.637  1.00  0.00     0.000 A 
ATOM     12  C   UNL     1       8.405  -0.414  -2.378  1.00  0.00     0.000 A 
ENDBRANCH   6   7
ENDBRANCH   1   6
TORSDOF 4
ENDMDL
MODEL 5
REMARK VINA RESULT:      -6.7      3.789      4.951
REMARK SMILES O=C(O)CCc1ccccc1
REMARK SMILES IDX 4 1 2 2 1 3 3 4 5 6 6 7 7 8 11 9 8 10 10 11 9 12
REMARK H PARENT 3 5
REMARK Flexibility Score: inf
ROOT
ATOM      1  C   UNL     1       5.373   2.908   0.034  1.00  0.00     0.127 C 
ENDROOT
BRANCH   1   2
ATOM      2  C   UNL     1       6.199   3.878   0.791  1.00  0.00     0.303 C 
ATOM      3  O   UNL     1       6.869   4.761   0.201  1.00  0.00    -0.252 OA
BRANCH   2   4
ATOM      4  O   UNL     1       6.256   3.835   2.175  1.00  0.00    -0.481 OA
ATOM      5  H   UNL     1       6.739   4.583   2.680  1.00  0.00     0.296 HD
ENDBRANCH   2   4
ENDBRANCH   1   2
BRANCH   1   6
ATOM      6  C   UNL     1       4.926   1.834   0.978  1.00  0.00     0.047 C 
BRANCH   6   7
ATOM      7  C   UNL     1       5.721   0.609   0.905  1.00  0.00    -0.047 A 
ATOM      8  C   UNL     1       5.828  -0.226   1.992  1.00  0.00     0.004 A 
ATOM      9  C   UNL     1       6.365   0.297  -0.270  1.00  0.00     0.004 A 
ATOM     10  C   UNL     1       6.604  -1.379   1.850  1.00  0.00     0.000 A 
ATOM     11  C   UNL     1       7.132  -0.843  -0.409  1.00  0.00     0.000 A 
ATOM     12  C   UNL     1       7.245  -1.685   0.676  1.00  0.00     0.000 A 
ENDBRANCH   6   7
ENDBRANCH   1   6
TORSDOF 4
ENDMDL
