@<TRIPOS>MOLECULE
/home/cewinharhar/GITHUB/reincatalyze/data/processed/docking_pred/2023_Apr_20-15:07/3b98b0574a09314ff34419eb6cee054edaec9098_ligand_2.pdbqt
 12 12 0 0 0
SMALL
GASTEIGER

@<TRIPOS>ATOM
      1  C          5.0370    1.7560    0.6950 C.3     1  UNL1        0.1270
      2  C          4.5990    1.0490    1.9220 C.2     1  UNL1        0.3030
      3  O          5.3290    0.1880    2.4720 O.2     1  UNL1       -0.2520
      4  O          3.3680    1.3210    2.4970 O.3     1  UNL1       -0.4810
      5  H          2.9530    0.6390    3.1370 H       1  UNL1        0.2960
      6  C          6.5340    1.8080    0.6900 C.3     1  UNL1        0.0470
      7  C          7.1530    1.0240   -0.3770 C.2     1  UNL1       -0.0470
      8  C          6.4120    0.1280   -1.1120 C.2     1  UNL1        0.0040
      9  C          8.4930    1.1930   -0.6440 C.2     1  UNL1        0.0040
     10  C          7.0690   -0.5860   -2.1170 C.2     1  UNL1        0.0000
     11  C          9.1400    0.4860   -1.6370 C.2     1  UNL1        0.0000
     12  C          8.4050   -0.4140   -2.3780 C.2     1  UNL1        0.0000
@<TRIPOS>BOND
     1    12    10    2
     2    12    11    1
     3    10     8    1
     4    11     9    2
     5     8     7    2
     6     9     7    1
     7     7     6    1
     8     6     1    1
     9     1     2    1
    10     2     3    2
    11     2     4    1
    12     4     5    1
