@<TRIPOS>MOLECULE
/home/cewinharhar/GITHUB/reincatalyze/data/processed/docking_pred/2023_Apr_20-15:07/3b98b0574a09314ff34419eb6cee054edaec9098_ligand_2.pdbqt
 12 12 0 0 0
SMALL
GASTEIGER

@<TRIPOS>ATOM
      1  C          5.3730    2.9080    0.0340 C.3     1  UNL1        0.1270
      2  C          6.1990    3.8780    0.7910 C.2     1  UNL1        0.3030
      3  O          6.8690    4.7610    0.2010 O.2     1  UNL1       -0.2520
      4  O          6.2560    3.8350    2.1750 O.3     1  UNL1       -0.4810
      5  H          6.7390    4.5830    2.6800 H       1  UNL1        0.2960
      6  C          4.9260    1.8340    0.9780 C.3     1  UNL1        0.0470
      7  C          5.7210    0.6090    0.9050 C.2     1  UNL1       -0.0470
      8  C          5.8280   -0.2260    1.9920 C.2     1  UNL1        0.0040
      9  C          6.3650    0.2970   -0.2700 C.2     1  UNL1        0.0040
     10  C          6.6040   -1.3790    1.8500 C.2     1  UNL1        0.0000
     11  C          7.1320   -0.8430   -0.4090 C.2     1  UNL1        0.0000
     12  C          7.2450   -1.6850    0.6760 C.2     1  UNL1        0.0000
@<TRIPOS>BOND
     1    11     9    1
     2    11    12    2
     3     9     7    2
     4     1     2    1
     5     1     6    1
     6     3     2    2
     7    12    10    1
     8     2     4    1
     9     7     6    1
    10     7     8    1
    11    10     8    2
    12     4     5    1
