@<TRIPOS>MOLECULE
/home/cewinharhar/GITHUB/reincatalyze/data/processed/docking_pred/2023_Apr_20-15:07/3b98b0574a09314ff34419eb6cee054edaec9098_ligand_2.pdbqt
 12 12 0 0 0
SMALL
GASTEIGER

@<TRIPOS>ATOM
      1  C          8.4970   -0.6140   -2.1620 C.3     1  UNL1        0.1270
      2  C          8.5020   -1.8900   -2.9160 C.2     1  UNL1        0.3030
      3  O          9.5700   -2.5150   -3.1290 O.2     1  UNL1       -0.2520
      4  O          7.3240   -2.4280   -3.4080 O.3     1  UNL1       -0.4810
      5  H          6.9350   -3.2670   -2.9690 H       1  UNL1        0.2960
      6  C          7.0970   -0.0800   -2.1500 C.3     1  UNL1        0.0470
      7  C          6.5270    0.0630   -0.8110 C.2     1  UNL1       -0.0470
      8  C          6.6560   -0.9420    0.1200 C.2     1  UNL1        0.0040
      9  C          5.8560    1.2200   -0.4870 C.2     1  UNL1        0.0040
     10  C          6.0870   -0.7360    1.3780 C.2     1  UNL1        0.0000
     11  C          5.2940    1.4210    0.7580 C.2     1  UNL1        0.0000
     12  C          5.4190    0.4200    1.6960 C.2     1  UNL1        0.0000
@<TRIPOS>BOND
     1     4     5    1
     2     4     2    1
     3     3     2    2
     4     2     1    1
     5     1     6    1
     6     6     7    1
     7     7     9    2
     8     7     8    1
     9     9    11    1
    10     8    10    2
    11    11    12    2
    12    10    12    1
