@<TRIPOS>MOLECULE
/home/cewinharhar/GITHUB/reincatalyze/data/processed/docking_pred/2023_Apr_20-15:07/3b98b0574a09314ff34419eb6cee054edaec9098_ligand_2.pdbqt
 12 12 0 0 0
SMALL
GASTEIGER

@<TRIPOS>ATOM
      1  C          7.1500   -1.2980   -2.2980 C.3     1  UNL1        0.1270
      2  C          8.2850   -2.2500   -2.2430 C.2     1  UNL1        0.3030
      3  O          8.4590   -2.9980   -1.2500 O.2     1  UNL1       -0.2520
      4  O          9.1870   -2.3390   -3.2910 O.3     1  UNL1       -0.4810
      5  H          8.9430   -2.8930   -4.1170 H       1  UNL1        0.2960
      6  C          7.5320   -0.0660   -1.5340 C.3     1  UNL1        0.0470
      7  C          6.6730    0.2100   -0.3840 C.2     1  UNL1       -0.0470
      8  C          6.5940   -0.6770    0.6640 C.2     1  UNL1        0.0040
      9  C          5.9410    1.3750   -0.3580 C.2     1  UNL1        0.0040
     10  C          5.7550   -0.3470    1.7310 C.2     1  UNL1        0.0000
     11  C          5.1110    1.6990    0.6970 C.2     1  UNL1        0.0000
     12  C          5.0260    0.8150    1.7510 C.2     1  UNL1        0.0000
@<TRIPOS>BOND
     1     5     4    1
     2     4     2    1
     3     1     2    1
     4     1     6    1
     5     2     3    2
     6     6     7    1
     7     7     9    2
     8     7     8    1
     9     9    11    1
    10     8    10    2
    11    11    12    2
    12    10    12    1
