@<TRIPOS>MOLECULE
/home/cewinharhar/GITHUB/reincatalyze/data/processed/docking_pred/2023_Apr_20-15:07/3c607cf36dcc024da10d53d595c24d9744c2a083_ligand_2.pdbqt
 12 12 0 0 0
SMALL
GASTEIGER

@<TRIPOS>ATOM
      1  C          5.0270    1.7920    0.7390 C.3     1  UNL1        0.1270
      2  C          4.4710    1.1070    1.9300 C.2     1  UNL1        0.3030
      3  O          5.0950    0.1750    2.4950 O.2     1  UNL1       -0.2520
      4  O          3.2420    1.4770    2.4530 O.3     1  UNL1       -0.4810
      5  H          2.7340    0.8200    3.0520 H       1  UNL1        0.2960
      6  C          6.5210    1.7040    0.8010 C.3     1  UNL1        0.0470
      7  C          7.1190    0.9600   -0.3070 C.2     1  UNL1       -0.0470
      8  C          6.4030   -0.0080   -0.9720 C.2     1  UNL1        0.0040
      9  C          8.4120    1.2410   -0.6830 C.2     1  UNL1        0.0040
     10  C          7.0370   -0.6770   -2.0210 C.2     1  UNL1        0.0000
     11  C          9.0370    0.5780   -1.7210 C.2     1  UNL1        0.0000
     12  C          8.3280   -0.3940   -2.3910 C.2     1  UNL1        0.0000
@<TRIPOS>BOND
     1    12    10    2
     2    12    11    1
     3    10     8    1
     4    11     9    2
     5     8     7    2
     6     9     7    1
     7     7     6    1
     8     1     6    1
     9     1     2    1
    10     2     4    1
    11     2     3    2
    12     4     5    1
