MODEL 1
REMARK VINA RESULT:      -7.3      0.000      0.000
REMARK SMILES O=C(O)CCc1ccccc1
REMARK SMILES IDX 4 1 2 2 1 3 3 4 5 6 6 7 7 8 11 9 8 10 10 11 9 12
REMARK H PARENT 3 5
REMARK Flexibility Score: inf
ROOT
ATOM      1  C   UNL     1       8.398  -0.644  -2.127  1.00  0.00     0.127 C 
ENDROOT
BRANCH   1   2
ATOM      2  C   UNL     1       8.456  -1.907  -2.900  1.00  0.00     0.303 C 
ATOM      3  O   UNL     1       9.544  -2.504  -3.089  1.00  0.00    -0.252 OA
BRANCH   2   4
ATOM      4  O   UNL     1       7.307  -2.464  -3.437  1.00  0.00    -0.481 OA
ATOM      5  H   UNL     1       6.451  -1.904  -3.481  1.00  0.00     0.296 HD
ENDBRANCH   2   4
ENDBRANCH   1   2
BRANCH   1   6
ATOM      6  C   UNL     1       6.976  -0.171  -2.104  1.00  0.00     0.047 C 
BRANCH   6   7
ATOM      7  C   UNL     1       6.442   0.042  -0.760  1.00  0.00    -0.047 A 
ATOM      8  C   UNL     1       5.825   1.226  -0.428  1.00  0.00     0.004 A 
ATOM      9  C   UNL     1       6.561  -0.958   0.176  1.00  0.00     0.004 A 
ATOM     10  C   UNL     1       5.338   1.361   0.874  1.00  0.00     0.000 A 
ATOM     11  C   UNL     1       6.079  -0.824   1.463  1.00  0.00     0.000 A 
ATOM     12  C   UNL     1       5.460   0.359   1.804  1.00  0.00     0.000 A 
ENDBRANCH   6   7
ENDBRANCH   1   6
TORSDOF 4
ENDMDL
MODEL 2
REMARK VINA RESULT:      -7.2      0.128      1.442
REMARK SMILES O=C(O)CCc1ccccc1
REMARK SMILES IDX 4 1 2 2 1 3 3 4 5 6 6 7 7 8 11 9 8 10 10 11 9 12
REMARK H PARENT 3 5
REMARK Flexibility Score: inf
ROOT
ATOM      1  C   UNL     1       8.396  -0.505  -2.338  1.00  0.00     0.127 C 
ENDROOT
BRANCH   1   2
ATOM      2  C   UNL     1       8.471  -1.861  -2.933  1.00  0.00     0.303 C 
ATOM      3  O   UNL     1       9.560  -2.483  -3.001  1.00  0.00    -0.252 OA
BRANCH   2   4
ATOM      4  O   UNL     1       7.336  -2.480  -3.433  1.00  0.00    -0.481 OA
ATOM      5  H   UNL     1       7.351  -2.861  -4.382  1.00  0.00     0.296 HD
ENDBRANCH   2   4
ENDBRANCH   1   2
BRANCH   1   6
ATOM      6  C   UNL     1       6.954  -0.116  -2.233  1.00  0.00     0.047 C 
BRANCH   6   7
ATOM      7  C   UNL     1       6.474   0.023  -0.859  1.00  0.00    -0.047 A 
ATOM      8  C   UNL     1       6.649  -0.992   0.053  1.00  0.00     0.004 A 
ATOM      9  C   UNL     1       5.843   1.186  -0.482  1.00  0.00     0.004 A 
ATOM     10  C   UNL     1       6.166  -0.790   1.348  1.00  0.00     0.000 A 
ATOM     11  C   UNL     1       5.366   1.383   0.798  1.00  0.00     0.000 A 
ATOM     12  C   UNL     1       5.537   0.371   1.718  1.00  0.00     0.000 A 
ENDBRANCH   6   7
ENDBRANCH   1   6
TORSDOF 4
ENDMDL
MODEL 3
REMARK VINA RESULT:      -6.7      3.392      5.101
REMARK SMILES O=C(O)CCc1ccccc1
REMARK SMILES IDX 4 1 2 2 1 3 3 4 5 6 6 7 7 8 11 9 8 10 10 11 9 12
REMARK H PARENT 3 5
REMARK Flexibility Score: inf
ROOT
ATOM      1  C   UNL     1       5.027   1.792   0.739  1.00  0.00     0.127 C 
ENDROOT
BRANCH   1   2
ATOM      2  C   UNL     1       4.471   1.107   1.930  1.00  0.00     0.303 C 
ATOM      3  O   UNL     1       5.095   0.175   2.495  1.00  0.00    -0.252 OA
BRANCH   2   4
ATOM      4  O   UNL     1       3.242   1.477   2.453  1.00  0.00    -0.481 OA
ATOM      5  H   UNL     1       2.734   0.820   3.052  1.00  0.00     0.296 HD
ENDBRANCH   2   4
ENDBRANCH   1   2
BRANCH   1   6
ATOM      6  C   UNL     1       6.521   1.704   0.801  1.00  0.00     0.047 C 
BRANCH   6   7
ATOM      7  C   UNL     1       7.119   0.960  -0.307  1.00  0.00    -0.047 A 
ATOM      8  C   UNL     1       6.403  -0.008  -0.972  1.00  0.00     0.004 A 
ATOM      9  C   UNL     1       8.412   1.241  -0.683  1.00  0.00     0.004 A 
ATOM     10  C   UNL     1       7.037  -0.677  -2.021  1.00  0.00     0.000 A 
ATOM     11  C   UNL     1       9.037   0.578  -1.721  1.00  0.00     0.000 A 
ATOM     12  C   UNL     1       8.328  -0.394  -2.391  1.00  0.00     0.000 A 
ENDBRANCH   6   7
ENDBRANCH   1   6
TORSDOF 4
ENDMDL
MODEL 4
REMARK VINA RESULT:      -6.6      1.956      2.646
REMARK SMILES O=C(O)CCc1ccccc1
REMARK SMILES IDX 4 1 2 2 1 3 3 4 5 6 6 7 7 8 11 9 8 10 10 11 9 12
REMARK H PARENT 3 5
REMARK Flexibility Score: inf
ROOT
ATOM      1  C   UNL     1       8.170   0.305  -2.067  1.00  0.00     0.127 C 
ENDROOT
BRANCH   1   2
ATOM      2  C   UNL     1       9.357   0.392  -1.184  1.00  0.00     0.303 C 
ATOM      3  O   UNL     1       9.493  -0.374  -0.198  1.00  0.00    -0.252 OA
BRANCH   2   4
ATOM      4  O   UNL     1      10.354   1.325  -1.424  1.00  0.00    -0.481 OA
ATOM      5  H   UNL     1      11.333   1.056  -1.296  1.00  0.00     0.296 HD
ENDBRANCH   2   4
ENDBRANCH   1   2
BRANCH   1   6
ATOM      6  C   UNL     1       7.153  -0.571  -1.402  1.00  0.00     0.047 C 
BRANCH   6   7
ATOM      7  C   UNL     1       6.364   0.106  -0.374  1.00  0.00    -0.047 A 
ATOM      8  C   UNL     1       6.174  -0.470   0.860  1.00  0.00     0.004 A 
ATOM      9  C   UNL     1       5.812   1.335  -0.653  1.00  0.00     0.004 A 
ATOM     10  C   UNL     1       5.410   0.235   1.794  1.00  0.00     0.000 A 
ATOM     11  C   UNL     1       5.058   2.030   0.271  1.00  0.00     0.000 A 
ATOM     12  C   UNL     1       4.861   1.460   1.510  1.00  0.00     0.000 A 
ENDBRANCH   6   7
ENDBRANCH   1   6
TORSDOF 4
ENDMDL
MODEL 5
REMARK VINA RESULT:      -6.4      3.814      4.997
REMARK SMILES O=C(O)CCc1ccccc1
REMARK SMILES IDX 4 1 2 2 1 3 3 4 5 6 6 7 7 8 11 9 8 10 10 11 9 12
REMARK H PARENT 3 5
REMARK Flexibility Score: inf
ROOT
ATOM      1  C   UNL     1       5.718   3.111  -0.062  1.00  0.00     0.127 C 
ENDROOT
BRANCH   1   2
ATOM      2  C   UNL     1       6.446   4.018   0.857  1.00  0.00     0.303 C 
ATOM      3  O   UNL     1       7.357   4.775   0.438  1.00  0.00    -0.252 OA
BRANCH   2   4
ATOM      4  O   UNL     1       6.141   4.055   2.208  1.00  0.00    -0.481 OA
ATOM      5  H   UNL     1       6.537   4.797   2.791  1.00  0.00     0.296 HD
ENDBRANCH   2   4
ENDBRANCH   1   2
BRANCH   1   6
ATOM      6  C   UNL     1       5.016   2.073   0.759  1.00  0.00     0.047 C 
BRANCH   6   7
ATOM      7  C   UNL     1       5.731   0.801   0.846  1.00  0.00    -0.047 A 
ATOM      8  C   UNL     1       5.753   0.086   2.021  1.00  0.00     0.004 A 
ATOM      9  C   UNL     1       6.385   0.320  -0.265  1.00  0.00     0.004 A 
ATOM     10  C   UNL     1       6.455  -1.122   2.032  1.00  0.00     0.000 A 
ATOM     11  C   UNL     1       7.078  -0.874  -0.253  1.00  0.00     0.000 A 
ATOM     12  C   UNL     1       7.105  -1.596   0.921  1.00  0.00     0.000 A 
ENDBRANCH   6   7
ENDBRANCH   1   6
TORSDOF 4
ENDMDL
