@<TRIPOS>MOLECULE
/home/cewinharhar/GITHUB/reincatalyze/data/processed/docking_pred/2023_Apr_20-15:07/3c607cf36dcc024da10d53d595c24d9744c2a083_ligand_2.pdbqt
 12 12 0 0 0
SMALL
GASTEIGER

@<TRIPOS>ATOM
      1  C          8.1700    0.3050   -2.0670 C.3     1  UNL1        0.1270
      2  C          9.3570    0.3920   -1.1840 C.2     1  UNL1        0.3030
      3  O          9.4930   -0.3740   -0.1980 O.2     1  UNL1       -0.2520
      4  O         10.3540    1.3250   -1.4240 O.3     1  UNL1       -0.4810
      5  H         11.3330    1.0560   -1.2960 H       1  UNL1        0.2960
      6  C          7.1530   -0.5710   -1.4020 C.3     1  UNL1        0.0470
      7  C          6.3640    0.1060   -0.3740 C.2     1  UNL1       -0.0470
      8  C          6.1740   -0.4700    0.8600 C.2     1  UNL1        0.0040
      9  C          5.8120    1.3350   -0.6530 C.2     1  UNL1        0.0040
     10  C          5.4100    0.2350    1.7940 C.2     1  UNL1        0.0000
     11  C          5.0580    2.0300    0.2710 C.2     1  UNL1        0.0000
     12  C          4.8610    1.4600    1.5100 C.2     1  UNL1        0.0000
@<TRIPOS>BOND
     1     1     6    1
     2     1     2    1
     3     4     5    1
     4     4     2    1
     5     6     7    1
     6     2     3    2
     7     9     7    2
     8     9    11    1
     9     7     8    1
    10    11    12    2
    11     8    10    2
    12    12    10    1
