@<TRIPOS>MOLECULE
/home/cewinharhar/GITHUB/reincatalyze/data/processed/docking_pred/2023_Apr_20-15:07/3c607cf36dcc024da10d53d595c24d9744c2a083_ligand_2.pdbqt
 12 12 0 0 0
SMALL
GASTEIGER

@<TRIPOS>ATOM
      1  C          5.7180    3.1110   -0.0620 C.3     1  UNL1        0.1270
      2  C          6.4460    4.0180    0.8570 C.2     1  UNL1        0.3030
      3  O          7.3570    4.7750    0.4380 O.2     1  UNL1       -0.2520
      4  O          6.1410    4.0550    2.2080 O.3     1  UNL1       -0.4810
      5  H          6.5370    4.7970    2.7910 H       1  UNL1        0.2960
      6  C          5.0160    2.0730    0.7590 C.3     1  UNL1        0.0470
      7  C          5.7310    0.8010    0.8460 C.2     1  UNL1       -0.0470
      8  C          5.7530    0.0860    2.0210 C.2     1  UNL1        0.0040
      9  C          6.3850    0.3200   -0.2650 C.2     1  UNL1        0.0040
     10  C          6.4550   -1.1220    2.0320 C.2     1  UNL1        0.0000
     11  C          7.0780   -0.8740   -0.2530 C.2     1  UNL1        0.0000
     12  C          7.1050   -1.5960    0.9210 C.2     1  UNL1        0.0000
@<TRIPOS>BOND
     1     9    11    1
     2     9     7    2
     3    11    12    2
     4     1     6    1
     5     1     2    1
     6     3     2    2
     7     6     7    1
     8     7     8    1
     9     2     4    1
    10    12    10    1
    11     8    10    2
    12     4     5    1
