@<TRIPOS>MOLECULE
/home/cewinharhar/GITHUB/reincatalyze/data/processed/docking_pred/2023_Apr_20-15:07/3c607cf36dcc024da10d53d595c24d9744c2a083_ligand_2.pdbqt
 12 12 0 0 0
SMALL
GASTEIGER

@<TRIPOS>ATOM
      1  C          8.3960   -0.5050   -2.3380 C.3     1  UNL1        0.1270
      2  C          8.4710   -1.8610   -2.9330 C.2     1  UNL1        0.3030
      3  O          9.5600   -2.4830   -3.0010 O.2     1  UNL1       -0.2520
      4  O          7.3360   -2.4800   -3.4330 O.3     1  UNL1       -0.4810
      5  H          7.3510   -2.8610   -4.3820 H       1  UNL1        0.2960
      6  C          6.9540   -0.1160   -2.2330 C.3     1  UNL1        0.0470
      7  C          6.4740    0.0230   -0.8590 C.2     1  UNL1       -0.0470
      8  C          6.6490   -0.9920    0.0530 C.2     1  UNL1        0.0040
      9  C          5.8430    1.1860   -0.4820 C.2     1  UNL1        0.0040
     10  C          6.1660   -0.7900    1.3480 C.2     1  UNL1        0.0000
     11  C          5.3660    1.3830    0.7980 C.2     1  UNL1        0.0000
     12  C          5.5370    0.3710    1.7180 C.2     1  UNL1        0.0000
@<TRIPOS>BOND
     1     5     4    1
     2     4     2    1
     3     3     2    2
     4     2     1    1
     5     1     6    1
     6     6     7    1
     7     7     9    2
     8     7     8    1
     9     9    11    1
    10     8    10    2
    11    11    12    2
    12    10    12    1
