@<TRIPOS>MOLECULE
/home/cewinharhar/GITHUB/reincatalyze/data/processed/docking_pred/2023_Apr_20-15:07/3c607cf36dcc024da10d53d595c24d9744c2a083_ligand_2.pdbqt
 12 12 0 0 0
SMALL
GASTEIGER

@<TRIPOS>ATOM
      1  C          8.3980   -0.6440   -2.1270 C.3     1  UNL1        0.1270
      2  C          8.4560   -1.9070   -2.9000 C.2     1  UNL1        0.3030
      3  O          9.5440   -2.5040   -3.0890 O.2     1  UNL1       -0.2520
      4  O          7.3070   -2.4640   -3.4370 O.3     1  UNL1       -0.4810
      5  H          6.4510   -1.9040   -3.4810 H       1  UNL1        0.2960
      6  C          6.9760   -0.1710   -2.1040 C.3     1  UNL1        0.0470
      7  C          6.4420    0.0420   -0.7600 C.2     1  UNL1       -0.0470
      8  C          5.8250    1.2260   -0.4280 C.2     1  UNL1        0.0040
      9  C          6.5610   -0.9580    0.1760 C.2     1  UNL1        0.0040
     10  C          5.3380    1.3610    0.8740 C.2     1  UNL1        0.0000
     11  C          6.0790   -0.8240    1.4630 C.2     1  UNL1        0.0000
     12  C          5.4600    0.3590    1.8040 C.2     1  UNL1        0.0000
@<TRIPOS>BOND
     1     5     4    1
     2     4     2    1
     3     3     2    2
     4     2     1    1
     5     1     6    1
     6     6     7    1
     7     7     8    2
     8     7     9    1
     9     8    10    1
    10     9    11    2
    11    10    12    2
    12    11    12    1
