@<TRIPOS>MOLECULE
/home/cewinharhar/GITHUB/reincatalyze/data/processed/docking_pred/2023_Apr_20-15:07/3dd20a82ca316ee4e9168eadca9f8684e5881f32_ligand_2.pdbqt
 12 12 0 0 0
SMALL
GASTEIGER

@<TRIPOS>ATOM
      1  C          8.4010   -0.6430   -2.0970 C.3     1  UNL1        0.1270
      2  C          8.4790   -1.8950   -2.8860 C.2     1  UNL1        0.3030
      3  O          9.5780   -2.4650   -3.0960 O.2     1  UNL1       -0.2520
      4  O          7.3360   -2.4720   -3.4160 O.3     1  UNL1       -0.4810
      5  H          6.4680   -1.9300   -3.4430 H       1  UNL1        0.2960
      6  C          6.9780   -0.1740   -2.0970 C.3     1  UNL1        0.0470
      7  C          6.4290    0.0600   -0.7630 C.2     1  UNL1       -0.0470
      8  C          5.7900    1.2400   -0.4610 C.2     1  UNL1        0.0040
      9  C          6.5560   -0.9190    0.1960 C.2     1  UNL1        0.0040
     10  C          5.2890    1.3940    0.8330 C.2     1  UNL1        0.0000
     11  C          6.0610   -0.7650    1.4750 C.2     1  UNL1        0.0000
     12  C          5.4200    0.4150    1.7860 C.2     1  UNL1        0.0000
@<TRIPOS>BOND
     1     5     4    1
     2     4     2    1
     3     3     2    2
     4     2     1    1
     5     1     6    1
     6     6     7    1
     7     7     8    2
     8     7     9    1
     9     8    10    1
    10     9    11    2
    11    10    12    2
    12    11    12    1
