@<TRIPOS>MOLECULE
/home/cewinharhar/GITHUB/reincatalyze/data/processed/docking_pred/2023_Apr_20-15:07/3dd20a82ca316ee4e9168eadca9f8684e5881f32_ligand_2.pdbqt
 12 12 0 0 0
SMALL
GASTEIGER

@<TRIPOS>ATOM
      1  C          4.9980    1.7910    0.7150 C.3     1  UNL1        0.1270
      2  C          4.4720    1.1070    1.9210 C.2     1  UNL1        0.3030
      3  O          5.1210    0.1920    2.4850 O.2     1  UNL1       -0.2520
      4  O          3.2450    1.4610    2.4590 O.3     1  UNL1       -0.4810
      5  H          2.4180    0.9030    2.2310 H       1  UNL1        0.2960
      6  C          6.4950    1.7560    0.7700 C.3     1  UNL1        0.0470
      7  C          7.1120    1.0090   -0.3250 C.2     1  UNL1       -0.0470
      8  C          6.3870    0.0850   -1.0430 C.2     1  UNL1        0.0040
      9  C          8.4320    1.2400   -0.6350 C.2     1  UNL1        0.0040
     10  C          7.0410   -0.5910   -2.0750 C.2     1  UNL1        0.0000
     11  C          9.0770    0.5700   -1.6560 C.2     1  UNL1        0.0000
     12  C          8.3590   -0.3570   -2.3790 C.2     1  UNL1        0.0000
@<TRIPOS>BOND
     1    12    10    2
     2    12    11    1
     3    10     8    1
     4    11     9    2
     5     8     7    2
     6     9     7    1
     7     7     6    1
     8     1     6    1
     9     1     2    1
    10     2     4    1
    11     2     3    2
    12     5     4    1
