@<TRIPOS>MOLECULE
/home/cewinharhar/GITHUB/reincatalyze/data/processed/docking_pred/2023_Apr_20-15:07/3dd20a82ca316ee4e9168eadca9f8684e5881f32_ligand_2.pdbqt
 12 12 0 0 0
SMALL
GASTEIGER

@<TRIPOS>ATOM
      1  C          8.4960   -0.7210   -2.0330 C.3     1  UNL1        0.1270
      2  C          8.4890   -1.9470   -2.8670 C.2     1  UNL1        0.3030
      3  O          9.5500   -2.5700   -3.1160 O.2     1  UNL1       -0.2520
      4  O          7.3060   -2.4380   -3.3950 O.3     1  UNL1       -0.4810
      5  H          6.9450   -3.3370   -3.0640 H       1  UNL1        0.2960
      6  C          7.1220   -0.1250   -2.0600 C.3     1  UNL1        0.0470
      7  C          6.5210    0.0450   -0.7380 C.2     1  UNL1       -0.0470
      8  C          6.6320   -0.9400    0.2160 C.2     1  UNL1        0.0040
      9  C          5.8420    1.2070   -0.4540 C.2     1  UNL1        0.0040
     10  C          6.0340   -0.7090    1.4570 C.2     1  UNL1        0.0000
     11  C          5.2520    1.4330    0.7740 C.2     1  UNL1        0.0000
     12  C          5.3570    0.4510    1.7350 C.2     1  UNL1        0.0000
@<TRIPOS>BOND
     1     4     5    1
     2     4     2    1
     3     3     2    2
     4     2     1    1
     5     6     1    1
     6     6     7    1
     7     7     9    2
     8     7     8    1
     9     9    11    1
    10     8    10    2
    11    11    12    2
    12    10    12    1
