MODEL 1
REMARK VINA RESULT:      -7.4      0.000      0.000
REMARK SMILES O=C(O)CCc1ccccc1
REMARK SMILES IDX 4 1 2 2 1 3 3 4 5 6 6 7 7 8 11 9 8 10 10 11 9 12
REMARK H PARENT 3 5
REMARK Flexibility Score: inf
ROOT
ATOM      1  C   UNL     1       8.496  -0.721  -2.033  1.00  0.00     0.127 C 
ENDROOT
BRANCH   1   2
ATOM      2  C   UNL     1       8.489  -1.947  -2.867  1.00  0.00     0.303 C 
ATOM      3  O   UNL     1       9.550  -2.570  -3.116  1.00  0.00    -0.252 OA
BRANCH   2   4
ATOM      4  O   UNL     1       7.306  -2.438  -3.395  1.00  0.00    -0.481 OA
ATOM      5  H   UNL     1       6.945  -3.337  -3.064  1.00  0.00     0.296 HD
ENDBRANCH   2   4
ENDBRANCH   1   2
BRANCH   1   6
ATOM      6  C   UNL     1       7.122  -0.125  -2.060  1.00  0.00     0.047 C 
BRANCH   6   7
ATOM      7  C   UNL     1       6.521   0.045  -0.738  1.00  0.00    -0.047 A 
ATOM      8  C   UNL     1       6.632  -0.940   0.216  1.00  0.00     0.004 A 
ATOM      9  C   UNL     1       5.842   1.207  -0.454  1.00  0.00     0.004 A 
ATOM     10  C   UNL     1       6.034  -0.709   1.457  1.00  0.00     0.000 A 
ATOM     11  C   UNL     1       5.252   1.433   0.774  1.00  0.00     0.000 A 
ATOM     12  C   UNL     1       5.357   0.451   1.735  1.00  0.00     0.000 A 
ENDBRANCH   6   7
ENDBRANCH   1   6
TORSDOF 4
ENDMDL
MODEL 2
REMARK VINA RESULT:      -7.4      0.095      1.439
REMARK SMILES O=C(O)CCc1ccccc1
REMARK SMILES IDX 4 1 2 2 1 3 3 4 5 6 6 7 7 8 11 9 8 10 10 11 9 12
REMARK H PARENT 3 5
REMARK Flexibility Score: inf
ROOT
ATOM      1  C   UNL     1       8.401  -0.643  -2.097  1.00  0.00     0.127 C 
ENDROOT
BRANCH   1   2
ATOM      2  C   UNL     1       8.479  -1.895  -2.886  1.00  0.00     0.303 C 
ATOM      3  O   UNL     1       9.578  -2.465  -3.096  1.00  0.00    -0.252 OA
BRANCH   2   4
ATOM      4  O   UNL     1       7.336  -2.472  -3.416  1.00  0.00    -0.481 OA
ATOM      5  H   UNL     1       6.468  -1.930  -3.443  1.00  0.00     0.296 HD
ENDBRANCH   2   4
ENDBRANCH   1   2
BRANCH   1   6
ATOM      6  C   UNL     1       6.978  -0.174  -2.097  1.00  0.00     0.047 C 
BRANCH   6   7
ATOM      7  C   UNL     1       6.429   0.060  -0.763  1.00  0.00    -0.047 A 
ATOM      8  C   UNL     1       5.790   1.240  -0.461  1.00  0.00     0.004 A 
ATOM      9  C   UNL     1       6.556  -0.919   0.196  1.00  0.00     0.004 A 
ATOM     10  C   UNL     1       5.289   1.394   0.833  1.00  0.00     0.000 A 
ATOM     11  C   UNL     1       6.061  -0.765   1.475  1.00  0.00     0.000 A 
ATOM     12  C   UNL     1       5.420   0.415   1.786  1.00  0.00     0.000 A 
ENDBRANCH   6   7
ENDBRANCH   1   6
TORSDOF 4
ENDMDL
MODEL 3
REMARK VINA RESULT:      -6.8      3.366      5.075
REMARK SMILES O=C(O)CCc1ccccc1
REMARK SMILES IDX 4 1 2 2 1 3 3 4 5 6 6 7 7 8 11 9 8 10 10 11 9 12
REMARK H PARENT 3 5
REMARK Flexibility Score: inf
ROOT
ATOM      1  C   UNL     1       4.998   1.791   0.715  1.00  0.00     0.127 C 
ENDROOT
BRANCH   1   2
ATOM      2  C   UNL     1       4.472   1.107   1.921  1.00  0.00     0.303 C 
ATOM      3  O   UNL     1       5.121   0.192   2.485  1.00  0.00    -0.252 OA
BRANCH   2   4
ATOM      4  O   UNL     1       3.245   1.461   2.459  1.00  0.00    -0.481 OA
ATOM      5  H   UNL     1       2.418   0.903   2.231  1.00  0.00     0.296 HD
ENDBRANCH   2   4
ENDBRANCH   1   2
BRANCH   1   6
ATOM      6  C   UNL     1       6.495   1.756   0.770  1.00  0.00     0.047 C 
BRANCH   6   7
ATOM      7  C   UNL     1       7.112   1.009  -0.325  1.00  0.00    -0.047 A 
ATOM      8  C   UNL     1       6.387   0.085  -1.043  1.00  0.00     0.004 A 
ATOM      9  C   UNL     1       8.432   1.240  -0.635  1.00  0.00     0.004 A 
ATOM     10  C   UNL     1       7.041  -0.591  -2.075  1.00  0.00     0.000 A 
ATOM     11  C   UNL     1       9.077   0.570  -1.656  1.00  0.00     0.000 A 
ATOM     12  C   UNL     1       8.359  -0.357  -2.379  1.00  0.00     0.000 A 
ENDBRANCH   6   7
ENDBRANCH   1   6
TORSDOF 4
ENDMDL
MODEL 4
REMARK VINA RESULT:      -6.6      1.936      2.649
REMARK SMILES O=C(O)CCc1ccccc1
REMARK SMILES IDX 4 1 2 2 1 3 3 4 5 6 6 7 7 8 11 9 8 10 10 11 9 12
REMARK H PARENT 3 5
REMARK Flexibility Score: inf
ROOT
ATOM      1  C   UNL     1       8.225   0.250  -2.198  1.00  0.00     0.127 C 
ENDROOT
BRANCH   1   2
ATOM      2  C   UNL     1       9.356   0.368  -1.248  1.00  0.00     0.303 C 
ATOM      3  O   UNL     1       9.455  -0.397  -0.257  1.00  0.00    -0.252 OA
BRANCH   2   4
ATOM      4  O   UNL     1      10.338   1.329  -1.428  1.00  0.00    -0.481 OA
ATOM      5  H   UNL     1      10.794   1.738  -0.608  1.00  0.00     0.296 HD
ENDBRANCH   2   4
ENDBRANCH   1   2
BRANCH   1   6
ATOM      6  C   UNL     1       7.122  -0.508  -1.526  1.00  0.00     0.047 C 
BRANCH   6   7
ATOM      7  C   UNL     1       6.338   0.291  -0.586  1.00  0.00    -0.047 A 
ATOM      8  C   UNL     1       5.811   1.505  -0.964  1.00  0.00     0.004 A 
ATOM      9  C   UNL     1       6.127  -0.185   0.687  1.00  0.00     0.004 A 
ATOM     10  C   UNL     1       5.072   2.214  -0.015  1.00  0.00     0.000 A 
ATOM     11  C   UNL     1       5.396   0.518   1.624  1.00  0.00     0.000 A 
ATOM     12  C   UNL     1       4.866   1.735   1.254  1.00  0.00     0.000 A 
ENDBRANCH   6   7
ENDBRANCH   1   6
TORSDOF 4
ENDMDL
MODEL 5
REMARK VINA RESULT:      -6.6      3.701      4.977
REMARK SMILES O=C(O)CCc1ccccc1
REMARK SMILES IDX 4 1 2 2 1 3 3 4 5 6 6 7 7 8 11 9 8 10 10 11 9 12
REMARK H PARENT 3 5
REMARK Flexibility Score: inf
ROOT
ATOM      1  C   UNL     1       5.342   2.979   0.053  1.00  0.00     0.127 C 
ENDROOT
BRANCH   1   2
ATOM      2  C   UNL     1       6.228   3.875   0.834  1.00  0.00     0.303 C 
ATOM      3  O   UNL     1       6.907   4.770   0.271  1.00  0.00    -0.252 OA
BRANCH   2   4
ATOM      4  O   UNL     1       6.331   3.749   2.209  1.00  0.00    -0.481 OA
ATOM      5  H   UNL     1       6.787   2.922   2.604  1.00  0.00     0.296 HD
ENDBRANCH   2   4
ENDBRANCH   1   2
BRANCH   1   6
ATOM      6  C   UNL     1       5.186   1.696   0.810  1.00  0.00     0.047 C 
BRANCH   6   7
ATOM      7  C   UNL     1       5.955   0.582   0.257  1.00  0.00    -0.047 A 
ATOM      8  C   UNL     1       6.307  -0.490   1.044  1.00  0.00     0.004 A 
ATOM      9  C   UNL     1       6.324   0.614  -1.068  1.00  0.00     0.004 A 
ATOM     10  C   UNL     1       7.041  -1.518   0.448  1.00  0.00     0.000 A 
ATOM     11  C   UNL     1       7.050  -0.403  -1.655  1.00  0.00     0.000 A 
ATOM     12  C   UNL     1       7.407  -1.480  -0.873  1.00  0.00     0.000 A 
ENDBRANCH   6   7
ENDBRANCH   1   6
TORSDOF 4
ENDMDL
