@<TRIPOS>MOLECULE
/home/cewinharhar/GITHUB/reincatalyze/data/processed/docking_pred/2023_Apr_20-15:07/3dd20a82ca316ee4e9168eadca9f8684e5881f32_ligand_2.pdbqt
 12 12 0 0 0
SMALL
GASTEIGER

@<TRIPOS>ATOM
      1  C          8.2250    0.2500   -2.1980 C.3     1  UNL1        0.1270
      2  C          9.3560    0.3680   -1.2480 C.2     1  UNL1        0.3030
      3  O          9.4550   -0.3970   -0.2570 O.2     1  UNL1       -0.2520
      4  O         10.3380    1.3290   -1.4280 O.3     1  UNL1       -0.4810
      5  H         10.7940    1.7380   -0.6080 H       1  UNL1        0.2960
      6  C          7.1220   -0.5080   -1.5260 C.3     1  UNL1        0.0470
      7  C          6.3380    0.2910   -0.5860 C.2     1  UNL1       -0.0470
      8  C          5.8110    1.5050   -0.9640 C.2     1  UNL1        0.0040
      9  C          6.1270   -0.1850    0.6870 C.2     1  UNL1        0.0040
     10  C          5.0720    2.2140   -0.0150 C.2     1  UNL1        0.0000
     11  C          5.3960    0.5180    1.6240 C.2     1  UNL1        0.0000
     12  C          4.8660    1.7350    1.2540 C.2     1  UNL1        0.0000
@<TRIPOS>BOND
     1     1     6    1
     2     1     2    1
     3     6     7    1
     4     4     2    1
     5     4     5    1
     6     2     3    2
     7     8     7    2
     8     8    10    1
     9     7     9    1
    10    10    12    2
    11     9    11    2
    12    12    11    1
