@<TRIPOS>MOLECULE
/home/cewinharhar/GITHUB/reincatalyze/data/processed/docking_pred/2023_Apr_20-15:07/3dd20a82ca316ee4e9168eadca9f8684e5881f32_ligand_2.pdbqt
 12 12 0 0 0
SMALL
GASTEIGER

@<TRIPOS>ATOM
      1  C          5.3420    2.9790    0.0530 C.3     1  UNL1        0.1270
      2  C          6.2280    3.8750    0.8340 C.2     1  UNL1        0.3030
      3  O          6.9070    4.7700    0.2710 O.2     1  UNL1       -0.2520
      4  O          6.3310    3.7490    2.2090 O.3     1  UNL1       -0.4810
      5  H          6.7870    2.9220    2.6040 H       1  UNL1        0.2960
      6  C          5.1860    1.6960    0.8100 C.3     1  UNL1        0.0470
      7  C          5.9550    0.5820    0.2570 C.2     1  UNL1       -0.0470
      8  C          6.3070   -0.4900    1.0440 C.2     1  UNL1        0.0040
      9  C          6.3240    0.6140   -1.0680 C.2     1  UNL1        0.0040
     10  C          7.0410   -1.5180    0.4480 C.2     1  UNL1        0.0000
     11  C          7.0500   -0.4030   -1.6550 C.2     1  UNL1        0.0000
     12  C          7.4070   -1.4800   -0.8730 C.2     1  UNL1        0.0000
@<TRIPOS>BOND
     1    11     9    1
     2    11    12    2
     3     9     7    2
     4    12    10    1
     5     1     6    1
     6     1     2    1
     7     7     6    1
     8     7     8    1
     9     3     2    2
    10    10     8    2
    11     2     4    1
    12     4     5    1
