@<TRIPOS>MOLECULE
/home/cewinharhar/GITHUB/reincatalyze/data/processed/docking_pred/2023_Apr_20-15:07/3e742204aaadd08b2af2eabe2bac092cf241077d_ligand_2.pdbqt
 12 12 0 0 0
SMALL
GASTEIGER

@<TRIPOS>ATOM
      1  C          8.3820   -0.5600   -2.2410 C.3     1  UNL1        0.1270
      2  C          8.4410   -1.8640   -2.9430 C.2     1  UNL1        0.3030
      3  O          9.5300   -2.4670   -3.1060 O.2     1  UNL1       -0.2520
      4  O          7.2900   -2.4540   -3.4420 O.3     1  UNL1       -0.4810
      5  H          6.3900   -1.9850   -3.3110 H       1  UNL1        0.2960
      6  C          6.9510   -0.1190   -2.1850 C.3     1  UNL1        0.0470
      7  C          6.4430    0.0790   -0.8290 C.2     1  UNL1       -0.0470
      8  C          5.8170    1.2520   -0.4770 C.2     1  UNL1        0.0040
      9  C          6.5930   -0.9270    0.0980 C.2     1  UNL1        0.0040
     10  C          5.3550    1.3720    0.8360 C.2     1  UNL1        0.0000
     11  C          6.1360   -0.8070    1.3950 C.2     1  UNL1        0.0000
     12  C          5.5100    0.3660    1.7570 C.2     1  UNL1        0.0000
@<TRIPOS>BOND
     1     4     5    1
     2     4     2    1
     3     3     2    2
     4     2     1    1
     5     1     6    1
     6     6     7    1
     7     7     8    2
     8     7     9    1
     9     8    10    1
    10     9    11    2
    11    10    12    2
    12    11    12    1
