MODEL 1
REMARK VINA RESULT:      -7.4      0.000      0.000
REMARK SMILES O=C(O)CCc1ccccc1
REMARK SMILES IDX 4 1 2 2 1 3 3 4 5 6 6 7 7 8 11 9 8 10 10 11 9 12
REMARK H PARENT 3 5
REMARK Flexibility Score: inf
ROOT
ATOM      1  C   UNL     1       8.382  -0.560  -2.241  1.00  0.00     0.127 C 
ENDROOT
BRANCH   1   2
ATOM      2  C   UNL     1       8.441  -1.864  -2.943  1.00  0.00     0.303 C 
ATOM      3  O   UNL     1       9.530  -2.467  -3.106  1.00  0.00    -0.252 OA
BRANCH   2   4
ATOM      4  O   UNL     1       7.290  -2.454  -3.442  1.00  0.00    -0.481 OA
ATOM      5  H   UNL     1       6.390  -1.985  -3.311  1.00  0.00     0.296 HD
ENDBRANCH   2   4
ENDBRANCH   1   2
BRANCH   1   6
ATOM      6  C   UNL     1       6.951  -0.119  -2.185  1.00  0.00     0.047 C 
BRANCH   6   7
ATOM      7  C   UNL     1       6.443   0.079  -0.829  1.00  0.00    -0.047 A 
ATOM      8  C   UNL     1       5.817   1.252  -0.477  1.00  0.00     0.004 A 
ATOM      9  C   UNL     1       6.593  -0.927   0.098  1.00  0.00     0.004 A 
ATOM     10  C   UNL     1       5.355   1.372   0.836  1.00  0.00     0.000 A 
ATOM     11  C   UNL     1       6.136  -0.807   1.395  1.00  0.00     0.000 A 
ATOM     12  C   UNL     1       5.510   0.366   1.757  1.00  0.00     0.000 A 
ENDBRANCH   6   7
ENDBRANCH   1   6
TORSDOF 4
ENDMDL
MODEL 2
REMARK VINA RESULT:      -7.3      0.112      1.731
REMARK SMILES O=C(O)CCc1ccccc1
REMARK SMILES IDX 4 1 2 2 1 3 3 4 5 6 6 7 7 8 11 9 8 10 10 11 9 12
REMARK H PARENT 3 5
REMARK Flexibility Score: inf
ROOT
ATOM      1  C   UNL     1       8.394  -0.608  -2.156  1.00  0.00     0.127 C 
ENDROOT
BRANCH   1   2
ATOM      2  C   UNL     1       8.372  -1.886  -2.907  1.00  0.00     0.303 C 
ATOM      3  O   UNL     1       7.289  -2.419  -3.253  1.00  0.00    -0.252 OA
BRANCH   2   4
ATOM      4  O   UNL     1       9.551  -2.529  -3.248  1.00  0.00    -0.481 OA
ATOM      5  H   UNL     1      10.183  -2.844  -2.506  1.00  0.00     0.296 HD
ENDBRANCH   2   4
ENDBRANCH   1   2
BRANCH   1   6
ATOM      6  C   UNL     1       6.998  -0.065  -2.112  1.00  0.00     0.047 C 
BRANCH   6   7
ATOM      7  C   UNL     1       6.456   0.072  -0.762  1.00  0.00    -0.047 A 
ATOM      8  C   UNL     1       6.584  -0.946   0.154  1.00  0.00     0.004 A 
ATOM      9  C   UNL     1       5.813   1.237  -0.411  1.00  0.00     0.004 A 
ATOM     10  C   UNL     1       6.043  -0.746   1.426  1.00  0.00     0.000 A 
ATOM     11  C   UNL     1       5.278   1.433   0.846  1.00  0.00     0.000 A 
ATOM     12  C   UNL     1       5.402   0.417   1.770  1.00  0.00     0.000 A 
ENDBRANCH   6   7
ENDBRANCH   1   6
TORSDOF 4
ENDMDL
MODEL 3
REMARK VINA RESULT:      -6.8      3.348      5.002
REMARK SMILES O=C(O)CCc1ccccc1
REMARK SMILES IDX 4 1 2 2 1 3 3 4 5 6 6 7 7 8 11 9 8 10 10 11 9 12
REMARK H PARENT 3 5
REMARK Flexibility Score: inf
ROOT
ATOM      1  C   UNL     1       5.053   1.639   0.681  1.00  0.00     0.127 C 
ENDROOT
BRANCH   1   2
ATOM      2  C   UNL     1       4.591   0.997   1.934  1.00  0.00     0.303 C 
ATOM      3  O   UNL     1       5.299   0.147   2.530  1.00  0.00    -0.252 OA
BRANCH   2   4
ATOM      4  O   UNL     1       3.361   1.319   2.485  1.00  0.00    -0.481 OA
ATOM      5  H   UNL     1       3.306   1.568   3.476  1.00  0.00     0.296 HD
ENDBRANCH   2   4
ENDBRANCH   1   2
BRANCH   1   6
ATOM      6  C   UNL     1       6.550   1.694   0.704  1.00  0.00     0.047 C 
BRANCH   6   7
ATOM      7  C   UNL     1       7.189   0.941  -0.374  1.00  0.00    -0.047 A 
ATOM      8  C   UNL     1       8.493   1.195  -0.732  1.00  0.00     0.004 A 
ATOM      9  C   UNL     1       6.471  -0.032  -1.031  1.00  0.00     0.004 A 
ATOM     10  C   UNL     1       9.039   0.437  -1.770  1.00  0.00     0.000 A 
ATOM     11  C   UNL     1       7.013  -0.780  -2.057  1.00  0.00     0.000 A 
ATOM     12  C   UNL     1       8.318  -0.531  -2.422  1.00  0.00     0.000 A 
ENDBRANCH   6   7
ENDBRANCH   1   6
TORSDOF 4
ENDMDL
MODEL 4
REMARK VINA RESULT:      -6.6      1.871      2.835
REMARK SMILES O=C(O)CCc1ccccc1
REMARK SMILES IDX 4 1 2 2 1 3 3 4 5 6 6 7 7 8 11 9 8 10 10 11 9 12
REMARK H PARENT 3 5
REMARK Flexibility Score: inf
ROOT
ATOM      1  C   UNL     1       8.204  -1.467   1.013  1.00  0.00     0.127 C 
ENDROOT
BRANCH   1   2
ATOM      2  C   UNL     1       8.459  -2.726   0.274  1.00  0.00     0.303 C 
ATOM      3  O   UNL     1       9.043  -3.695   0.820  1.00  0.00    -0.252 OA
BRANCH   2   4
ATOM      4  O   UNL     1       8.060  -2.868  -1.045  1.00  0.00    -0.481 OA
ATOM      5  H   UNL     1       8.753  -2.772  -1.792  1.00  0.00     0.296 HD
ENDBRANCH   2   4
ENDBRANCH   1   2
BRANCH   1   6
ATOM      6  C   UNL     1       6.730  -1.357   1.259  1.00  0.00     0.047 C 
BRANCH   6   7
ATOM      7  C   UNL     1       6.140  -0.107   0.783  1.00  0.00    -0.047 A 
ATOM      8  C   UNL     1       5.351   0.658   1.610  1.00  0.00     0.004 A 
ATOM      9  C   UNL     1       6.383   0.301  -0.508  1.00  0.00     0.004 A 
ATOM     10  C   UNL     1       4.820   1.840   1.089  1.00  0.00     0.000 A 
ATOM     11  C   UNL     1       5.858   1.470  -1.022  1.00  0.00     0.000 A 
ATOM     12  C   UNL     1       5.066   2.242  -0.200  1.00  0.00     0.000 A 
ENDBRANCH   6   7
ENDBRANCH   1   6
TORSDOF 4
ENDMDL
MODEL 5
REMARK VINA RESULT:      -6.6      2.088      2.379
REMARK SMILES O=C(O)CCc1ccccc1
REMARK SMILES IDX 4 1 2 2 1 3 3 4 5 6 6 7 7 8 11 9 8 10 10 11 9 12
REMARK H PARENT 3 5
REMARK Flexibility Score: inf
ROOT
ATOM      1  C   UNL     1       8.483   0.665  -1.668  1.00  0.00     0.127 C 
ENDROOT
BRANCH   1   2
ATOM      2  C   UNL     1       9.634   0.283  -0.817  1.00  0.00     0.303 C 
ATOM      3  O   UNL     1       9.496  -0.512   0.145  1.00  0.00    -0.252 OA
BRANCH   2   4
ATOM      4  O   UNL     1      10.898   0.795  -1.061  1.00  0.00    -0.481 OA
ATOM      5  H   UNL     1      11.600   0.203  -1.514  1.00  0.00     0.296 HD
ENDBRANCH   2   4
ENDBRANCH   1   2
BRANCH   1   6
ATOM      6  C   UNL     1       7.327  -0.224  -1.324  1.00  0.00     0.047 C 
BRANCH   6   7
ATOM      7  C   UNL     1       6.424   0.337  -0.320  1.00  0.00    -0.047 A 
ATOM      8  C   UNL     1       5.810   1.550  -0.526  1.00  0.00     0.004 A 
ATOM      9  C   UNL     1       6.191  -0.365   0.840  1.00  0.00     0.004 A 
ATOM     10  C   UNL     1       4.959   2.024   0.475  1.00  0.00     0.000 A 
ATOM     11  C   UNL     1       5.350   0.105   1.829  1.00  0.00     0.000 A 
ATOM     12  C   UNL     1       4.731   1.320   1.631  1.00  0.00     0.000 A 
ENDBRANCH   6   7
ENDBRANCH   1   6
TORSDOF 4
ENDMDL
