@<TRIPOS>MOLECULE
/home/cewinharhar/GITHUB/reincatalyze/data/processed/docking_pred/2023_Apr_20-15:07/3e742204aaadd08b2af2eabe2bac092cf241077d_ligand_2.pdbqt
 12 12 0 0 0
SMALL
GASTEIGER

@<TRIPOS>ATOM
      1  C          8.4830    0.6650   -1.6680 C.3     1  UNL1        0.1270
      2  C          9.6340    0.2830   -0.8170 C.2     1  UNL1        0.3030
      3  O          9.4960   -0.5120    0.1450 O.2     1  UNL1       -0.2520
      4  O         10.8980    0.7950   -1.0610 O.3     1  UNL1       -0.4810
      5  H         11.6000    0.2030   -1.5140 H       1  UNL1        0.2960
      6  C          7.3270   -0.2240   -1.3240 C.3     1  UNL1        0.0470
      7  C          6.4240    0.3370   -0.3200 C.2     1  UNL1       -0.0470
      8  C          5.8100    1.5500   -0.5260 C.2     1  UNL1        0.0040
      9  C          6.1910   -0.3650    0.8400 C.2     1  UNL1        0.0040
     10  C          4.9590    2.0240    0.4750 C.2     1  UNL1        0.0000
     11  C          5.3500    0.1050    1.8290 C.2     1  UNL1        0.0000
     12  C          4.7310    1.3200    1.6310 C.2     1  UNL1        0.0000
@<TRIPOS>BOND
     1     1     6    1
     2     1     2    1
     3     5     4    1
     4     6     7    1
     5     4     2    1
     6     2     3    2
     7     8     7    2
     8     8    10    1
     9     7     9    1
    10    10    12    2
    11     9    11    2
    12    12    11    1
