@<TRIPOS>MOLECULE
/home/cewinharhar/GITHUB/reincatalyze/data/processed/docking_pred/2023_Apr_20-15:07/3e742204aaadd08b2af2eabe2bac092cf241077d_ligand_2.pdbqt
 12 12 0 0 0
SMALL
GASTEIGER

@<TRIPOS>ATOM
      1  C          8.2040   -1.4670    1.0130 C.3     1  UNL1        0.1270
      2  C          8.4590   -2.7260    0.2740 C.2     1  UNL1        0.3030
      3  O          9.0430   -3.6950    0.8200 O.2     1  UNL1       -0.2520
      4  O          8.0600   -2.8680   -1.0450 O.3     1  UNL1       -0.4810
      5  H          8.7530   -2.7720   -1.7920 H       1  UNL1        0.2960
      6  C          6.7300   -1.3570    1.2590 C.3     1  UNL1        0.0470
      7  C          6.1400   -0.1070    0.7830 C.2     1  UNL1       -0.0470
      8  C          5.3510    0.6580    1.6100 C.2     1  UNL1        0.0040
      9  C          6.3830    0.3010   -0.5080 C.2     1  UNL1        0.0040
     10  C          4.8200    1.8400    1.0890 C.2     1  UNL1        0.0000
     11  C          5.8580    1.4700   -1.0220 C.2     1  UNL1        0.0000
     12  C          5.0660    2.2420   -0.2000 C.2     1  UNL1        0.0000
@<TRIPOS>BOND
     1     5     4    1
     2     4     2    1
     3    11     9    1
     4    11    12    2
     5     9     7    2
     6    12    10    1
     7     2     3    2
     8     2     1    1
     9     7     6    1
    10     7     8    1
    11     1     6    1
    12    10     8    2
