@<TRIPOS>MOLECULE
/home/cewinharhar/GITHUB/reincatalyze/data/processed/docking_pred/2023_Apr_20-15:07/3e742204aaadd08b2af2eabe2bac092cf241077d_ligand_2.pdbqt
 12 12 0 0 0
SMALL
GASTEIGER

@<TRIPOS>ATOM
      1  C          8.3940   -0.6080   -2.1560 C.3     1  UNL1        0.1270
      2  C          8.3720   -1.8860   -2.9070 C.2     1  UNL1        0.3030
      3  O          7.2890   -2.4190   -3.2530 O.2     1  UNL1       -0.2520
      4  O          9.5510   -2.5290   -3.2480 O.3     1  UNL1       -0.4810
      5  H         10.1830   -2.8440   -2.5060 H       1  UNL1        0.2960
      6  C          6.9980   -0.0650   -2.1120 C.3     1  UNL1        0.0470
      7  C          6.4560    0.0720   -0.7620 C.2     1  UNL1       -0.0470
      8  C          6.5840   -0.9460    0.1540 C.2     1  UNL1        0.0040
      9  C          5.8130    1.2370   -0.4110 C.2     1  UNL1        0.0040
     10  C          6.0430   -0.7460    1.4260 C.2     1  UNL1        0.0000
     11  C          5.2780    1.4330    0.8460 C.2     1  UNL1        0.0000
     12  C          5.4020    0.4170    1.7700 C.2     1  UNL1        0.0000
@<TRIPOS>BOND
     1     3     2    2
     2     4     2    1
     3     4     5    1
     4     2     1    1
     5     1     6    1
     6     6     7    1
     7     7     9    2
     8     7     8    1
     9     9    11    1
    10     8    10    2
    11    11    12    2
    12    10    12    1
