@<TRIPOS>MOLECULE
/home/cewinharhar/GITHUB/reincatalyze/data/processed/docking_pred/2023_Apr_20-15:07/3e742204aaadd08b2af2eabe2bac092cf241077d_ligand_2.pdbqt
 12 12 0 0 0
SMALL
GASTEIGER

@<TRIPOS>ATOM
      1  C          5.0530    1.6390    0.6810 C.3     1  UNL1        0.1270
      2  C          4.5910    0.9970    1.9340 C.2     1  UNL1        0.3030
      3  O          5.2990    0.1470    2.5300 O.2     1  UNL1       -0.2520
      4  O          3.3610    1.3190    2.4850 O.3     1  UNL1       -0.4810
      5  H          3.3060    1.5680    3.4760 H       1  UNL1        0.2960
      6  C          6.5500    1.6940    0.7040 C.3     1  UNL1        0.0470
      7  C          7.1890    0.9410   -0.3740 C.2     1  UNL1       -0.0470
      8  C          8.4930    1.1950   -0.7320 C.2     1  UNL1        0.0040
      9  C          6.4710   -0.0320   -1.0310 C.2     1  UNL1        0.0040
     10  C          9.0390    0.4370   -1.7700 C.2     1  UNL1        0.0000
     11  C          7.0130   -0.7800   -2.0570 C.2     1  UNL1        0.0000
     12  C          8.3180   -0.5310   -2.4220 C.2     1  UNL1        0.0000
@<TRIPOS>BOND
     1    12    11    2
     2    12    10    1
     3    11     9    1
     4    10     8    2
     5     9     7    2
     6     8     7    1
     7     7     6    1
     8     1     6    1
     9     1     2    1
    10     2     4    1
    11     2     3    2
    12     4     5    1
