@<TRIPOS>MOLECULE
/home/cewinharhar/GITHUB/reincatalyze/data/processed/docking_pred/2023_Apr_20-15:07/3ef00b253c4480de2280c2f95d83164b82996574_ligand_2.pdbqt
 12 12 0 0 0
SMALL
GASTEIGER

@<TRIPOS>ATOM
      1  C          8.4180   -0.8990   -1.8240 C.3     1  UNL1        0.1270
      2  C          8.4530   -2.0060   -2.8080 C.2     1  UNL1        0.3030
      3  O          9.5360   -2.5500   -3.1370 O.2     1  UNL1       -0.2520
      4  O          7.2880   -2.4720   -3.3950 O.3     1  UNL1       -0.4810
      5  H          6.4180   -2.4660   -2.8560 H       1  UNL1        0.2960
      6  C          7.1110   -0.1800   -1.9710 C.3     1  UNL1        0.0470
      7  C          6.4600    0.1360   -0.7010 C.2     1  UNL1       -0.0470
      8  C          5.7990    1.3300   -0.5270 C.2     1  UNL1        0.0040
      9  C          6.5120   -0.7780    0.3260 C.2     1  UNL1        0.0040
     10  C          5.1990    1.5650    0.7120 C.2     1  UNL1        0.0000
     11  C          5.9190   -0.5440    1.5510 C.2     1  UNL1        0.0000
     12  C          5.2550    0.6500    1.7330 C.2     1  UNL1        0.0000
@<TRIPOS>BOND
     1     4     5    1
     2     4     2    1
     3     3     2    2
     4     2     1    1
     5     6     1    1
     6     6     7    1
     7     7     8    2
     8     7     9    1
     9     8    10    1
    10     9    11    2
    11    10    12    2
    12    11    12    1
