@<TRIPOS>MOLECULE
/home/cewinharhar/GITHUB/reincatalyze/data/processed/docking_pred/2023_Apr_20-15:07/3ef00b253c4480de2280c2f95d83164b82996574_ligand_2.pdbqt
 12 12 0 0 0
SMALL
GASTEIGER

@<TRIPOS>ATOM
      1  C          5.0030    1.7810    0.6760 C.3     1  UNL1        0.1270
      2  C          4.4960    1.1150    1.8990 C.2     1  UNL1        0.3030
      3  O          5.1620    0.2200    2.4760 O.2     1  UNL1       -0.2520
      4  O          3.2700    1.4640    2.4420 O.3     1  UNL1       -0.4810
      5  H          3.2400    1.9460    3.3450 H       1  UNL1        0.2960
      6  C          6.5000    1.8030    0.7370 C.3     1  UNL1        0.0470
      7  C          7.1490    1.0550   -0.3380 C.2     1  UNL1       -0.0470
      8  C          8.4790    1.2540   -0.6290 C.2     1  UNL1        0.0040
      9  C          6.4160    0.1420   -1.0590 C.2     1  UNL1        0.0040
     10  C          9.0340    0.5040   -1.6680 C.2     1  UNL1        0.0000
     11  C          6.9660   -0.5990   -2.0870 C.2     1  UNL1        0.0000
     12  C          8.2970   -0.4050   -2.3850 C.2     1  UNL1        0.0000
@<TRIPOS>BOND
     1    12    11    2
     2    12    10    1
     3    11     9    1
     4    10     8    2
     5     9     7    2
     6     8     7    1
     7     7     6    1
     8     1     6    1
     9     1     2    1
    10     2     4    1
    11     2     3    2
    12     4     5    1
