@<TRIPOS>MOLECULE
/home/cewinharhar/GITHUB/reincatalyze/data/processed/docking_pred/2023_Apr_20-15:07/3ef00b253c4480de2280c2f95d83164b82996574_ligand_2.pdbqt
 12 12 0 0 0
SMALL
GASTEIGER

@<TRIPOS>ATOM
      1  C          5.4000    2.9060    0.0090 C.3     1  UNL1        0.1270
      2  C          6.2290    3.8610    0.7830 C.2     1  UNL1        0.3030
      3  O          6.8730    4.7750    0.2120 O.2     1  UNL1       -0.2520
      4  O          6.3150    3.7690    2.1630 O.3     1  UNL1       -0.4810
      5  H          5.6160    4.2430    2.7410 H       1  UNL1        0.2960
      6  C          4.9260    1.8320    0.9400 C.3     1  UNL1        0.0470
      7  C          5.7350    0.6150    0.9050 C.2     1  UNL1       -0.0470
      8  C          6.4360    0.2690   -0.2270 C.2     1  UNL1        0.0040
      9  C          5.7930   -0.1840    2.0230 C.2     1  UNL1        0.0040
     10  C          7.1890   -0.9070   -0.1880 C.2     1  UNL1        0.0000
     11  C          6.5380   -1.3460    2.0590 C.2     1  UNL1        0.0000
     12  C          7.2420   -1.7020    0.9290 C.2     1  UNL1        0.0000
@<TRIPOS>BOND
     1     8    10    1
     2     8     7    2
     3    10    12    2
     4     1     2    1
     5     1     6    1
     6     3     2    2
     7     2     4    1
     8     7     6    1
     9     7     9    1
    10    12    11    1
    11     9    11    2
    12     4     5    1
