@<TRIPOS>MOLECULE
/home/cewinharhar/GITHUB/reincatalyze/data/processed/docking_pred/2023_Apr_20-15:07/3ef00b253c4480de2280c2f95d83164b82996574_ligand_2.pdbqt
 12 12 0 0 0
SMALL
GASTEIGER

@<TRIPOS>ATOM
      1  C          8.4220   -0.5770   -2.2190 C.3     1  UNL1        0.1270
      2  C          8.4710   -1.8850   -2.9150 C.2     1  UNL1        0.3030
      3  O          9.5520   -2.5100   -3.0490 O.2     1  UNL1       -0.2520
      4  O          7.3220   -2.4550   -3.4380 O.3     1  UNL1       -0.4810
      5  H          7.1090   -3.4340   -3.2300 H       1  UNL1        0.2960
      6  C          6.9960   -0.1210   -2.1740 C.3     1  UNL1        0.0470
      7  C          6.4700    0.0540   -0.8210 C.2     1  UNL1       -0.0470
      8  C          6.6020   -0.9410    0.1190 C.2     1  UNL1        0.0040
      9  C          5.8400    1.2320   -0.4940 C.2     1  UNL1        0.0040
     10  C          6.0770   -0.7040    1.3920 C.2     1  UNL1        0.0000
     11  C          5.3210    1.4650    0.7640 C.2     1  UNL1        0.0000
     12  C          5.4480    0.4730    1.7120 C.2     1  UNL1        0.0000
@<TRIPOS>BOND
     1     4     5    1
     2     4     2    1
     3     3     2    2
     4     2     1    1
     5     1     6    1
     6     6     7    1
     7     7     9    2
     8     7     8    1
     9     9    11    1
    10     8    10    2
    11    11    12    2
    12    10    12    1
