@<TRIPOS>MOLECULE
/home/cewinharhar/GITHUB/reincatalyze/data/processed/docking_pred/2023_Apr_20-15:07/3ef00b253c4480de2280c2f95d83164b82996574_ligand_2.pdbqt
 12 12 0 0 0
SMALL
GASTEIGER

@<TRIPOS>ATOM
      1  C          8.2750    0.0970   -2.1810 C.3     1  UNL1        0.1270
      2  C          9.3830    0.3060   -1.2200 C.2     1  UNL1        0.3030
      3  O          9.4830   -0.3900   -0.1800 O.2     1  UNL1       -0.2520
      4  O         10.3430    1.2810   -1.4440 O.3     1  UNL1       -0.4810
      5  H         11.3250    1.0710   -1.2460 H       1  UNL1        0.2960
      6  C          7.1700   -0.6270   -1.4750 C.3     1  UNL1        0.0470
      7  C          6.3750    0.2210   -0.5880 C.2     1  UNL1       -0.0470
      8  C          5.8730    1.4240   -1.0290 C.2     1  UNL1        0.0040
      9  C          6.1290   -0.1970    0.6990 C.2     1  UNL1        0.0040
     10  C          5.1220    2.1820   -0.1280 C.2     1  UNL1        0.0000
     11  C          5.3860    0.5540    1.5880 C.2     1  UNL1        0.0000
     12  C          4.8810    1.7600    1.1550 C.2     1  UNL1        0.0000
@<TRIPOS>BOND
     1     1     6    1
     2     1     2    1
     3     6     7    1
     4     4     5    1
     5     4     2    1
     6     2     3    2
     7     8     7    2
     8     8    10    1
     9     7     9    1
    10    10    12    2
    11     9    11    2
    12    12    11    1
