MODEL 1
REMARK VINA RESULT:      -7.3      0.000      0.000
REMARK SMILES O=C(O)CCc1ccccc1
REMARK SMILES IDX 4 1 2 2 1 3 3 4 5 6 6 7 7 8 11 9 8 10 10 11 9 12
REMARK H PARENT 3 5
REMARK Flexibility Score: inf
ROOT
ATOM      1  C   UNL     1       8.422  -0.577  -2.219  1.00  0.00     0.127 C 
ENDROOT
BRANCH   1   2
ATOM      2  C   UNL     1       8.471  -1.885  -2.915  1.00  0.00     0.303 C 
ATOM      3  O   UNL     1       9.552  -2.510  -3.049  1.00  0.00    -0.252 OA
BRANCH   2   4
ATOM      4  O   UNL     1       7.322  -2.455  -3.438  1.00  0.00    -0.481 OA
ATOM      5  H   UNL     1       7.109  -3.434  -3.230  1.00  0.00     0.296 HD
ENDBRANCH   2   4
ENDBRANCH   1   2
BRANCH   1   6
ATOM      6  C   UNL     1       6.996  -0.121  -2.174  1.00  0.00     0.047 C 
BRANCH   6   7
ATOM      7  C   UNL     1       6.470   0.054  -0.821  1.00  0.00    -0.047 A 
ATOM      8  C   UNL     1       6.602  -0.941   0.119  1.00  0.00     0.004 A 
ATOM      9  C   UNL     1       5.840   1.232  -0.494  1.00  0.00     0.004 A 
ATOM     10  C   UNL     1       6.077  -0.704   1.392  1.00  0.00     0.000 A 
ATOM     11  C   UNL     1       5.321   1.465   0.764  1.00  0.00     0.000 A 
ATOM     12  C   UNL     1       5.448   0.473   1.712  1.00  0.00     0.000 A 
ENDBRANCH   6   7
ENDBRANCH   1   6
TORSDOF 4
ENDMDL
MODEL 2
REMARK VINA RESULT:      -7.3      0.241      1.453
REMARK SMILES O=C(O)CCc1ccccc1
REMARK SMILES IDX 4 1 2 2 1 3 3 4 5 6 6 7 7 8 11 9 8 10 10 11 9 12
REMARK H PARENT 3 5
REMARK Flexibility Score: inf
ROOT
ATOM      1  C   UNL     1       8.418  -0.899  -1.824  1.00  0.00     0.127 C 
ENDROOT
BRANCH   1   2
ATOM      2  C   UNL     1       8.453  -2.006  -2.808  1.00  0.00     0.303 C 
ATOM      3  O   UNL     1       9.536  -2.550  -3.137  1.00  0.00    -0.252 OA
BRANCH   2   4
ATOM      4  O   UNL     1       7.288  -2.472  -3.395  1.00  0.00    -0.481 OA
ATOM      5  H   UNL     1       6.418  -2.466  -2.856  1.00  0.00     0.296 HD
ENDBRANCH   2   4
ENDBRANCH   1   2
BRANCH   1   6
ATOM      6  C   UNL     1       7.111  -0.180  -1.971  1.00  0.00     0.047 C 
BRANCH   6   7
ATOM      7  C   UNL     1       6.460   0.136  -0.701  1.00  0.00    -0.047 A 
ATOM      8  C   UNL     1       5.799   1.330  -0.527  1.00  0.00     0.004 A 
ATOM      9  C   UNL     1       6.512  -0.778   0.326  1.00  0.00     0.004 A 
ATOM     10  C   UNL     1       5.199   1.565   0.712  1.00  0.00     0.000 A 
ATOM     11  C   UNL     1       5.919  -0.544   1.551  1.00  0.00     0.000 A 
ATOM     12  C   UNL     1       5.255   0.650   1.733  1.00  0.00     0.000 A 
ENDBRANCH   6   7
ENDBRANCH   1   6
TORSDOF 4
ENDMDL
MODEL 3
REMARK VINA RESULT:      -6.8      3.380      5.067
REMARK SMILES O=C(O)CCc1ccccc1
REMARK SMILES IDX 4 1 2 2 1 3 3 4 5 6 6 7 7 8 11 9 8 10 10 11 9 12
REMARK H PARENT 3 5
REMARK Flexibility Score: inf
ROOT
ATOM      1  C   UNL     1       5.003   1.781   0.676  1.00  0.00     0.127 C 
ENDROOT
BRANCH   1   2
ATOM      2  C   UNL     1       4.496   1.115   1.899  1.00  0.00     0.303 C 
ATOM      3  O   UNL     1       5.162   0.220   2.476  1.00  0.00    -0.252 OA
BRANCH   2   4
ATOM      4  O   UNL     1       3.270   1.464   2.442  1.00  0.00    -0.481 OA
ATOM      5  H   UNL     1       3.240   1.946   3.345  1.00  0.00     0.296 HD
ENDBRANCH   2   4
ENDBRANCH   1   2
BRANCH   1   6
ATOM      6  C   UNL     1       6.500   1.803   0.737  1.00  0.00     0.047 C 
BRANCH   6   7
ATOM      7  C   UNL     1       7.149   1.055  -0.338  1.00  0.00    -0.047 A 
ATOM      8  C   UNL     1       8.479   1.254  -0.629  1.00  0.00     0.004 A 
ATOM      9  C   UNL     1       6.416   0.142  -1.059  1.00  0.00     0.004 A 
ATOM     10  C   UNL     1       9.034   0.504  -1.668  1.00  0.00     0.000 A 
ATOM     11  C   UNL     1       6.966  -0.599  -2.087  1.00  0.00     0.000 A 
ATOM     12  C   UNL     1       8.297  -0.405  -2.385  1.00  0.00     0.000 A 
ENDBRANCH   6   7
ENDBRANCH   1   6
TORSDOF 4
ENDMDL
MODEL 4
REMARK VINA RESULT:      -6.7      3.821      4.999
REMARK SMILES O=C(O)CCc1ccccc1
REMARK SMILES IDX 4 1 2 2 1 3 3 4 5 6 6 7 7 8 11 9 8 10 10 11 9 12
REMARK H PARENT 3 5
REMARK Flexibility Score: inf
ROOT
ATOM      1  C   UNL     1       5.400   2.906   0.009  1.00  0.00     0.127 C 
ENDROOT
BRANCH   1   2
ATOM      2  C   UNL     1       6.229   3.861   0.783  1.00  0.00     0.303 C 
ATOM      3  O   UNL     1       6.873   4.775   0.212  1.00  0.00    -0.252 OA
BRANCH   2   4
ATOM      4  O   UNL     1       6.315   3.769   2.163  1.00  0.00    -0.481 OA
ATOM      5  H   UNL     1       5.616   4.243   2.741  1.00  0.00     0.296 HD
ENDBRANCH   2   4
ENDBRANCH   1   2
BRANCH   1   6
ATOM      6  C   UNL     1       4.926   1.832   0.940  1.00  0.00     0.047 C 
BRANCH   6   7
ATOM      7  C   UNL     1       5.735   0.615   0.905  1.00  0.00    -0.047 A 
ATOM      8  C   UNL     1       6.436   0.269  -0.227  1.00  0.00     0.004 A 
ATOM      9  C   UNL     1       5.793  -0.184   2.023  1.00  0.00     0.004 A 
ATOM     10  C   UNL     1       7.189  -0.907  -0.188  1.00  0.00     0.000 A 
ATOM     11  C   UNL     1       6.538  -1.346   2.059  1.00  0.00     0.000 A 
ATOM     12  C   UNL     1       7.242  -1.702   0.929  1.00  0.00     0.000 A 
ENDBRANCH   6   7
ENDBRANCH   1   6
TORSDOF 4
ENDMDL
MODEL 5
REMARK VINA RESULT:      -6.6      1.925      2.628
REMARK SMILES O=C(O)CCc1ccccc1
REMARK SMILES IDX 4 1 2 2 1 3 3 4 5 6 6 7 7 8 11 9 8 10 10 11 9 12
REMARK H PARENT 3 5
REMARK Flexibility Score: inf
ROOT
ATOM      1  C   UNL     1       8.275   0.097  -2.181  1.00  0.00     0.127 C 
ENDROOT
BRANCH   1   2
ATOM      2  C   UNL     1       9.383   0.306  -1.220  1.00  0.00     0.303 C 
ATOM      3  O   UNL     1       9.483  -0.390  -0.180  1.00  0.00    -0.252 OA
BRANCH   2   4
ATOM      4  O   UNL     1      10.343   1.281  -1.444  1.00  0.00    -0.481 OA
ATOM      5  H   UNL     1      11.325   1.071  -1.246  1.00  0.00     0.296 HD
ENDBRANCH   2   4
ENDBRANCH   1   2
BRANCH   1   6
ATOM      6  C   UNL     1       7.170  -0.627  -1.475  1.00  0.00     0.047 C 
BRANCH   6   7
ATOM      7  C   UNL     1       6.375   0.221  -0.588  1.00  0.00    -0.047 A 
ATOM      8  C   UNL     1       5.873   1.424  -1.029  1.00  0.00     0.004 A 
ATOM      9  C   UNL     1       6.129  -0.197   0.699  1.00  0.00     0.004 A 
ATOM     10  C   UNL     1       5.122   2.182  -0.128  1.00  0.00     0.000 A 
ATOM     11  C   UNL     1       5.386   0.554   1.588  1.00  0.00     0.000 A 
ATOM     12  C   UNL     1       4.881   1.760   1.155  1.00  0.00     0.000 A 
ENDBRANCH   6   7
ENDBRANCH   1   6
TORSDOF 4
ENDMDL
