@<TRIPOS>MOLECULE
/home/cewinharhar/GITHUB/reincatalyze/data/processed/docking_pred/2023_Apr_20-15:07/404021d27c656f8fbd9408a440432f577c9906d0_ligand_2.pdbqt
 12 12 0 0 0
SMALL
GASTEIGER

@<TRIPOS>ATOM
      1  C          6.0660    1.4170    1.1800 C.3     1  UNL1        0.1270
      2  C          5.2300    0.5290    2.0220 C.2     1  UNL1        0.3030
      3  O          5.6400   -0.6020    2.3820 O.2     1  UNL1       -0.2520
      4  O          3.9680    0.9240    2.4360 O.3     1  UNL1       -0.4810
      5  H          3.7350    1.9210    2.4510 H       1  UNL1        0.2960
      6  C          5.7670    1.1210   -0.2580 C.3     1  UNL1        0.0470
      7  C          6.8830    0.5170   -0.9840 C.2     1  UNL1       -0.0470
      8  C          8.1580    1.0210   -0.8600 C.2     1  UNL1        0.0040
      9  C          6.6470   -0.5670   -1.7970 C.2     1  UNL1        0.0040
     10  C          9.1750    0.3940   -1.5830 C.2     1  UNL1        0.0000
     11  C          7.6550   -1.1850   -2.5110 C.2     1  UNL1        0.0000
     12  C          8.9340   -0.6870   -2.3930 C.2     1  UNL1        0.0000
@<TRIPOS>BOND
     1    11    12    2
     2    11     9    1
     3    12    10    1
     4     9     7    2
     5    10     8    2
     6     7     8    1
     7     7     6    1
     8     6     1    1
     9     1     2    1
    10     2     3    2
    11     2     4    1
    12     4     5    1
