@<TRIPOS>MOLECULE
/home/cewinharhar/GITHUB/reincatalyze/data/processed/docking_pred/2023_Apr_20-15:07/404021d27c656f8fbd9408a440432f577c9906d0_ligand_2.pdbqt
 12 12 0 0 0
SMALL
GASTEIGER

@<TRIPOS>ATOM
      1  C          8.0910    0.8990   -1.9700 C.3     1  UNL1        0.1270
      2  C          9.3400    0.1130   -1.8320 C.2     1  UNL1        0.3030
      3  O          9.4390   -1.0420   -2.3150 O.2     1  UNL1       -0.2520
      4  O         10.4360    0.6340   -1.1640 O.3     1  UNL1       -0.4810
      5  H         10.3140    1.4540   -0.5640 H       1  UNL1        0.2960
      6  C          6.9290   -0.0250   -1.7620 C.3     1  UNL1        0.0470
      7  C          6.4630   -0.0920   -0.3780 C.2     1  UNL1       -0.0470
      8  C          5.7450    0.9440    0.1730 C.2     1  UNL1        0.0040
      9  C          6.7480   -1.2080    0.3730 C.2     1  UNL1        0.0040
     10  C          5.3310    0.8120    1.5000 C.2     1  UNL1        0.0000
     11  C          6.3380   -1.3380    1.6850 C.2     1  UNL1        0.0000
     12  C          5.6190   -0.3040    2.2450 C.2     1  UNL1        0.0000
@<TRIPOS>BOND
     1     3     2    2
     2     1     2    1
     3     1     6    1
     4     2     4    1
     5     6     7    1
     6     4     5    1
     7     7     8    2
     8     7     9    1
     9     8    10    1
    10     9    11    2
    11    10    12    2
    12    11    12    1
