@<TRIPOS>MOLECULE
/home/cewinharhar/GITHUB/reincatalyze/data/processed/docking_pred/2023_Apr_20-15:07/404021d27c656f8fbd9408a440432f577c9906d0_ligand_2.pdbqt
 12 12 0 0 0
SMALL
GASTEIGER

@<TRIPOS>ATOM
      1  C          8.5080   -0.5900   -2.2030 C.3     1  UNL1        0.1270
      2  C          8.5090   -1.8710   -2.9480 C.2     1  UNL1        0.3030
      3  O          9.5750   -2.5030   -3.1540 O.2     1  UNL1       -0.2520
      4  O          7.3310   -2.4090   -3.4390 O.3     1  UNL1       -0.4810
      5  H          6.9140   -3.2170   -2.9690 H       1  UNL1        0.2960
      6  C          7.0890   -0.1280   -2.0650 C.3     1  UNL1        0.0470
      7  C          6.5910   -0.1410   -0.6900 C.2     1  UNL1       -0.0470
      8  C          6.7920   -1.2340    0.1200 C.2     1  UNL1        0.0040
      9  C          5.9180    0.9580   -0.2100 C.2     1  UNL1        0.0040
     10  C          6.2900   -1.1770    1.4220 C.2     1  UNL1        0.0000
     11  C          5.4220    1.0130    1.0780 C.2     1  UNL1        0.0000
     12  C          5.6180   -0.0780    1.8960 C.2     1  UNL1        0.0000
@<TRIPOS>BOND
     1     4     5    1
     2     4     2    1
     3     3     2    2
     4     2     1    1
     5     1     6    1
     6     6     7    1
     7     7     9    2
     8     7     8    1
     9     9    11    1
    10     8    10    2
    11    11    12    2
    12    10    12    1
