@<TRIPOS>MOLECULE
/home/cewinharhar/GITHUB/reincatalyze/data/processed/docking_pred/2023_Apr_20-15:07/404021d27c656f8fbd9408a440432f577c9906d0_ligand_2.pdbqt
 12 12 0 0 0
SMALL
GASTEIGER

@<TRIPOS>ATOM
      1  C          5.9830   -0.7490    1.7310 C.3     1  UNL1        0.1270
      2  C          5.3070    0.5460    1.9850 C.2     1  UNL1        0.3030
      3  O          4.1500    0.5920    2.4710 O.2     1  UNL1       -0.2520
      4  O          5.9360    1.7440    1.6890 O.3     1  UNL1       -0.4810
      5  H          5.6250    2.2870    0.8790 H       1  UNL1        0.2960
      6  C          7.4120   -0.4730    1.3790 C.3     1  UNL1        0.0470
      7  C          7.6680   -0.4060   -0.0590 C.2     1  UNL1       -0.0470
      8  C          6.9550   -1.1890   -0.9370 C.2     1  UNL1        0.0040
      9  C          8.6320    0.4540   -0.5300 C.2     1  UNL1        0.0040
     10  C          7.2510   -1.0730   -2.2970 C.2     1  UNL1        0.0000
     11  C          8.9240    0.5680   -1.8750 C.2     1  UNL1        0.0000
     12  C          8.2150   -0.2140   -2.7610 C.2     1  UNL1        0.0000
@<TRIPOS>BOND
     1    12    10    2
     2    12    11    1
     3    10     8    1
     4    11     9    2
     5     8     7    2
     6     9     7    1
     7     7     6    1
     8     5     4    1
     9     6     1    1
    10     4     2    1
    11     1     2    1
    12     2     3    2
