@<TRIPOS>MOLECULE
/home/cewinharhar/GITHUB/reincatalyze/data/processed/docking_pred/2023_Apr_20-15:07/41d0b72e0d67d5e9a3b384f9954b5fa92cfe5642_ligand_2.pdbqt
 12 12 0 0 0
SMALL
GASTEIGER

@<TRIPOS>ATOM
      1  C          8.3450    0.2600   -1.9910 C.3     1  UNL1        0.1270
      2  C          9.4820    0.3700   -1.0470 C.2     1  UNL1        0.3030
      3  O          9.5610   -0.3680   -0.0340 O.2     1  UNL1       -0.2520
      4  O         10.4930    1.2940   -1.2570 O.3     1  UNL1       -0.4810
      5  H         11.4580    0.9670   -1.3570 H       1  UNL1        0.2960
      6  C          7.2830   -0.5820   -1.3530 C.3     1  UNL1        0.0470
      7  C          6.4410    0.1430   -0.4030 C.2     1  UNL1       -0.0470
      8  C          5.8850    1.3560   -0.7390 C.2     1  UNL1        0.0040
      9  C          6.2050   -0.4020    0.8370 C.2     1  UNL1        0.0040
     10  C          5.0900    1.9920    0.2170 C.2     1  UNL1        0.0000
     11  C          5.4190    0.2280    1.7820 C.2     1  UNL1        0.0000
     12  C          4.8590    1.4440    1.4530 C.2     1  UNL1        0.0000
@<TRIPOS>BOND
     1     1     6    1
     2     1     2    1
     3     5     4    1
     4     6     7    1
     5     4     2    1
     6     2     3    2
     7     8     7    2
     8     8    10    1
     9     7     9    1
    10    10    12    2
    11     9    11    2
    12    12    11    1
