@<TRIPOS>MOLECULE
/home/cewinharhar/GITHUB/reincatalyze/data/processed/docking_pred/2023_Apr_20-15:07/41d0b72e0d67d5e9a3b384f9954b5fa92cfe5642_ligand_2.pdbqt
 12 12 0 0 0
SMALL
GASTEIGER

@<TRIPOS>ATOM
      1  C          4.9720    1.8050    0.6710 C.3     1  UNL1        0.1270
      2  C          4.4910    1.1280    1.8980 C.2     1  UNL1        0.3030
      3  O          5.1800    0.2460    2.4680 O.2     1  UNL1       -0.2520
      4  O          3.2630    1.4510    2.4520 O.3     1  UNL1       -0.4810
      5  H          3.1810    2.2870    3.0380 H       1  UNL1        0.2960
      6  C          6.4700    1.8390    0.7080 C.3     1  UNL1        0.0470
      7  C          7.1090    1.0800   -0.3660 C.2     1  UNL1       -0.0470
      8  C          6.3770    0.2170   -1.1490 C.2     1  UNL1        0.0040
      9  C          8.4570    1.2390   -0.5890 C.2     1  UNL1        0.0040
     10  C          7.0530   -0.4740   -2.1570 C.2     1  UNL1        0.0000
     11  C          9.1230    0.5540   -1.5860 C.2     1  UNL1        0.0000
     12  C          8.3980   -0.3130   -2.3750 C.2     1  UNL1        0.0000
@<TRIPOS>BOND
     1    12    10    2
     2    12    11    1
     3    10     8    1
     4    11     9    2
     5     8     7    2
     6     9     7    1
     7     7     6    1
     8     1     6    1
     9     1     2    1
    10     2     4    1
    11     2     3    2
    12     4     5    1
