@<TRIPOS>MOLECULE
/home/cewinharhar/GITHUB/reincatalyze/data/processed/docking_pred/2023_Apr_20-15:07/41d0b72e0d67d5e9a3b384f9954b5fa92cfe5642_ligand_2.pdbqt
 12 12 0 0 0
SMALL
GASTEIGER

@<TRIPOS>ATOM
      1  C          8.4620   -0.5940   -2.1880 C.3     1  UNL1        0.1270
      2  C          8.4880   -1.8850   -2.9160 C.2     1  UNL1        0.3030
      3  O          9.5630   -2.5080   -3.0990 O.2     1  UNL1       -0.2520
      4  O          7.3220   -2.4400   -3.4170 O.3     1  UNL1       -0.4810
      5  H          6.7300   -3.0040   -2.8010 H       1  UNL1        0.2960
      6  C          7.0490   -0.0980   -2.1580 C.3     1  UNL1        0.0470
      7  C          6.5010    0.0550   -0.8110 C.2     1  UNL1       -0.0470
      8  C          6.6360   -0.9470    0.1210 C.2     1  UNL1        0.0040
      9  C          5.8470    1.2200   -0.4810 C.2     1  UNL1        0.0040
     10  C          6.0880   -0.7310    1.3880 C.2     1  UNL1        0.0000
     11  C          5.3060    1.4310    0.7710 C.2     1  UNL1        0.0000
     12  C          5.4360    0.4320    1.7110 C.2     1  UNL1        0.0000
@<TRIPOS>BOND
     1     4     2    1
     2     4     5    1
     3     3     2    2
     4     2     1    1
     5     1     6    1
     6     6     7    1
     7     7     9    2
     8     7     8    1
     9     9    11    1
    10     8    10    2
    11    11    12    2
    12    10    12    1
