MODEL 1
REMARK VINA RESULT:      -7.4      0.000      0.000
REMARK SMILES O=C(O)CCc1ccccc1
REMARK SMILES IDX 4 1 2 2 1 3 3 4 5 6 6 7 7 8 11 9 8 10 10 11 9 12
REMARK H PARENT 3 5
REMARK Flexibility Score: inf
ROOT
ATOM      1  C   UNL     1       8.462  -0.594  -2.188  1.00  0.00     0.127 C 
ENDROOT
BRANCH   1   2
ATOM      2  C   UNL     1       8.488  -1.885  -2.916  1.00  0.00     0.303 C 
ATOM      3  O   UNL     1       9.563  -2.508  -3.099  1.00  0.00    -0.252 OA
BRANCH   2   4
ATOM      4  O   UNL     1       7.322  -2.440  -3.417  1.00  0.00    -0.481 OA
ATOM      5  H   UNL     1       6.730  -3.004  -2.801  1.00  0.00     0.296 HD
ENDBRANCH   2   4
ENDBRANCH   1   2
BRANCH   1   6
ATOM      6  C   UNL     1       7.049  -0.098  -2.158  1.00  0.00     0.047 C 
BRANCH   6   7
ATOM      7  C   UNL     1       6.501   0.055  -0.811  1.00  0.00    -0.047 A 
ATOM      8  C   UNL     1       6.636  -0.947   0.121  1.00  0.00     0.004 A 
ATOM      9  C   UNL     1       5.847   1.220  -0.481  1.00  0.00     0.004 A 
ATOM     10  C   UNL     1       6.088  -0.731   1.388  1.00  0.00     0.000 A 
ATOM     11  C   UNL     1       5.306   1.431   0.771  1.00  0.00     0.000 A 
ATOM     12  C   UNL     1       5.436   0.432   1.711  1.00  0.00     0.000 A 
ENDBRANCH   6   7
ENDBRANCH   1   6
TORSDOF 4
ENDMDL
MODEL 2
REMARK VINA RESULT:      -7.4      0.111      1.441
REMARK SMILES O=C(O)CCc1ccccc1
REMARK SMILES IDX 4 1 2 2 1 3 3 4 5 6 6 7 7 8 11 9 8 10 10 11 9 12
REMARK H PARENT 3 5
REMARK Flexibility Score: inf
ROOT
ATOM      1  C   UNL     1       8.399  -0.690  -2.061  1.00  0.00     0.127 C 
ENDROOT
BRANCH   1   2
ATOM      2  C   UNL     1       8.443  -1.929  -2.873  1.00  0.00     0.303 C 
ATOM      3  O   UNL     1       9.528  -2.519  -3.102  1.00  0.00    -0.252 OA
BRANCH   2   4
ATOM      4  O   UNL     1       7.284  -2.472  -3.403  1.00  0.00    -0.481 OA
ATOM      5  H   UNL     1       6.645  -1.871  -3.932  1.00  0.00     0.296 HD
ENDBRANCH   2   4
ENDBRANCH   1   2
BRANCH   1   6
ATOM      6  C   UNL     1       6.992  -0.175  -2.065  1.00  0.00     0.047 C 
BRANCH   6   7
ATOM      7  C   UNL     1       6.437   0.048  -0.731  1.00  0.00    -0.047 A 
ATOM      8  C   UNL     1       5.805   1.230  -0.420  1.00  0.00     0.004 A 
ATOM      9  C   UNL     1       6.550  -0.942   0.218  1.00  0.00     0.004 A 
ATOM     10  C   UNL     1       5.297   1.373   0.873  1.00  0.00     0.000 A 
ATOM     11  C   UNL     1       6.049  -0.798   1.496  1.00  0.00     0.000 A 
ATOM     12  C   UNL     1       5.415   0.383   1.815  1.00  0.00     0.000 A 
ENDBRANCH   6   7
ENDBRANCH   1   6
TORSDOF 4
ENDMDL
MODEL 3
REMARK VINA RESULT:      -6.8      3.373      5.067
REMARK SMILES O=C(O)CCc1ccccc1
REMARK SMILES IDX 4 1 2 2 1 3 3 4 5 6 6 7 7 8 11 9 8 10 10 11 9 12
REMARK H PARENT 3 5
REMARK Flexibility Score: inf
ROOT
ATOM      1  C   UNL     1       4.972   1.805   0.671  1.00  0.00     0.127 C 
ENDROOT
BRANCH   1   2
ATOM      2  C   UNL     1       4.491   1.128   1.898  1.00  0.00     0.303 C 
ATOM      3  O   UNL     1       5.180   0.246   2.468  1.00  0.00    -0.252 OA
BRANCH   2   4
ATOM      4  O   UNL     1       3.263   1.451   2.452  1.00  0.00    -0.481 OA
ATOM      5  H   UNL     1       3.181   2.287   3.038  1.00  0.00     0.296 HD
ENDBRANCH   2   4
ENDBRANCH   1   2
BRANCH   1   6
ATOM      6  C   UNL     1       6.470   1.839   0.708  1.00  0.00     0.047 C 
BRANCH   6   7
ATOM      7  C   UNL     1       7.109   1.080  -0.366  1.00  0.00    -0.047 A 
ATOM      8  C   UNL     1       6.377   0.217  -1.149  1.00  0.00     0.004 A 
ATOM      9  C   UNL     1       8.457   1.239  -0.589  1.00  0.00     0.004 A 
ATOM     10  C   UNL     1       7.053  -0.474  -2.157  1.00  0.00     0.000 A 
ATOM     11  C   UNL     1       9.123   0.554  -1.586  1.00  0.00     0.000 A 
ATOM     12  C   UNL     1       8.398  -0.313  -2.375  1.00  0.00     0.000 A 
ENDBRANCH   6   7
ENDBRANCH   1   6
TORSDOF 4
ENDMDL
MODEL 4
REMARK VINA RESULT:      -6.7      3.816      4.946
REMARK SMILES O=C(O)CCc1ccccc1
REMARK SMILES IDX 4 1 2 2 1 3 3 4 5 6 6 7 7 8 11 9 8 10 10 11 9 12
REMARK H PARENT 3 5
REMARK Flexibility Score: inf
ROOT
ATOM      1  C   UNL     1       5.540   2.889  -0.108  1.00  0.00     0.127 C 
ENDROOT
BRANCH   1   2
ATOM      2  C   UNL     1       6.282   3.840   0.753  1.00  0.00     0.303 C 
ATOM      3  O   UNL     1       6.970   4.767   0.258  1.00  0.00    -0.252 OA
BRANCH   2   4
ATOM      4  O   UNL     1       6.238   3.730   2.134  1.00  0.00    -0.481 OA
ATOM      5  H   UNL     1       7.107   3.580   2.653  1.00  0.00     0.296 HD
ENDBRANCH   2   4
ENDBRANCH   1   2
BRANCH   1   6
ATOM      6  C   UNL     1       4.928   1.839   0.767  1.00  0.00     0.047 C 
BRANCH   6   7
ATOM      7  C   UNL     1       5.664   0.576   0.783  1.00  0.00    -0.047 A 
ATOM      8  C   UNL     1       6.260   0.095  -0.359  1.00  0.00     0.004 A 
ATOM      9  C   UNL     1       5.757  -0.132   1.959  1.00  0.00     0.004 A 
ATOM     10  C   UNL     1       6.947  -1.118  -0.271  1.00  0.00     0.000 A 
ATOM     11  C   UNL     1       6.436  -1.331   2.045  1.00  0.00     0.000 A 
ATOM     12  C   UNL     1       7.036  -1.820   0.905  1.00  0.00     0.000 A 
ENDBRANCH   6   7
ENDBRANCH   1   6
TORSDOF 4
ENDMDL
MODEL 5
REMARK VINA RESULT:      -6.6      2.007      2.678
REMARK SMILES O=C(O)CCc1ccccc1
REMARK SMILES IDX 4 1 2 2 1 3 3 4 5 6 6 7 7 8 11 9 8 10 10 11 9 12
REMARK H PARENT 3 5
REMARK Flexibility Score: inf
ROOT
ATOM      1  C   UNL     1       8.345   0.260  -1.991  1.00  0.00     0.127 C 
ENDROOT
BRANCH   1   2
ATOM      2  C   UNL     1       9.482   0.370  -1.047  1.00  0.00     0.303 C 
ATOM      3  O   UNL     1       9.561  -0.368  -0.034  1.00  0.00    -0.252 OA
BRANCH   2   4
ATOM      4  O   UNL     1      10.493   1.294  -1.257  1.00  0.00    -0.481 OA
ATOM      5  H   UNL     1      11.458   0.967  -1.357  1.00  0.00     0.296 HD
ENDBRANCH   2   4
ENDBRANCH   1   2
BRANCH   1   6
ATOM      6  C   UNL     1       7.283  -0.582  -1.353  1.00  0.00     0.047 C 
BRANCH   6   7
ATOM      7  C   UNL     1       6.441   0.143  -0.403  1.00  0.00    -0.047 A 
ATOM      8  C   UNL     1       5.885   1.356  -0.739  1.00  0.00     0.004 A 
ATOM      9  C   UNL     1       6.205  -0.402   0.837  1.00  0.00     0.004 A 
ATOM     10  C   UNL     1       5.090   1.992   0.217  1.00  0.00     0.000 A 
ATOM     11  C   UNL     1       5.419   0.228   1.782  1.00  0.00     0.000 A 
ATOM     12  C   UNL     1       4.859   1.444   1.453  1.00  0.00     0.000 A 
ENDBRANCH   6   7
ENDBRANCH   1   6
TORSDOF 4
ENDMDL
