@<TRIPOS>MOLECULE
/home/cewinharhar/GITHUB/reincatalyze/data/processed/docking_pred/2023_Apr_20-15:07/41d0b72e0d67d5e9a3b384f9954b5fa92cfe5642_ligand_2.pdbqt
 12 12 0 0 0
SMALL
GASTEIGER

@<TRIPOS>ATOM
      1  C          5.5400    2.8890   -0.1080 C.3     1  UNL1        0.1270
      2  C          6.2820    3.8400    0.7530 C.2     1  UNL1        0.3030
      3  O          6.9700    4.7670    0.2580 O.2     1  UNL1       -0.2520
      4  O          6.2380    3.7300    2.1340 O.3     1  UNL1       -0.4810
      5  H          7.1070    3.5800    2.6530 H       1  UNL1        0.2960
      6  C          4.9280    1.8390    0.7670 C.3     1  UNL1        0.0470
      7  C          5.6640    0.5760    0.7830 C.2     1  UNL1       -0.0470
      8  C          6.2600    0.0950   -0.3590 C.2     1  UNL1        0.0040
      9  C          5.7570   -0.1320    1.9590 C.2     1  UNL1        0.0040
     10  C          6.9470   -1.1180   -0.2710 C.2     1  UNL1        0.0000
     11  C          6.4360   -1.3310    2.0450 C.2     1  UNL1        0.0000
     12  C          7.0360   -1.8200    0.9050 C.2     1  UNL1        0.0000
@<TRIPOS>BOND
     1     8    10    1
     2     8     7    2
     3    10    12    2
     4     1     2    1
     5     1     6    1
     6     3     2    2
     7     2     4    1
     8     6     7    1
     9     7     9    1
    10    12    11    1
    11     9    11    2
    12     4     5    1
