@<TRIPOS>MOLECULE
/home/cewinharhar/GITHUB/reincatalyze/data/processed/docking_pred/2023_Apr_20-15:07/41d0b72e0d67d5e9a3b384f9954b5fa92cfe5642_ligand_2.pdbqt
 12 12 0 0 0
SMALL
GASTEIGER

@<TRIPOS>ATOM
      1  C          8.3990   -0.6900   -2.0610 C.3     1  UNL1        0.1270
      2  C          8.4430   -1.9290   -2.8730 C.2     1  UNL1        0.3030
      3  O          9.5280   -2.5190   -3.1020 O.2     1  UNL1       -0.2520
      4  O          7.2840   -2.4720   -3.4030 O.3     1  UNL1       -0.4810
      5  H          6.6450   -1.8710   -3.9320 H       1  UNL1        0.2960
      6  C          6.9920   -0.1750   -2.0650 C.3     1  UNL1        0.0470
      7  C          6.4370    0.0480   -0.7310 C.2     1  UNL1       -0.0470
      8  C          5.8050    1.2300   -0.4200 C.2     1  UNL1        0.0040
      9  C          6.5500   -0.9420    0.2180 C.2     1  UNL1        0.0040
     10  C          5.2970    1.3730    0.8730 C.2     1  UNL1        0.0000
     11  C          6.0490   -0.7980    1.4960 C.2     1  UNL1        0.0000
     12  C          5.4150    0.3830    1.8150 C.2     1  UNL1        0.0000
@<TRIPOS>BOND
     1     5     4    1
     2     4     2    1
     3     3     2    2
     4     2     1    1
     5     6     1    1
     6     6     7    1
     7     7     8    2
     8     7     9    1
     9     8    10    1
    10     9    11    2
    11    10    12    2
    12    11    12    1
