@<TRIPOS>MOLECULE
/home/cewinharhar/GITHUB/reincatalyze/data/processed/docking_pred/2023_Apr_20-15:07/437598aa9d4ddbb457dda5082e5f4820e6dbe55d_ligand_2.pdbqt
 12 12 0 0 0
SMALL
GASTEIGER

@<TRIPOS>ATOM
      1  C          5.4960    2.8670   -0.0080 C.3     1  UNL1        0.1270
      2  C          6.2450    3.8670    0.7880 C.2     1  UNL1        0.3030
      3  O          6.9110    4.7750    0.2320 O.2     1  UNL1       -0.2520
      4  O          6.2320    3.8270    2.1730 O.3     1  UNL1       -0.4810
      5  H          5.4870    3.3130    2.6520 H       1  UNL1        0.2960
      6  C          4.9420    1.8380    0.9300 C.3     1  UNL1        0.0470
      7  C          5.7120    0.5950    0.9700 C.2     1  UNL1       -0.0470
      8  C          5.7240   -0.1880    2.1010 C.2     1  UNL1        0.0040
      9  C          6.4270    0.2120   -0.1410 C.2     1  UNL1        0.0040
     10  C          6.4800   -1.3620    2.0680 C.2     1  UNL1        0.0000
     11  C          7.1740   -0.9480   -0.1720 C.2     1  UNL1        0.0000
     12  C          7.1920   -1.7390    0.9570 C.2     1  UNL1        0.0000
@<TRIPOS>BOND
     1    11     9    1
     2    11    12    2
     3     9     7    2
     4     1     2    1
     5     1     6    1
     6     3     2    2
     7     2     4    1
     8     6     7    1
     9    12    10    1
    10     7     8    1
    11    10     8    2
    12     4     5    1
