MODEL 1
REMARK VINA RESULT:      -7.3      0.000      0.000
REMARK SMILES O=C(O)CCc1ccccc1
REMARK SMILES IDX 4 1 2 2 1 3 3 4 5 6 6 7 7 8 11 9 8 10 10 11 9 12
REMARK H PARENT 3 5
REMARK Flexibility Score: inf
ROOT
ATOM      1  C   UNL     1       8.438  -0.580  -2.213  1.00  0.00     0.127 C 
ENDROOT
BRANCH   1   2
ATOM      2  C   UNL     1       8.489  -1.881  -2.921  1.00  0.00     0.303 C 
ATOM      3  O   UNL     1       9.580  -2.468  -3.126  1.00  0.00    -0.252 OA
BRANCH   2   4
ATOM      4  O   UNL     1       7.329  -2.487  -3.378  1.00  0.00    -0.481 OA
ATOM      5  H   UNL     1       6.548  -2.624  -2.731  1.00  0.00     0.296 HD
ENDBRANCH   2   4
ENDBRANCH   1   2
BRANCH   1   6
ATOM      6  C   UNL     1       7.009  -0.133  -2.152  1.00  0.00     0.047 C 
BRANCH   6   7
ATOM      7  C   UNL     1       6.494   0.028  -0.793  1.00  0.00    -0.047 A 
ATOM      8  C   UNL     1       6.631  -0.978   0.135  1.00  0.00     0.004 A 
ATOM      9  C   UNL     1       5.869   1.204  -0.447  1.00  0.00     0.004 A 
ATOM     10  C   UNL     1       6.117  -0.754   1.414  1.00  0.00     0.000 A 
ATOM     11  C   UNL     1       5.360   1.423   0.817  1.00  0.00     0.000 A 
ATOM     12  C   UNL     1       5.493   0.421   1.753  1.00  0.00     0.000 A 
ENDBRANCH   6   7
ENDBRANCH   1   6
TORSDOF 4
ENDMDL
MODEL 2
REMARK VINA RESULT:      -7.3      0.127      1.733
REMARK SMILES O=C(O)CCc1ccccc1
REMARK SMILES IDX 4 1 2 2 1 3 3 4 5 6 6 7 7 8 11 9 8 10 10 11 9 12
REMARK H PARENT 3 5
REMARK Flexibility Score: inf
ROOT
ATOM      1  C   UNL     1       8.396  -0.650  -2.076  1.00  0.00     0.127 C 
ENDROOT
BRANCH   1   2
ATOM      2  C   UNL     1       8.369  -1.897  -2.876  1.00  0.00     0.303 C 
ATOM      3  O   UNL     1       7.284  -2.408  -3.249  1.00  0.00    -0.252 OA
BRANCH   2   4
ATOM      4  O   UNL     1       9.546  -2.536  -3.234  1.00  0.00    -0.481 OA
ATOM      5  H   UNL     1       9.991  -2.302  -4.126  1.00  0.00     0.296 HD
ENDBRANCH   2   4
ENDBRANCH   1   2
BRANCH   1   6
ATOM      6  C   UNL     1       7.016  -0.066  -2.068  1.00  0.00     0.047 C 
BRANCH   6   7
ATOM      7  C   UNL     1       6.449   0.103  -0.731  1.00  0.00    -0.047 A 
ATOM      8  C   UNL     1       5.799   1.264  -0.385  1.00  0.00     0.004 A 
ATOM      9  C   UNL     1       6.571  -0.918   0.184  1.00  0.00     0.004 A 
ATOM     10  C   UNL     1       5.281   1.356   0.910  1.00  0.00     0.000 A 
ATOM     11  C   UNL     1       6.060  -0.825   1.463  1.00  0.00     0.000 A 
ATOM     12  C   UNL     1       5.407   0.336   1.818  1.00  0.00     0.000 A 
ENDBRANCH   6   7
ENDBRANCH   1   6
TORSDOF 4
ENDMDL
MODEL 3
REMARK VINA RESULT:      -6.8      3.369      5.073
REMARK SMILES O=C(O)CCc1ccccc1
REMARK SMILES IDX 4 1 2 2 1 3 3 4 5 6 6 7 7 8 11 9 8 10 10 11 9 12
REMARK H PARENT 3 5
REMARK Flexibility Score: inf
ROOT
ATOM      1  C   UNL     1       5.014   1.769   0.671  1.00  0.00     0.127 C 
ENDROOT
BRANCH   1   2
ATOM      2  C   UNL     1       4.510   1.115   1.902  1.00  0.00     0.303 C 
ATOM      3  O   UNL     1       5.182   0.232   2.491  1.00  0.00    -0.252 OA
BRANCH   2   4
ATOM      4  O   UNL     1       3.280   1.460   2.437  1.00  0.00    -0.481 OA
ATOM      5  H   UNL     1       3.113   2.428   2.726  1.00  0.00     0.296 HD
ENDBRANCH   2   4
ENDBRANCH   1   2
BRANCH   1   6
ATOM      6  C   UNL     1       6.511   1.793   0.730  1.00  0.00     0.047 C 
BRANCH   6   7
ATOM      7  C   UNL     1       7.160   1.047  -0.346  1.00  0.00    -0.047 A 
ATOM      8  C   UNL     1       8.491   1.244  -0.635  1.00  0.00     0.004 A 
ATOM      9  C   UNL     1       6.425   0.139  -1.072  1.00  0.00     0.004 A 
ATOM     10  C   UNL     1       9.046   0.496  -1.676  1.00  0.00     0.000 A 
ATOM     11  C   UNL     1       6.975  -0.600  -2.101  1.00  0.00     0.000 A 
ATOM     12  C   UNL     1       8.307  -0.408  -2.397  1.00  0.00     0.000 A 
ENDBRANCH   6   7
ENDBRANCH   1   6
TORSDOF 4
ENDMDL
MODEL 4
REMARK VINA RESULT:      -6.7      3.831      4.930
REMARK SMILES O=C(O)CCc1ccccc1
REMARK SMILES IDX 4 1 2 2 1 3 3 4 5 6 6 7 7 8 11 9 8 10 10 11 9 12
REMARK H PARENT 3 5
REMARK Flexibility Score: inf
ROOT
ATOM      1  C   UNL     1       5.496   2.867  -0.008  1.00  0.00     0.127 C 
ENDROOT
BRANCH   1   2
ATOM      2  C   UNL     1       6.245   3.867   0.788  1.00  0.00     0.303 C 
ATOM      3  O   UNL     1       6.911   4.775   0.232  1.00  0.00    -0.252 OA
BRANCH   2   4
ATOM      4  O   UNL     1       6.232   3.827   2.173  1.00  0.00    -0.481 OA
ATOM      5  H   UNL     1       5.487   3.313   2.652  1.00  0.00     0.296 HD
ENDBRANCH   2   4
ENDBRANCH   1   2
BRANCH   1   6
ATOM      6  C   UNL     1       4.942   1.838   0.930  1.00  0.00     0.047 C 
BRANCH   6   7
ATOM      7  C   UNL     1       5.712   0.595   0.970  1.00  0.00    -0.047 A 
ATOM      8  C   UNL     1       5.724  -0.188   2.101  1.00  0.00     0.004 A 
ATOM      9  C   UNL     1       6.427   0.212  -0.141  1.00  0.00     0.004 A 
ATOM     10  C   UNL     1       6.480  -1.362   2.068  1.00  0.00     0.000 A 
ATOM     11  C   UNL     1       7.174  -0.948  -0.172  1.00  0.00     0.000 A 
ATOM     12  C   UNL     1       7.192  -1.739   0.957  1.00  0.00     0.000 A 
ENDBRANCH   6   7
ENDBRANCH   1   6
TORSDOF 4
ENDMDL
MODEL 5
REMARK VINA RESULT:      -6.7      1.972      2.334
REMARK SMILES O=C(O)CCc1ccccc1
REMARK SMILES IDX 4 1 2 2 1 3 3 4 5 6 6 7 7 8 11 9 8 10 10 11 9 12
REMARK H PARENT 3 5
REMARK Flexibility Score: inf
ROOT
ATOM      1  C   UNL     1       8.303   0.216  -2.090  1.00  0.00     0.127 C 
ENDROOT
BRANCH   1   2
ATOM      2  C   UNL     1       9.438   0.365  -1.148  1.00  0.00     0.303 C 
ATOM      3  O   UNL     1       9.535  -0.360  -0.127  1.00  0.00    -0.252 OA
BRANCH   2   4
ATOM      4  O   UNL     1      10.425   1.312  -1.369  1.00  0.00    -0.481 OA
ATOM      5  H   UNL     1      10.436   1.827  -2.253  1.00  0.00     0.296 HD
ENDBRANCH   2   4
ENDBRANCH   1   2
BRANCH   1   6
ATOM      6  C   UNL     1       7.228  -0.576  -1.411  1.00  0.00     0.047 C 
BRANCH   6   7
ATOM      7  C   UNL     1       6.406   0.205  -0.488  1.00  0.00    -0.047 A 
ATOM      8  C   UNL     1       6.165  -0.242   0.790  1.00  0.00     0.004 A 
ATOM      9  C   UNL     1       5.874   1.401  -0.912  1.00  0.00     0.004 A 
ATOM     10  C   UNL     1       5.371   0.557   1.617  1.00  0.00     0.000 A 
ATOM     11  C   UNL     1       5.090   2.189  -0.093  1.00  0.00     0.000 A 
ATOM     12  C   UNL     1       4.842   1.748   1.189  1.00  0.00     0.000 A 
ENDBRANCH   6   7
ENDBRANCH   1   6
TORSDOF 4
ENDMDL
