@<TRIPOS>MOLECULE
/home/cewinharhar/GITHUB/reincatalyze/data/processed/docking_pred/2023_Apr_20-15:07/437598aa9d4ddbb457dda5082e5f4820e6dbe55d_ligand_2.pdbqt
 12 12 0 0 0
SMALL
GASTEIGER

@<TRIPOS>ATOM
      1  C          8.4380   -0.5800   -2.2130 C.3     1  UNL1        0.1270
      2  C          8.4890   -1.8810   -2.9210 C.2     1  UNL1        0.3030
      3  O          9.5800   -2.4680   -3.1260 O.2     1  UNL1       -0.2520
      4  O          7.3290   -2.4870   -3.3780 O.3     1  UNL1       -0.4810
      5  H          6.5480   -2.6240   -2.7310 H       1  UNL1        0.2960
      6  C          7.0090   -0.1330   -2.1520 C.3     1  UNL1        0.0470
      7  C          6.4940    0.0280   -0.7930 C.2     1  UNL1       -0.0470
      8  C          6.6310   -0.9780    0.1350 C.2     1  UNL1        0.0040
      9  C          5.8690    1.2040   -0.4470 C.2     1  UNL1        0.0040
     10  C          6.1170   -0.7540    1.4140 C.2     1  UNL1        0.0000
     11  C          5.3600    1.4230    0.8170 C.2     1  UNL1        0.0000
     12  C          5.4930    0.4210    1.7530 C.2     1  UNL1        0.0000
@<TRIPOS>BOND
     1     4     2    1
     2     4     5    1
     3     3     2    2
     4     2     1    1
     5     1     6    1
     6     6     7    1
     7     7     9    2
     8     7     8    1
     9     9    11    1
    10     8    10    2
    11    11    12    2
    12    10    12    1
