@<TRIPOS>MOLECULE
/home/cewinharhar/GITHUB/reincatalyze/data/processed/docking_pred/2023_Apr_20-15:07/437598aa9d4ddbb457dda5082e5f4820e6dbe55d_ligand_2.pdbqt
 12 12 0 0 0
SMALL
GASTEIGER

@<TRIPOS>ATOM
      1  C          8.3960   -0.6500   -2.0760 C.3     1  UNL1        0.1270
      2  C          8.3690   -1.8970   -2.8760 C.2     1  UNL1        0.3030
      3  O          7.2840   -2.4080   -3.2490 O.2     1  UNL1       -0.2520
      4  O          9.5460   -2.5360   -3.2340 O.3     1  UNL1       -0.4810
      5  H          9.9910   -2.3020   -4.1260 H       1  UNL1        0.2960
      6  C          7.0160   -0.0660   -2.0680 C.3     1  UNL1        0.0470
      7  C          6.4490    0.1030   -0.7310 C.2     1  UNL1       -0.0470
      8  C          5.7990    1.2640   -0.3850 C.2     1  UNL1        0.0040
      9  C          6.5710   -0.9180    0.1840 C.2     1  UNL1        0.0040
     10  C          5.2810    1.3560    0.9100 C.2     1  UNL1        0.0000
     11  C          6.0600   -0.8250    1.4630 C.2     1  UNL1        0.0000
     12  C          5.4070    0.3360    1.8180 C.2     1  UNL1        0.0000
@<TRIPOS>BOND
     1     5     4    1
     2     3     2    2
     3     4     2    1
     4     2     1    1
     5     1     6    1
     6     6     7    1
     7     7     8    2
     8     7     9    1
     9     8    10    1
    10     9    11    2
    11    10    12    2
    12    11    12    1
