@<TRIPOS>MOLECULE
/home/cewinharhar/GITHUB/reincatalyze/data/processed/docking_pred/2023_Apr_20-15:07/437598aa9d4ddbb457dda5082e5f4820e6dbe55d_ligand_2.pdbqt
 12 12 0 0 0
SMALL
GASTEIGER

@<TRIPOS>ATOM
      1  C          8.3030    0.2160   -2.0900 C.3     1  UNL1        0.1270
      2  C          9.4380    0.3650   -1.1480 C.2     1  UNL1        0.3030
      3  O          9.5350   -0.3600   -0.1270 O.2     1  UNL1       -0.2520
      4  O         10.4250    1.3120   -1.3690 O.3     1  UNL1       -0.4810
      5  H         10.4360    1.8270   -2.2530 H       1  UNL1        0.2960
      6  C          7.2280   -0.5760   -1.4110 C.3     1  UNL1        0.0470
      7  C          6.4060    0.2050   -0.4880 C.2     1  UNL1       -0.0470
      8  C          6.1650   -0.2420    0.7900 C.2     1  UNL1        0.0040
      9  C          5.8740    1.4010   -0.9120 C.2     1  UNL1        0.0040
     10  C          5.3710    0.5570    1.6170 C.2     1  UNL1        0.0000
     11  C          5.0900    2.1890   -0.0930 C.2     1  UNL1        0.0000
     12  C          4.8420    1.7480    1.1890 C.2     1  UNL1        0.0000
@<TRIPOS>BOND
     1     5     4    1
     2     1     6    1
     3     1     2    1
     4     6     7    1
     5     4     2    1
     6     2     3    2
     7     9     7    2
     8     9    11    1
     9     7     8    1
    10    11    12    2
    11     8    10    2
    12    12    10    1
