@<TRIPOS>MOLECULE
/home/cewinharhar/GITHUB/reincatalyze/data/processed/docking_pred/2023_Apr_20-15:07/437598aa9d4ddbb457dda5082e5f4820e6dbe55d_ligand_2.pdbqt
 12 12 0 0 0
SMALL
GASTEIGER

@<TRIPOS>ATOM
      1  C          5.0140    1.7690    0.6710 C.3     1  UNL1        0.1270
      2  C          4.5100    1.1150    1.9020 C.2     1  UNL1        0.3030
      3  O          5.1820    0.2320    2.4910 O.2     1  UNL1       -0.2520
      4  O          3.2800    1.4600    2.4370 O.3     1  UNL1       -0.4810
      5  H          3.1130    2.4280    2.7260 H       1  UNL1        0.2960
      6  C          6.5110    1.7930    0.7300 C.3     1  UNL1        0.0470
      7  C          7.1600    1.0470   -0.3460 C.2     1  UNL1       -0.0470
      8  C          8.4910    1.2440   -0.6350 C.2     1  UNL1        0.0040
      9  C          6.4250    0.1390   -1.0720 C.2     1  UNL1        0.0040
     10  C          9.0460    0.4960   -1.6760 C.2     1  UNL1        0.0000
     11  C          6.9750   -0.6000   -2.1010 C.2     1  UNL1        0.0000
     12  C          8.3070   -0.4080   -2.3970 C.2     1  UNL1        0.0000
@<TRIPOS>BOND
     1    12    11    2
     2    12    10    1
     3    11     9    1
     4    10     8    2
     5     9     7    2
     6     8     7    1
     7     7     6    1
     8     1     6    1
     9     1     2    1
    10     2     4    1
    11     2     3    2
    12     4     5    1
