MODEL 1
REMARK VINA RESULT:      -7.3      0.000      0.000
REMARK SMILES O=C(O)CCc1ccccc1
REMARK SMILES IDX 4 1 2 2 1 3 3 4 5 6 6 7 7 8 11 9 8 10 10 11 9 12
REMARK H PARENT 3 5
REMARK Flexibility Score: inf
ROOT
ATOM      1  C   UNL     1       8.440  -0.554  -2.237  1.00  0.00     0.127 C 
ENDROOT
BRANCH   1   2
ATOM      2  C   UNL     1       8.494  -1.859  -2.936  1.00  0.00     0.303 C 
ATOM      3  O   UNL     1       9.585  -2.452  -3.126  1.00  0.00    -0.252 OA
BRANCH   2   4
ATOM      4  O   UNL     1       7.337  -2.464  -3.401  1.00  0.00    -0.481 OA
ATOM      5  H   UNL     1       6.502  -2.468  -2.809  1.00  0.00     0.296 HD
ENDBRANCH   2   4
ENDBRANCH   1   2
BRANCH   1   6
ATOM      6  C   UNL     1       7.010  -0.111  -2.176  1.00  0.00     0.047 C 
BRANCH   6   7
ATOM      7  C   UNL     1       6.495   0.051  -0.817  1.00  0.00    -0.047 A 
ATOM      8  C   UNL     1       6.645  -0.950   0.115  1.00  0.00     0.004 A 
ATOM      9  C   UNL     1       5.857   1.220  -0.476  1.00  0.00     0.004 A 
ATOM     10  C   UNL     1       6.130  -0.726   1.394  1.00  0.00     0.000 A 
ATOM     11  C   UNL     1       5.347   1.439   0.789  1.00  0.00     0.000 A 
ATOM     12  C   UNL     1       5.492   0.442   1.728  1.00  0.00     0.000 A 
ENDBRANCH   6   7
ENDBRANCH   1   6
TORSDOF 4
ENDMDL
MODEL 2
REMARK VINA RESULT:      -7.3      0.126      1.732
REMARK SMILES O=C(O)CCc1ccccc1
REMARK SMILES IDX 4 1 2 2 1 3 3 4 5 6 6 7 7 8 11 9 8 10 10 11 9 12
REMARK H PARENT 3 5
REMARK Flexibility Score: inf
ROOT
ATOM      1  C   UNL     1       8.440  -0.638  -2.114  1.00  0.00     0.127 C 
ENDROOT
BRANCH   1   2
ATOM      2  C   UNL     1       8.385  -1.899  -2.890  1.00  0.00     0.303 C 
ATOM      3  O   UNL     1       7.287  -2.405  -3.231  1.00  0.00    -0.252 OA
BRANCH   2   4
ATOM      4  O   UNL     1       9.547  -2.557  -3.260  1.00  0.00    -0.481 OA
ATOM      5  H   UNL     1       9.494  -3.531  -3.571  1.00  0.00     0.296 HD
ENDBRANCH   2   4
ENDBRANCH   1   2
BRANCH   1   6
ATOM      6  C   UNL     1       7.073  -0.025  -2.113  1.00  0.00     0.047 C 
BRANCH   6   7
ATOM      7  C   UNL     1       6.493   0.132  -0.780  1.00  0.00    -0.047 A 
ATOM      8  C   UNL     1       5.816   1.280  -0.438  1.00  0.00     0.004 A 
ATOM      9  C   UNL     1       6.627  -0.887   0.135  1.00  0.00     0.004 A 
ATOM     10  C   UNL     1       5.287   1.360   0.852  1.00  0.00     0.000 A 
ATOM     11  C   UNL     1       6.104  -0.805   1.410  1.00  0.00     0.000 A 
ATOM     12  C   UNL     1       5.426   0.342   1.761  1.00  0.00     0.000 A 
ENDBRANCH   6   7
ENDBRANCH   1   6
TORSDOF 4
ENDMDL
MODEL 3
REMARK VINA RESULT:      -6.8      0.982      1.587
REMARK SMILES O=C(O)CCc1ccccc1
REMARK SMILES IDX 4 1 2 2 1 3 3 4 5 6 6 7 7 8 11 9 8 10 10 11 9 12
REMARK H PARENT 3 5
REMARK Flexibility Score: inf
ROOT
ATOM      1  C   UNL     1       7.261  -1.163  -2.176  1.00  0.00     0.127 C 
ENDROOT
BRANCH   1   2
ATOM      2  C   UNL     1       8.700  -1.357  -2.473  1.00  0.00     0.303 C 
ATOM      3  O   UNL     1       9.106  -2.378  -3.082  1.00  0.00    -0.252 OA
BRANCH   2   4
ATOM      4  O   UNL     1       9.638  -0.414  -2.086  1.00  0.00    -0.481 OA
ATOM      5  H   UNL     1      10.280  -0.632  -1.319  1.00  0.00     0.296 HD
ENDBRANCH   2   4
ENDBRANCH   1   2
BRANCH   1   6
ATOM      6  C   UNL     1       7.056  -1.347  -0.703  1.00  0.00     0.047 C 
BRANCH   6   7
ATOM      7  C   UNL     1       6.329  -0.252  -0.062  1.00  0.00    -0.047 A 
ATOM      8  C   UNL     1       5.923  -0.349   1.248  1.00  0.00     0.004 A 
ATOM      9  C   UNL     1       6.053   0.885  -0.786  1.00  0.00     0.004 A 
ATOM     10  C   UNL     1       5.234   0.735   1.796  1.00  0.00     0.000 A 
ATOM     11  C   UNL     1       5.371   1.956  -0.244  1.00  0.00     0.000 A 
ATOM     12  C   UNL     1       4.961   1.866   1.068  1.00  0.00     0.000 A 
ENDBRANCH   6   7
ENDBRANCH   1   6
TORSDOF 4
ENDMDL
MODEL 4
REMARK VINA RESULT:      -6.8      3.372      5.073
REMARK SMILES O=C(O)CCc1ccccc1
REMARK SMILES IDX 4 1 2 2 1 3 3 4 5 6 6 7 7 8 11 9 8 10 10 11 9 12
REMARK H PARENT 3 5
REMARK Flexibility Score: inf
ROOT
ATOM      1  C   UNL     1       5.006   1.780   0.683  1.00  0.00     0.127 C 
ENDROOT
BRANCH   1   2
ATOM      2  C   UNL     1       4.487   1.115   1.902  1.00  0.00     0.303 C 
ATOM      3  O   UNL     1       5.139   0.209   2.477  1.00  0.00    -0.252 OA
BRANCH   2   4
ATOM      4  O   UNL     1       3.263   1.477   2.441  1.00  0.00    -0.481 OA
ATOM      5  H   UNL     1       3.115   2.445   2.742  1.00  0.00     0.296 HD
ENDBRANCH   2   4
ENDBRANCH   1   2
BRANCH   1   6
ATOM      6  C   UNL     1       6.503   1.777   0.747  1.00  0.00     0.047 C 
BRANCH   6   7
ATOM      7  C   UNL     1       7.142   1.032  -0.336  1.00  0.00    -0.047 A 
ATOM      8  C   UNL     1       8.461   1.254  -0.660  1.00  0.00     0.004 A 
ATOM      9  C   UNL     1       6.410   0.098  -1.033  1.00  0.00     0.004 A 
ATOM     10  C   UNL     1       9.007   0.505  -1.705  1.00  0.00     0.000 A 
ATOM     11  C   UNL     1       6.951  -0.641  -2.066  1.00  0.00     0.000 A 
ATOM     12  C   UNL     1       8.271  -0.424  -2.397  1.00  0.00     0.000 A 
ENDBRANCH   6   7
ENDBRANCH   1   6
TORSDOF 4
ENDMDL
MODEL 5
REMARK VINA RESULT:      -6.6      3.698      4.910
REMARK SMILES O=C(O)CCc1ccccc1
REMARK SMILES IDX 4 1 2 2 1 3 3 4 5 6 6 7 7 8 11 9 8 10 10 11 9 12
REMARK H PARENT 3 5
REMARK Flexibility Score: inf
ROOT
ATOM      1  C   UNL     1       5.343   2.938   0.092  1.00  0.00     0.127 C 
ENDROOT
BRANCH   1   2
ATOM      2  C   UNL     1       6.303   3.776   0.849  1.00  0.00     0.303 C 
ATOM      3  O   UNL     1       6.852   4.774   0.321  1.00  0.00    -0.252 OA
BRANCH   2   4
ATOM      4  O   UNL     1       6.621   3.479   2.164  1.00  0.00    -0.481 OA
ATOM      5  H   UNL     1       7.005   2.557   2.391  1.00  0.00     0.296 HD
ENDBRANCH   2   4
ENDBRANCH   1   2
BRANCH   1   6
ATOM      6  C   UNL     1       5.191   1.631   0.809  1.00  0.00     0.047 C 
BRANCH   6   7
ATOM      7  C   UNL     1       5.989   0.546   0.242  1.00  0.00    -0.047 A 
ATOM      8  C   UNL     1       6.405  -0.506   1.025  1.00  0.00     0.004 A 
ATOM      9  C   UNL     1       6.320   0.583  -1.093  1.00  0.00     0.004 A 
ATOM     10  C   UNL     1       7.163  -1.508   0.416  1.00  0.00     0.000 A 
ATOM     11  C   UNL     1       7.069  -0.409  -1.694  1.00  0.00     0.000 A 
ATOM     12  C   UNL     1       7.491  -1.465  -0.916  1.00  0.00     0.000 A 
ENDBRANCH   6   7
ENDBRANCH   1   6
TORSDOF 4
ENDMDL
