@<TRIPOS>MOLECULE
/home/cewinharhar/GITHUB/reincatalyze/data/processed/docking_pred/2023_Apr_20-15:07/43f74fb3996e866f8c2ebaeff785616509de483e_ligand_2.pdbqt
 12 12 0 0 0
SMALL
GASTEIGER

@<TRIPOS>ATOM
      1  C          8.4400   -0.5540   -2.2370 C.3     1  UNL1        0.1270
      2  C          8.4940   -1.8590   -2.9360 C.2     1  UNL1        0.3030
      3  O          9.5850   -2.4520   -3.1260 O.2     1  UNL1       -0.2520
      4  O          7.3370   -2.4640   -3.4010 O.3     1  UNL1       -0.4810
      5  H          6.5020   -2.4680   -2.8090 H       1  UNL1        0.2960
      6  C          7.0100   -0.1110   -2.1760 C.3     1  UNL1        0.0470
      7  C          6.4950    0.0510   -0.8170 C.2     1  UNL1       -0.0470
      8  C          6.6450   -0.9500    0.1150 C.2     1  UNL1        0.0040
      9  C          5.8570    1.2200   -0.4760 C.2     1  UNL1        0.0040
     10  C          6.1300   -0.7260    1.3940 C.2     1  UNL1        0.0000
     11  C          5.3470    1.4390    0.7890 C.2     1  UNL1        0.0000
     12  C          5.4920    0.4420    1.7280 C.2     1  UNL1        0.0000
@<TRIPOS>BOND
     1     4     2    1
     2     4     5    1
     3     3     2    2
     4     2     1    1
     5     1     6    1
     6     6     7    1
     7     7     9    2
     8     7     8    1
     9     9    11    1
    10     8    10    2
    11    11    12    2
    12    10    12    1
