@<TRIPOS>MOLECULE
/home/cewinharhar/GITHUB/reincatalyze/data/processed/docking_pred/2023_Apr_20-15:07/43f74fb3996e866f8c2ebaeff785616509de483e_ligand_2.pdbqt
 12 12 0 0 0
SMALL
GASTEIGER

@<TRIPOS>ATOM
      1  C          5.0060    1.7800    0.6830 C.3     1  UNL1        0.1270
      2  C          4.4870    1.1150    1.9020 C.2     1  UNL1        0.3030
      3  O          5.1390    0.2090    2.4770 O.2     1  UNL1       -0.2520
      4  O          3.2630    1.4770    2.4410 O.3     1  UNL1       -0.4810
      5  H          3.1150    2.4450    2.7420 H       1  UNL1        0.2960
      6  C          6.5030    1.7770    0.7470 C.3     1  UNL1        0.0470
      7  C          7.1420    1.0320   -0.3360 C.2     1  UNL1       -0.0470
      8  C          8.4610    1.2540   -0.6600 C.2     1  UNL1        0.0040
      9  C          6.4100    0.0980   -1.0330 C.2     1  UNL1        0.0040
     10  C          9.0070    0.5050   -1.7050 C.2     1  UNL1        0.0000
     11  C          6.9510   -0.6410   -2.0660 C.2     1  UNL1        0.0000
     12  C          8.2710   -0.4240   -2.3970 C.2     1  UNL1        0.0000
@<TRIPOS>BOND
     1    12    11    2
     2    12    10    1
     3    11     9    1
     4    10     8    2
     5     9     7    2
     6     8     7    1
     7     7     6    1
     8     1     6    1
     9     1     2    1
    10     2     4    1
    11     2     3    2
    12     4     5    1
