@<TRIPOS>MOLECULE
/home/cewinharhar/GITHUB/reincatalyze/data/processed/docking_pred/2023_Apr_20-15:07/43f74fb3996e866f8c2ebaeff785616509de483e_ligand_2.pdbqt
 12 12 0 0 0
SMALL
GASTEIGER

@<TRIPOS>ATOM
      1  C          7.2610   -1.1630   -2.1760 C.3     1  UNL1        0.1270
      2  C          8.7000   -1.3570   -2.4730 C.2     1  UNL1        0.3030
      3  O          9.1060   -2.3780   -3.0820 O.2     1  UNL1       -0.2520
      4  O          9.6380   -0.4140   -2.0860 O.3     1  UNL1       -0.4810
      5  H         10.2800   -0.6320   -1.3190 H       1  UNL1        0.2960
      6  C          7.0560   -1.3470   -0.7030 C.3     1  UNL1        0.0470
      7  C          6.3290   -0.2520   -0.0620 C.2     1  UNL1       -0.0470
      8  C          5.9230   -0.3490    1.2480 C.2     1  UNL1        0.0040
      9  C          6.0530    0.8850   -0.7860 C.2     1  UNL1        0.0040
     10  C          5.2340    0.7350    1.7960 C.2     1  UNL1        0.0000
     11  C          5.3710    1.9560   -0.2440 C.2     1  UNL1        0.0000
     12  C          4.9610    1.8660    1.0680 C.2     1  UNL1        0.0000
@<TRIPOS>BOND
     1     3     2    2
     2     2     1    1
     3     2     4    1
     4     1     6    1
     5     4     5    1
     6     9    11    1
     7     9     7    2
     8     6     7    1
     9    11    12    2
    10     7     8    1
    11    12    10    1
    12     8    10    2
