@<TRIPOS>MOLECULE
/home/cewinharhar/GITHUB/reincatalyze/data/processed/docking_pred/2023_Apr_20-15:07/43f74fb3996e866f8c2ebaeff785616509de483e_ligand_2.pdbqt
 12 12 0 0 0
SMALL
GASTEIGER

@<TRIPOS>ATOM
      1  C          8.4400   -0.6380   -2.1140 C.3     1  UNL1        0.1270
      2  C          8.3850   -1.8990   -2.8900 C.2     1  UNL1        0.3030
      3  O          7.2870   -2.4050   -3.2310 O.2     1  UNL1       -0.2520
      4  O          9.5470   -2.5570   -3.2600 O.3     1  UNL1       -0.4810
      5  H          9.4940   -3.5310   -3.5710 H       1  UNL1        0.2960
      6  C          7.0730   -0.0250   -2.1130 C.3     1  UNL1        0.0470
      7  C          6.4930    0.1320   -0.7800 C.2     1  UNL1       -0.0470
      8  C          5.8160    1.2800   -0.4380 C.2     1  UNL1        0.0040
      9  C          6.6270   -0.8870    0.1350 C.2     1  UNL1        0.0040
     10  C          5.2870    1.3600    0.8520 C.2     1  UNL1        0.0000
     11  C          6.1040   -0.8050    1.4100 C.2     1  UNL1        0.0000
     12  C          5.4260    0.3420    1.7610 C.2     1  UNL1        0.0000
@<TRIPOS>BOND
     1     5     4    1
     2     4     2    1
     3     3     2    2
     4     2     1    1
     5     1     6    1
     6     6     7    1
     7     7     8    2
     8     7     9    1
     9     8    10    1
    10     9    11    2
    11    10    12    2
    12    11    12    1
