@<TRIPOS>MOLECULE
/home/cewinharhar/GITHUB/reincatalyze/data/processed/docking_pred/2023_Apr_20-15:07/43f74fb3996e866f8c2ebaeff785616509de483e_ligand_2.pdbqt
 12 12 0 0 0
SMALL
GASTEIGER

@<TRIPOS>ATOM
      1  C          5.3430    2.9380    0.0920 C.3     1  UNL1        0.1270
      2  C          6.3030    3.7760    0.8490 C.2     1  UNL1        0.3030
      3  O          6.8520    4.7740    0.3210 O.2     1  UNL1       -0.2520
      4  O          6.6210    3.4790    2.1640 O.3     1  UNL1       -0.4810
      5  H          7.0050    2.5570    2.3910 H       1  UNL1        0.2960
      6  C          5.1910    1.6310    0.8090 C.3     1  UNL1        0.0470
      7  C          5.9890    0.5460    0.2420 C.2     1  UNL1       -0.0470
      8  C          6.4050   -0.5060    1.0250 C.2     1  UNL1        0.0040
      9  C          6.3200    0.5830   -1.0930 C.2     1  UNL1        0.0040
     10  C          7.1630   -1.5080    0.4160 C.2     1  UNL1        0.0000
     11  C          7.0690   -0.4090   -1.6940 C.2     1  UNL1        0.0000
     12  C          7.4910   -1.4650   -0.9160 C.2     1  UNL1        0.0000
@<TRIPOS>BOND
     1    11     9    1
     2    11    12    2
     3     9     7    2
     4    12    10    1
     5     1     6    1
     6     1     2    1
     7     7     6    1
     8     7     8    1
     9     3     2    2
    10    10     8    2
    11     2     4    1
    12     4     5    1
