@<TRIPOS>MOLECULE
/home/cewinharhar/GITHUB/reincatalyze/data/processed/docking_pred/2023_Apr_20-15:07/44bf36be1ccee3462d679cf400989bbed31f99fd_ligand_2.pdbqt
 12 12 0 0 0
SMALL
GASTEIGER

@<TRIPOS>ATOM
      1  C          5.0450    1.7880    0.7010 C.3     1  UNL1        0.1270
      2  C          4.6080    1.1720    1.9760 C.2     1  UNL1        0.3030
      3  O          5.2740    0.2570    2.5190 O.2     1  UNL1       -0.2520
      4  O          3.4480    1.5920    2.6060 O.3     1  UNL1       -0.4810
      5  H          3.4610    1.7700    3.6140 H       1  UNL1        0.2960
      6  C          6.5430    1.8300    0.6880 C.3     1  UNL1        0.0470
      7  C          7.1510    1.0340   -0.3770 C.2     1  UNL1       -0.0470
      8  C          6.4000    0.1360   -1.1000 C.2     1  UNL1        0.0040
      9  C          8.4890    1.1940   -0.6540 C.2     1  UNL1        0.0040
     10  C          7.0470   -0.5900   -2.1030 C.2     1  UNL1        0.0000
     11  C          9.1260    0.4760   -1.6460 C.2     1  UNL1        0.0000
     12  C          8.3820   -0.4270   -2.3740 C.2     1  UNL1        0.0000
@<TRIPOS>BOND
     1    12    10    2
     2    12    11    1
     3    10     8    1
     4    11     9    2
     5     8     7    2
     6     9     7    1
     7     7     6    1
     8     6     1    1
     9     1     2    1
    10     2     3    2
    11     2     4    1
    12     4     5    1
