@<TRIPOS>MOLECULE
/home/cewinharhar/GITHUB/reincatalyze/data/processed/docking_pred/2023_Apr_20-15:07/44bf36be1ccee3462d679cf400989bbed31f99fd_ligand_2.pdbqt
 12 12 0 0 0
SMALL
GASTEIGER

@<TRIPOS>ATOM
      1  C          8.4110   -0.6010   -2.1480 C.3     1  UNL1        0.1270
      2  C          8.4710   -1.8760   -2.9020 C.2     1  UNL1        0.3030
      3  O          9.5610   -2.4720   -3.0870 O.2     1  UNL1       -0.2520
      4  O          7.3220   -2.4450   -3.4260 O.3     1  UNL1       -0.4810
      5  H          7.1330   -3.4370   -3.2580 H       1  UNL1        0.2960
      6  C          6.9880   -0.1330   -2.1270 C.3     1  UNL1        0.0470
      7  C          6.4490    0.0700   -0.7840 C.2     1  UNL1       -0.0470
      8  C          6.5690   -0.9070    0.1780 C.2     1  UNL1        0.0040
      9  C          5.8170    1.2550   -0.4860 C.2     1  UNL1        0.0040
     10  C          6.0310   -0.6440    1.4400 C.2     1  UNL1        0.0000
     11  C          5.2850    1.5130    0.7620 C.2     1  UNL1        0.0000
     12  C          5.4010    0.5400    1.7300 C.2     1  UNL1        0.0000
@<TRIPOS>BOND
     1     4     5    1
     2     4     2    1
     3     3     2    2
     4     2     1    1
     5     1     6    1
     6     6     7    1
     7     7     9    2
     8     7     8    1
     9     9    11    1
    10     8    10    2
    11    11    12    2
    12    10    12    1
