MODEL 1
REMARK VINA RESULT:      -7.3      0.000      0.000
REMARK SMILES O=C(O)CCc1ccccc1
REMARK SMILES IDX 4 1 2 2 1 3 3 4 5 6 6 7 7 8 11 9 8 10 10 11 9 12
REMARK H PARENT 3 5
REMARK Flexibility Score: inf
ROOT
ATOM      1  C   UNL     1       8.348  -0.871  -1.819  1.00  0.00     0.127 C 
ENDROOT
BRANCH   1   2
ATOM      2  C   UNL     1       8.408  -1.987  -2.792  1.00  0.00     0.303 C 
ATOM      3  O   UNL     1       9.498  -2.539  -3.084  1.00  0.00    -0.252 OA
BRANCH   2   4
ATOM      4  O   UNL     1       7.258  -2.454  -3.409  1.00  0.00    -0.481 OA
ATOM      5  H   UNL     1       7.338  -3.140  -4.164  1.00  0.00     0.296 HD
ENDBRANCH   2   4
ENDBRANCH   1   2
BRANCH   1   6
ATOM      6  C   UNL     1       7.015  -0.200  -1.954  1.00  0.00     0.047 C 
BRANCH   6   7
ATOM      7  C   UNL     1       6.395   0.151  -0.677  1.00  0.00    -0.047 A 
ATOM      8  C   UNL     1       5.751   1.355  -0.516  1.00  0.00     0.004 A 
ATOM      9  C   UNL     1       6.460  -0.741   0.368  1.00  0.00     0.004 A 
ATOM     10  C   UNL     1       5.180   1.624   0.730  1.00  0.00     0.000 A 
ATOM     11  C   UNL     1       5.896  -0.474   1.600  1.00  0.00     0.000 A 
ATOM     12  C   UNL     1       5.249   0.731   1.770  1.00  0.00     0.000 A 
ENDBRANCH   6   7
ENDBRANCH   1   6
TORSDOF 4
ENDMDL
MODEL 2
REMARK VINA RESULT:      -7.3      0.220      1.450
REMARK SMILES O=C(O)CCc1ccccc1
REMARK SMILES IDX 4 1 2 2 1 3 3 4 5 6 6 7 7 8 11 9 8 10 10 11 9 12
REMARK H PARENT 3 5
REMARK Flexibility Score: inf
ROOT
ATOM      1  C   UNL     1       8.411  -0.601  -2.148  1.00  0.00     0.127 C 
ENDROOT
BRANCH   1   2
ATOM      2  C   UNL     1       8.471  -1.876  -2.902  1.00  0.00     0.303 C 
ATOM      3  O   UNL     1       9.561  -2.472  -3.087  1.00  0.00    -0.252 OA
BRANCH   2   4
ATOM      4  O   UNL     1       7.322  -2.445  -3.426  1.00  0.00    -0.481 OA
ATOM      5  H   UNL     1       7.133  -3.437  -3.258  1.00  0.00     0.296 HD
ENDBRANCH   2   4
ENDBRANCH   1   2
BRANCH   1   6
ATOM      6  C   UNL     1       6.988  -0.133  -2.127  1.00  0.00     0.047 C 
BRANCH   6   7
ATOM      7  C   UNL     1       6.449   0.070  -0.784  1.00  0.00    -0.047 A 
ATOM      8  C   UNL     1       6.569  -0.907   0.178  1.00  0.00     0.004 A 
ATOM      9  C   UNL     1       5.817   1.255  -0.486  1.00  0.00     0.004 A 
ATOM     10  C   UNL     1       6.031  -0.644   1.440  1.00  0.00     0.000 A 
ATOM     11  C   UNL     1       5.285   1.513   0.762  1.00  0.00     0.000 A 
ATOM     12  C   UNL     1       5.401   0.540   1.730  1.00  0.00     0.000 A 
ENDBRANCH   6   7
ENDBRANCH   1   6
TORSDOF 4
ENDMDL
MODEL 3
REMARK VINA RESULT:      -6.9      3.389      5.100
REMARK SMILES O=C(O)CCc1ccccc1
REMARK SMILES IDX 4 1 2 2 1 3 3 4 5 6 6 7 7 8 11 9 8 10 10 11 9 12
REMARK H PARENT 3 5
REMARK Flexibility Score: inf
ROOT
ATOM      1  C   UNL     1       5.045   1.788   0.701  1.00  0.00     0.127 C 
ENDROOT
BRANCH   1   2
ATOM      2  C   UNL     1       4.608   1.172   1.976  1.00  0.00     0.303 C 
ATOM      3  O   UNL     1       5.274   0.257   2.519  1.00  0.00    -0.252 OA
BRANCH   2   4
ATOM      4  O   UNL     1       3.448   1.592   2.606  1.00  0.00    -0.481 OA
ATOM      5  H   UNL     1       3.461   1.770   3.614  1.00  0.00     0.296 HD
ENDBRANCH   2   4
ENDBRANCH   1   2
BRANCH   1   6
ATOM      6  C   UNL     1       6.543   1.830   0.688  1.00  0.00     0.047 C 
BRANCH   6   7
ATOM      7  C   UNL     1       7.151   1.034  -0.377  1.00  0.00    -0.047 A 
ATOM      8  C   UNL     1       6.400   0.136  -1.100  1.00  0.00     0.004 A 
ATOM      9  C   UNL     1       8.489   1.194  -0.654  1.00  0.00     0.004 A 
ATOM     10  C   UNL     1       7.047  -0.590  -2.103  1.00  0.00     0.000 A 
ATOM     11  C   UNL     1       9.126   0.476  -1.646  1.00  0.00     0.000 A 
ATOM     12  C   UNL     1       8.382  -0.427  -2.374  1.00  0.00     0.000 A 
ENDBRANCH   6   7
ENDBRANCH   1   6
TORSDOF 4
ENDMDL
MODEL 4
REMARK VINA RESULT:      -6.8      1.958      2.629
REMARK SMILES O=C(O)CCc1ccccc1
REMARK SMILES IDX 4 1 2 2 1 3 3 4 5 6 6 7 7 8 11 9 8 10 10 11 9 12
REMARK H PARENT 3 5
REMARK Flexibility Score: inf
ROOT
ATOM      1  C   UNL     1       8.041   0.275  -1.992  1.00  0.00     0.127 C 
ENDROOT
BRANCH   1   2
ATOM      2  C   UNL     1       9.261   0.356  -1.154  1.00  0.00     0.303 C 
ATOM      3  O   UNL     1       9.439  -0.425  -0.187  1.00  0.00    -0.252 OA
BRANCH   2   4
ATOM      4  O   UNL     1      10.240   1.300  -1.416  1.00  0.00    -0.481 OA
ATOM      5  H   UNL     1      10.143   2.244  -1.031  1.00  0.00     0.296 HD
ENDBRANCH   2   4
ENDBRANCH   1   2
BRANCH   1   6
ATOM      6  C   UNL     1       7.017  -0.533  -1.255  1.00  0.00     0.047 C 
BRANCH   6   7
ATOM      7  C   UNL     1       6.254   0.231  -0.270  1.00  0.00    -0.047 A 
ATOM      8  C   UNL     1       6.074  -0.249   1.007  1.00  0.00     0.004 A 
ATOM      9  C   UNL     1       5.715   1.445  -0.631  1.00  0.00     0.004 A 
ATOM     10  C   UNL     1       5.336   0.535   1.896  1.00  0.00     0.000 A 
ATOM     11  C   UNL     1       4.985   2.218   0.250  1.00  0.00     0.000 A 
ATOM     12  C   UNL     1       4.800   1.744   1.530  1.00  0.00     0.000 A 
ENDBRANCH   6   7
ENDBRANCH   1   6
TORSDOF 4
ENDMDL
MODEL 5
REMARK VINA RESULT:      -6.6      2.226      2.568
REMARK SMILES O=C(O)CCc1ccccc1
REMARK SMILES IDX 4 1 2 2 1 3 3 4 5 6 6 7 7 8 11 9 8 10 10 11 9 12
REMARK H PARENT 3 5
REMARK Flexibility Score: inf
ROOT
ATOM      1  C   UNL     1       8.168  -1.159   0.207  1.00  0.00     0.127 C 
ENDROOT
BRANCH   1   2
ATOM      2  C   UNL     1       8.027  -2.500   0.822  1.00  0.00     0.303 C 
ATOM      3  O   UNL     1       8.945  -3.352   0.742  1.00  0.00    -0.252 OA
BRANCH   2   4
ATOM      4  O   UNL     1       6.873  -2.850   1.504  1.00  0.00    -0.481 OA
ATOM      5  H   UNL     1       6.849  -2.766   2.524  1.00  0.00     0.296 HD
ENDBRANCH   2   4
ENDBRANCH   1   2
BRANCH   1   6
ATOM      6  C   UNL     1       6.924  -0.866  -0.575  1.00  0.00     0.047 C 
BRANCH   6   7
ATOM      7  C   UNL     1       6.161   0.276  -0.074  1.00  0.00    -0.047 A 
ATOM      8  C   UNL     1       5.857   1.334  -0.898  1.00  0.00     0.004 A 
ATOM      9  C   UNL     1       5.745   0.282   1.237  1.00  0.00     0.004 A 
ATOM     10  C   UNL     1       5.124   2.391  -0.353  1.00  0.00     0.000 A 
ATOM     11  C   UNL     1       5.021   1.327   1.775  1.00  0.00     0.000 A 
ATOM     12  C   UNL     1       4.713   2.392   0.956  1.00  0.00     0.000 A 
ENDBRANCH   6   7
ENDBRANCH   1   6
TORSDOF 4
ENDMDL
