@<TRIPOS>MOLECULE
/home/cewinharhar/GITHUB/reincatalyze/data/processed/docking_pred/2023_Apr_20-15:07/44bf36be1ccee3462d679cf400989bbed31f99fd_ligand_2.pdbqt
 12 12 0 0 0
SMALL
GASTEIGER

@<TRIPOS>ATOM
      1  C          8.0410    0.2750   -1.9920 C.3     1  UNL1        0.1270
      2  C          9.2610    0.3560   -1.1540 C.2     1  UNL1        0.3030
      3  O          9.4390   -0.4250   -0.1870 O.2     1  UNL1       -0.2520
      4  O         10.2400    1.3000   -1.4160 O.3     1  UNL1       -0.4810
      5  H         10.1430    2.2440   -1.0310 H       1  UNL1        0.2960
      6  C          7.0170   -0.5330   -1.2550 C.3     1  UNL1        0.0470
      7  C          6.2540    0.2310   -0.2700 C.2     1  UNL1       -0.0470
      8  C          6.0740   -0.2490    1.0070 C.2     1  UNL1        0.0040
      9  C          5.7150    1.4450   -0.6310 C.2     1  UNL1        0.0040
     10  C          5.3360    0.5350    1.8960 C.2     1  UNL1        0.0000
     11  C          4.9850    2.2180    0.2500 C.2     1  UNL1        0.0000
     12  C          4.8000    1.7440    1.5300 C.2     1  UNL1        0.0000
@<TRIPOS>BOND
     1     1     6    1
     2     1     2    1
     3     4     2    1
     4     4     5    1
     5     6     7    1
     6     2     3    2
     7     9     7    2
     8     9    11    1
     9     7     8    1
    10    11    12    2
    11     8    10    2
    12    12    10    1
