@<TRIPOS>MOLECULE
/home/cewinharhar/GITHUB/reincatalyze/data/processed/docking_pred/2023_Apr_20-15:07/44bf36be1ccee3462d679cf400989bbed31f99fd_ligand_2.pdbqt
 12 12 0 0 0
SMALL
GASTEIGER

@<TRIPOS>ATOM
      1  C          8.1680   -1.1590    0.2070 C.3     1  UNL1        0.1270
      2  C          8.0270   -2.5000    0.8220 C.2     1  UNL1        0.3030
      3  O          8.9450   -3.3520    0.7420 O.2     1  UNL1       -0.2520
      4  O          6.8730   -2.8500    1.5040 O.3     1  UNL1       -0.4810
      5  H          6.8490   -2.7660    2.5240 H       1  UNL1        0.2960
      6  C          6.9240   -0.8660   -0.5750 C.3     1  UNL1        0.0470
      7  C          6.1610    0.2760   -0.0740 C.2     1  UNL1       -0.0470
      8  C          5.8570    1.3340   -0.8980 C.2     1  UNL1        0.0040
      9  C          5.7450    0.2820    1.2370 C.2     1  UNL1        0.0040
     10  C          5.1240    2.3910   -0.3530 C.2     1  UNL1        0.0000
     11  C          5.0210    1.3270    1.7750 C.2     1  UNL1        0.0000
     12  C          4.7130    2.3920    0.9560 C.2     1  UNL1        0.0000
@<TRIPOS>BOND
     1     8    10    1
     2     8     7    2
     3     6     7    1
     4     6     1    1
     5    10    12    2
     6     7     9    1
     7     1     2    1
     8     3     2    2
     9     2     4    1
    10    12    11    1
    11     9    11    2
    12     4     5    1
