@<TRIPOS>MOLECULE
/home/cewinharhar/GITHUB/reincatalyze/data/processed/docking_pred/2023_Apr_20-15:07/46861e00ed193d15618049a480e2ca269f83ce14_ligand_2.pdbqt
 12 12 0 0 0
SMALL
GASTEIGER

@<TRIPOS>ATOM
      1  C          8.4240   -0.5850   -2.1820 C.3     1  UNL1        0.1270
      2  C          8.4700   -1.8680   -2.9230 C.2     1  UNL1        0.3030
      3  O          9.5530   -2.4780   -3.1030 O.2     1  UNL1       -0.2520
      4  O          7.3140   -2.4300   -3.4400 O.3     1  UNL1       -0.4810
      5  H          7.1450   -3.4320   -3.3160 H       1  UNL1        0.2960
      6  C          7.0010   -0.1190   -2.1340 C.3     1  UNL1        0.0470
      7  C          6.4770    0.0540   -0.7800 C.2     1  UNL1       -0.0470
      8  C          5.8770    1.2330   -0.4040 C.2     1  UNL1        0.0040
      9  C          6.5890   -0.9790    0.1200 C.2     1  UNL1        0.0040
     10  C          5.3980    1.3280    0.9050 C.2     1  UNL1        0.0000
     11  C          6.1160   -0.8840    1.4140 C.2     1  UNL1        0.0000
     12  C          5.5130    0.2940    1.7990 C.2     1  UNL1        0.0000
@<TRIPOS>BOND
     1     4     5    1
     2     4     2    1
     3     3     2    2
     4     2     1    1
     5     1     6    1
     6     6     7    1
     7     7     8    2
     8     7     9    1
     9     8    10    1
    10     9    11    2
    11    10    12    2
    12    11    12    1
