@<TRIPOS>MOLECULE
/home/cewinharhar/GITHUB/reincatalyze/data/processed/docking_pred/2023_Apr_20-15:07/46861e00ed193d15618049a480e2ca269f83ce14_ligand_2.pdbqt
 12 12 0 0 0
SMALL
GASTEIGER

@<TRIPOS>ATOM
      1  C          5.0080    1.7780    0.7000 C.3     1  UNL1        0.1270
      2  C          4.4930    1.1080    1.9180 C.2     1  UNL1        0.3030
      3  O          5.1540    0.2090    2.4950 O.2     1  UNL1       -0.2520
      4  O          3.2640    1.4560    2.4540 O.3     1  UNL1       -0.4810
      5  H          2.8920    0.9220    3.2440 H       1  UNL1        0.2960
      6  C          6.5050    1.7850    0.7650 C.3     1  UNL1        0.0470
      7  C          7.1510    1.0570   -0.3260 C.2     1  UNL1       -0.0470
      8  C          8.4840    1.2480   -0.6070 C.2     1  UNL1        0.0040
      9  C          6.4090    0.1720   -1.0740 C.2     1  UNL1        0.0040
     10  C          9.0350    0.5180   -1.6630 C.2     1  UNL1        0.0000
     11  C          6.9550   -0.5490   -2.1180 C.2     1  UNL1        0.0000
     12  C          8.2900   -0.3630   -2.4060 C.2     1  UNL1        0.0000
@<TRIPOS>BOND
     1    12    11    2
     2    12    10    1
     3    11     9    1
     4    10     8    2
     5     9     7    2
     6     8     7    1
     7     7     6    1
     8     1     6    1
     9     1     2    1
    10     2     4    1
    11     2     3    2
    12     4     5    1
