@<TRIPOS>MOLECULE
/home/cewinharhar/GITHUB/reincatalyze/data/processed/docking_pred/2023_Apr_20-15:07/46861e00ed193d15618049a480e2ca269f83ce14_ligand_2.pdbqt
 12 12 0 0 0
SMALL
GASTEIGER

@<TRIPOS>ATOM
      1  C          8.4400   -0.5670   -2.2580 C.3     1  UNL1        0.1270
      2  C          8.4920   -1.8780   -2.9470 C.2     1  UNL1        0.3030
      3  O          9.5800   -2.4840   -3.1120 O.2     1  UNL1       -0.2520
      4  O          7.3370   -2.4730   -3.4290 O.3     1  UNL1       -0.4810
      5  H          6.4920   -1.9060   -3.5430 H       1  UNL1        0.2960
      6  C          7.0100   -0.1250   -2.1940 C.3     1  UNL1        0.0470
      7  C          6.4940    0.0250   -0.8340 C.2     1  UNL1       -0.0470
      8  C          6.6240   -0.9930    0.0830 C.2     1  UNL1        0.0040
      9  C          5.8760    1.2000   -0.4760 C.2     1  UNL1        0.0040
     10  C          6.1090   -0.7800    1.3640 C.2     1  UNL1        0.0000
     11  C          5.3670    1.4080    0.7900 C.2     1  UNL1        0.0000
     12  C          5.4920    0.3940    1.7150 C.2     1  UNL1        0.0000
@<TRIPOS>BOND
     1     5     4    1
     2     4     2    1
     3     3     2    2
     4     2     1    1
     5     1     6    1
     6     6     7    1
     7     7     9    2
     8     7     8    1
     9     9    11    1
    10     8    10    2
    11    11    12    2
    12    10    12    1
