@<TRIPOS>MOLECULE
/home/cewinharhar/GITHUB/reincatalyze/data/processed/docking_pred/2023_Apr_20-15:07/46861e00ed193d15618049a480e2ca269f83ce14_ligand_2.pdbqt
 12 12 0 0 0
SMALL
GASTEIGER

@<TRIPOS>ATOM
      1  C          8.2520   -0.8950   -1.8820 C.3     1  UNL1        0.1270
      2  C          8.3900   -2.0030   -2.8560 C.2     1  UNL1        0.3030
      3  O          9.5110   -2.5060   -3.1150 O.2     1  UNL1       -0.2520
      4  O          7.2810   -2.5160   -3.5100 O.3     1  UNL1       -0.4810
      5  H          6.3760   -2.0480   -3.4030 H       1  UNL1        0.2960
      6  C          7.4390   -1.3850   -0.7230 C.3     1  UNL1        0.0470
      7  C          6.5970   -0.3590   -0.1110 C.2     1  UNL1       -0.0470
      8  C          6.1420   -0.5000    1.1800 C.2     1  UNL1        0.0040
      9  C          6.2630    0.7590   -0.8410 C.2     1  UNL1        0.0040
     10  C          5.3430    0.5210    1.7000 C.2     1  UNL1        0.0000
     11  C          5.4730    1.7670   -0.3240 C.2     1  UNL1        0.0000
     12  C          5.0120    1.6330    0.9670 C.2     1  UNL1        0.0000
@<TRIPOS>BOND
     1     4     5    1
     2     4     2    1
     3     3     2    2
     4     2     1    1
     5     1     6    1
     6     9    11    1
     7     9     7    2
     8     6     7    1
     9    11    12    2
    10     7     8    1
    11    12    10    1
    12     8    10    2
