MODEL 1
REMARK VINA RESULT:      -7.3      0.000      0.000
REMARK SMILES O=C(O)CCc1ccccc1
REMARK SMILES IDX 4 1 2 2 1 3 3 4 5 6 6 7 7 8 11 9 8 10 10 11 9 12
REMARK H PARENT 3 5
REMARK Flexibility Score: inf
ROOT
ATOM      1  C   UNL     1       8.440  -0.567  -2.258  1.00  0.00     0.127 C 
ENDROOT
BRANCH   1   2
ATOM      2  C   UNL     1       8.492  -1.878  -2.947  1.00  0.00     0.303 C 
ATOM      3  O   UNL     1       9.580  -2.484  -3.112  1.00  0.00    -0.252 OA
BRANCH   2   4
ATOM      4  O   UNL     1       7.337  -2.473  -3.429  1.00  0.00    -0.481 OA
ATOM      5  H   UNL     1       6.492  -1.906  -3.543  1.00  0.00     0.296 HD
ENDBRANCH   2   4
ENDBRANCH   1   2
BRANCH   1   6
ATOM      6  C   UNL     1       7.010  -0.125  -2.194  1.00  0.00     0.047 C 
BRANCH   6   7
ATOM      7  C   UNL     1       6.494   0.025  -0.834  1.00  0.00    -0.047 A 
ATOM      8  C   UNL     1       6.624  -0.993   0.083  1.00  0.00     0.004 A 
ATOM      9  C   UNL     1       5.876   1.200  -0.476  1.00  0.00     0.004 A 
ATOM     10  C   UNL     1       6.109  -0.780   1.364  1.00  0.00     0.000 A 
ATOM     11  C   UNL     1       5.367   1.408   0.790  1.00  0.00     0.000 A 
ATOM     12  C   UNL     1       5.492   0.394   1.715  1.00  0.00     0.000 A 
ENDBRANCH   6   7
ENDBRANCH   1   6
TORSDOF 4
ENDMDL
MODEL 2
REMARK VINA RESULT:      -7.3      0.085      1.439
REMARK SMILES O=C(O)CCc1ccccc1
REMARK SMILES IDX 4 1 2 2 1 3 3 4 5 6 6 7 7 8 11 9 8 10 10 11 9 12
REMARK H PARENT 3 5
REMARK Flexibility Score: inf
ROOT
ATOM      1  C   UNL     1       8.424  -0.585  -2.182  1.00  0.00     0.127 C 
ENDROOT
BRANCH   1   2
ATOM      2  C   UNL     1       8.470  -1.868  -2.923  1.00  0.00     0.303 C 
ATOM      3  O   UNL     1       9.553  -2.478  -3.103  1.00  0.00    -0.252 OA
BRANCH   2   4
ATOM      4  O   UNL     1       7.314  -2.430  -3.440  1.00  0.00    -0.481 OA
ATOM      5  H   UNL     1       7.145  -3.432  -3.316  1.00  0.00     0.296 HD
ENDBRANCH   2   4
ENDBRANCH   1   2
BRANCH   1   6
ATOM      6  C   UNL     1       7.001  -0.119  -2.134  1.00  0.00     0.047 C 
BRANCH   6   7
ATOM      7  C   UNL     1       6.477   0.054  -0.780  1.00  0.00    -0.047 A 
ATOM      8  C   UNL     1       5.877   1.233  -0.404  1.00  0.00     0.004 A 
ATOM      9  C   UNL     1       6.589  -0.979   0.120  1.00  0.00     0.004 A 
ATOM     10  C   UNL     1       5.398   1.328   0.905  1.00  0.00     0.000 A 
ATOM     11  C   UNL     1       6.116  -0.884   1.414  1.00  0.00     0.000 A 
ATOM     12  C   UNL     1       5.513   0.294   1.799  1.00  0.00     0.000 A 
ENDBRANCH   6   7
ENDBRANCH   1   6
TORSDOF 4
ENDMDL
MODEL 3
REMARK VINA RESULT:      -7.3      0.635      1.096
REMARK SMILES O=C(O)CCc1ccccc1
REMARK SMILES IDX 4 1 2 2 1 3 3 4 5 6 6 7 7 8 11 9 8 10 10 11 9 12
REMARK H PARENT 3 5
REMARK Flexibility Score: inf
ROOT
ATOM      1  C   UNL     1       8.252  -0.895  -1.882  1.00  0.00     0.127 C 
ENDROOT
BRANCH   1   2
ATOM      2  C   UNL     1       8.390  -2.003  -2.856  1.00  0.00     0.303 C 
ATOM      3  O   UNL     1       9.511  -2.506  -3.115  1.00  0.00    -0.252 OA
BRANCH   2   4
ATOM      4  O   UNL     1       7.281  -2.516  -3.510  1.00  0.00    -0.481 OA
ATOM      5  H   UNL     1       6.376  -2.048  -3.403  1.00  0.00     0.296 HD
ENDBRANCH   2   4
ENDBRANCH   1   2
BRANCH   1   6
ATOM      6  C   UNL     1       7.439  -1.385  -0.723  1.00  0.00     0.047 C 
BRANCH   6   7
ATOM      7  C   UNL     1       6.597  -0.359  -0.111  1.00  0.00    -0.047 A 
ATOM      8  C   UNL     1       6.142  -0.500   1.180  1.00  0.00     0.004 A 
ATOM      9  C   UNL     1       6.263   0.759  -0.841  1.00  0.00     0.004 A 
ATOM     10  C   UNL     1       5.343   0.521   1.700  1.00  0.00     0.000 A 
ATOM     11  C   UNL     1       5.473   1.767  -0.324  1.00  0.00     0.000 A 
ATOM     12  C   UNL     1       5.012   1.633   0.967  1.00  0.00     0.000 A 
ENDBRANCH   6   7
ENDBRANCH   1   6
TORSDOF 4
ENDMDL
MODEL 4
REMARK VINA RESULT:      -6.8      3.389      5.083
REMARK SMILES O=C(O)CCc1ccccc1
REMARK SMILES IDX 4 1 2 2 1 3 3 4 5 6 6 7 7 8 11 9 8 10 10 11 9 12
REMARK H PARENT 3 5
REMARK Flexibility Score: inf
ROOT
ATOM      1  C   UNL     1       5.008   1.778   0.700  1.00  0.00     0.127 C 
ENDROOT
BRANCH   1   2
ATOM      2  C   UNL     1       4.493   1.108   1.918  1.00  0.00     0.303 C 
ATOM      3  O   UNL     1       5.154   0.209   2.495  1.00  0.00    -0.252 OA
BRANCH   2   4
ATOM      4  O   UNL     1       3.264   1.456   2.454  1.00  0.00    -0.481 OA
ATOM      5  H   UNL     1       2.892   0.922   3.244  1.00  0.00     0.296 HD
ENDBRANCH   2   4
ENDBRANCH   1   2
BRANCH   1   6
ATOM      6  C   UNL     1       6.505   1.785   0.765  1.00  0.00     0.047 C 
BRANCH   6   7
ATOM      7  C   UNL     1       7.151   1.057  -0.326  1.00  0.00    -0.047 A 
ATOM      8  C   UNL     1       8.484   1.248  -0.607  1.00  0.00     0.004 A 
ATOM      9  C   UNL     1       6.409   0.172  -1.074  1.00  0.00     0.004 A 
ATOM     10  C   UNL     1       9.035   0.518  -1.663  1.00  0.00     0.000 A 
ATOM     11  C   UNL     1       6.955  -0.549  -2.118  1.00  0.00     0.000 A 
ATOM     12  C   UNL     1       8.290  -0.363  -2.406  1.00  0.00     0.000 A 
ENDBRANCH   6   7
ENDBRANCH   1   6
TORSDOF 4
ENDMDL
MODEL 5
REMARK VINA RESULT:      -6.7      3.834      5.020
REMARK SMILES O=C(O)CCc1ccccc1
REMARK SMILES IDX 4 1 2 2 1 3 3 4 5 6 6 7 7 8 11 9 8 10 10 11 9 12
REMARK H PARENT 3 5
REMARK Flexibility Score: inf
ROOT
ATOM      1  C   UNL     1       5.393   2.844   0.035  1.00  0.00     0.127 C 
ENDROOT
BRANCH   1   2
ATOM      2  C   UNL     1       6.172   3.816   0.837  1.00  0.00     0.303 C 
ATOM      3  O   UNL     1       6.141   3.797   2.092  1.00  0.00    -0.252 OA
BRANCH   2   4
ATOM      4  O   UNL     1       6.960   4.775   0.220  1.00  0.00    -0.481 OA
ATOM      5  H   UNL     1       6.579   5.303  -0.569  1.00  0.00     0.296 HD
ENDBRANCH   2   4
ENDBRANCH   1   2
BRANCH   1   6
ATOM      6  C   UNL     1       4.903   1.763   0.950  1.00  0.00     0.047 C 
BRANCH   6   7
ATOM      7  C   UNL     1       5.721   0.552   0.931  1.00  0.00    -0.047 A 
ATOM      8  C   UNL     1       6.431   0.201  -0.193  1.00  0.00     0.004 A 
ATOM      9  C   UNL     1       5.775  -0.239   2.055  1.00  0.00     0.004 A 
ATOM     10  C   UNL     1       7.192  -0.969  -0.140  1.00  0.00     0.000 A 
ATOM     11  C   UNL     1       6.528  -1.396   2.106  1.00  0.00     0.000 A 
ATOM     12  C   UNL     1       7.242  -1.755   0.983  1.00  0.00     0.000 A 
ENDBRANCH   6   7
ENDBRANCH   1   6
TORSDOF 4
ENDMDL
