@<TRIPOS>MOLECULE
/home/cewinharhar/GITHUB/reincatalyze/data/processed/docking_pred/2023_Apr_20-15:07/46861e00ed193d15618049a480e2ca269f83ce14_ligand_2.pdbqt
 12 12 0 0 0
SMALL
GASTEIGER

@<TRIPOS>ATOM
      1  C          5.3930    2.8440    0.0350 C.3     1  UNL1        0.1270
      2  C          6.1720    3.8160    0.8370 C.2     1  UNL1        0.3030
      3  O          6.1410    3.7970    2.0920 O.2     1  UNL1       -0.2520
      4  O          6.9600    4.7750    0.2200 O.3     1  UNL1       -0.4810
      5  H          6.5790    5.3030   -0.5690 H       1  UNL1        0.2960
      6  C          4.9030    1.7630    0.9500 C.3     1  UNL1        0.0470
      7  C          5.7210    0.5520    0.9310 C.2     1  UNL1       -0.0470
      8  C          6.4310    0.2010   -0.1930 C.2     1  UNL1        0.0040
      9  C          5.7750   -0.2390    2.0550 C.2     1  UNL1        0.0040
     10  C          7.1920   -0.9690   -0.1400 C.2     1  UNL1        0.0000
     11  C          6.5280   -1.3960    2.1060 C.2     1  UNL1        0.0000
     12  C          7.2420   -1.7550    0.9830 C.2     1  UNL1        0.0000
@<TRIPOS>BOND
     1     5     4    1
     2     8    10    1
     3     8     7    2
     4    10    12    2
     5     1     2    1
     6     1     6    1
     7     4     2    1
     8     2     3    2
     9     7     6    1
    10     7     9    1
    11    12    11    1
    12     9    11    2
