@<TRIPOS>MOLECULE
/home/cewinharhar/GITHUB/reincatalyze/data/processed/docking_pred/2023_Apr_20-15:07/46aa5159a95d0d08c04f597503a56ad94e9ef6ed_ligand_2.pdbqt
 12 12 0 0 0
SMALL
GASTEIGER

@<TRIPOS>ATOM
      1  C          5.5160    2.7340   -0.0200 C.3     1  UNL1        0.1270
      2  C          6.2090    3.7610    0.7940 C.2     1  UNL1        0.3030
      3  O          6.1570    3.7410    2.0480 O.2     1  UNL1       -0.2520
      4  O          6.9350    4.7750    0.1900 O.3     1  UNL1       -0.4810
      5  H          7.7800    5.1270    0.6480 H       1  UNL1        0.2960
      6  C          4.9540    1.7000    0.9060 C.3     1  UNL1        0.0470
      7  C          5.7470    0.4740    0.9810 C.2     1  UNL1       -0.0470
      8  C          5.7560   -0.2890    2.1260 C.2     1  UNL1        0.0040
      9  C          6.4870    0.0860   -0.1110 C.2     1  UNL1        0.0040
     10  C          6.5350   -1.4480    2.1260 C.2     1  UNL1        0.0000
     11  C          7.2580   -1.0600   -0.1090 C.2     1  UNL1        0.0000
     12  C          7.2730   -1.8290    1.0340 C.2     1  UNL1        0.0000
@<TRIPOS>BOND
     1     9    11    1
     2     9     7    2
     3    11    12    2
     4     1     2    1
     5     1     6    1
     6     4     5    1
     7     4     2    1
     8     2     3    2
     9     6     7    1
    10     7     8    1
    11    12    10    1
    12     8    10    2
