@<TRIPOS>MOLECULE
/home/cewinharhar/GITHUB/reincatalyze/data/processed/docking_pred/2023_Apr_20-15:07/46aa5159a95d0d08c04f597503a56ad94e9ef6ed_ligand_2.pdbqt
 12 12 0 0 0
SMALL
GASTEIGER

@<TRIPOS>ATOM
      1  C          4.9960    1.8050    0.6880 C.3     1  UNL1        0.1270
      2  C          4.4900    1.1250    1.9040 C.2     1  UNL1        0.3030
      3  O          5.1570    0.2240    2.4710 O.2     1  UNL1       -0.2520
      4  O          3.2620    1.4650    2.4480 O.3     1  UNL1       -0.4810
      5  H          3.1500    2.3760    2.9020 H       1  UNL1        0.2960
      6  C          6.4940    1.7990    0.7350 C.3     1  UNL1        0.0470
      7  C          7.1190    1.0460   -0.3500 C.2     1  UNL1       -0.0470
      8  C          6.3830    0.1690   -1.1140 C.2     1  UNL1        0.0040
      9  C          8.4600    1.2230   -0.6050 C.2     1  UNL1        0.0040
     10  C          7.0460   -0.5160   -2.1350 C.2     1  UNL1        0.0000
     11  C          9.1140    0.5450   -1.6140 C.2     1  UNL1        0.0000
     12  C          8.3840   -0.3360   -2.3830 C.2     1  UNL1        0.0000
@<TRIPOS>BOND
     1    12    10    2
     2    12    11    1
     3    10     8    1
     4    11     9    2
     5     8     7    2
     6     9     7    1
     7     7     6    1
     8     1     6    1
     9     1     2    1
    10     2     4    1
    11     2     3    2
    12     4     5    1
