@<TRIPOS>MOLECULE
/home/cewinharhar/GITHUB/reincatalyze/data/processed/docking_pred/2023_Apr_20-15:07/46aa5159a95d0d08c04f597503a56ad94e9ef6ed_ligand_2.pdbqt
 12 12 0 0 0
SMALL
GASTEIGER

@<TRIPOS>ATOM
      1  C          8.2250    0.2160   -2.1810 C.3     1  UNL1        0.1270
      2  C          9.3430    0.3400   -1.2150 C.2     1  UNL1        0.3030
      3  O          9.4370   -0.4290   -0.2270 O.2     1  UNL1       -0.2520
      4  O         10.3170    1.3120   -1.3780 O.3     1  UNL1       -0.4810
      5  H         11.0760    1.1530   -2.0460 H       1  UNL1        0.2960
      6  C          7.1080   -0.5280   -1.5140 C.3     1  UNL1        0.0470
      7  C          6.3360    0.2780   -0.5710 C.2     1  UNL1       -0.0470
      8  C          6.1110   -0.1630    0.7120 C.2     1  UNL1        0.0040
      9  C          5.8350    1.4930   -0.9790 C.2     1  UNL1        0.0040
     10  C          5.3660    0.6600    1.5600 C.2     1  UNL1        0.0000
     11  C          5.0990    2.3050   -0.1390 C.2     1  UNL1        0.0000
     12  C          4.8680    1.8700    1.1470 C.2     1  UNL1        0.0000
@<TRIPOS>BOND
     1     1     6    1
     2     1     2    1
     3     5     4    1
     4     6     7    1
     5     4     2    1
     6     2     3    2
     7     9     7    2
     8     9    11    1
     9     7     8    1
    10    11    12    2
    11     8    10    2
    12    12    10    1
