MODEL 1
REMARK VINA RESULT:      -7.4      0.000      0.000
REMARK SMILES O=C(O)CCc1ccccc1
REMARK SMILES IDX 4 1 2 2 1 3 3 4 5 6 6 7 7 8 11 9 8 10 10 11 9 12
REMARK H PARENT 3 5
REMARK Flexibility Score: inf
ROOT
ATOM      1  C   UNL     1       8.465  -0.623  -2.144  1.00  0.00     0.127 C 
ENDROOT
BRANCH   1   2
ATOM      2  C   UNL     1       8.480  -1.898  -2.899  1.00  0.00     0.303 C 
ATOM      3  O   UNL     1       9.548  -2.533  -3.083  1.00  0.00    -0.252 OA
BRANCH   2   4
ATOM      4  O   UNL     1       7.312  -2.426  -3.424  1.00  0.00    -0.481 OA
ATOM      5  H   UNL     1       6.446  -2.366  -2.881  1.00  0.00     0.296 HD
ENDBRANCH   2   4
ENDBRANCH   1   2
BRANCH   1   6
ATOM      6  C   UNL     1       7.057  -0.111  -2.113  1.00  0.00     0.047 C 
BRANCH   6   7
ATOM      7  C   UNL     1       6.506   0.031  -0.766  1.00  0.00    -0.047 A 
ATOM      8  C   UNL     1       6.629  -0.983   0.155  1.00  0.00     0.004 A 
ATOM      9  C   UNL     1       5.861   1.197  -0.424  1.00  0.00     0.004 A 
ATOM     10  C   UNL     1       6.080  -0.778   1.422  1.00  0.00     0.000 A 
ATOM     11  C   UNL     1       5.318   1.398   0.829  1.00  0.00     0.000 A 
ATOM     12  C   UNL     1       5.436   0.386   1.757  1.00  0.00     0.000 A 
ENDBRANCH   6   7
ENDBRANCH   1   6
TORSDOF 4
ENDMDL
MODEL 2
REMARK VINA RESULT:      -7.3      0.107      1.731
REMARK SMILES O=C(O)CCc1ccccc1
REMARK SMILES IDX 4 1 2 2 1 3 3 4 5 6 6 7 7 8 11 9 8 10 10 11 9 12
REMARK H PARENT 3 5
REMARK Flexibility Score: inf
ROOT
ATOM      1  C   UNL     1       8.410  -0.611  -2.148  1.00  0.00     0.127 C 
ENDROOT
BRANCH   1   2
ATOM      2  C   UNL     1       8.391  -1.890  -2.897  1.00  0.00     0.303 C 
ATOM      3  O   UNL     1       7.309  -2.427  -3.240  1.00  0.00    -0.252 OA
BRANCH   2   4
ATOM      4  O   UNL     1       9.572  -2.529  -3.241  1.00  0.00    -0.481 OA
ATOM      5  H   UNL     1       9.552  -3.525  -3.475  1.00  0.00     0.296 HD
ENDBRANCH   2   4
ENDBRANCH   1   2
BRANCH   1   6
ATOM      6  C   UNL     1       7.014  -0.067  -2.110  1.00  0.00     0.047 C 
BRANCH   6   7
ATOM      7  C   UNL     1       6.472   0.085  -0.761  1.00  0.00    -0.047 A 
ATOM      8  C   UNL     1       5.845   1.249  -0.382  1.00  0.00     0.004 A 
ATOM      9  C   UNL     1       6.594  -0.954   0.133  1.00  0.00     0.004 A 
ATOM     10  C   UNL     1       5.350   1.324   0.922  1.00  0.00     0.000 A 
ATOM     11  C   UNL     1       6.104  -0.878   1.422  1.00  0.00     0.000 A 
ATOM     12  C   UNL     1       5.475   0.285   1.809  1.00  0.00     0.000 A 
ENDBRANCH   6   7
ENDBRANCH   1   6
TORSDOF 4
ENDMDL
MODEL 3
REMARK VINA RESULT:      -6.8      3.373      5.067
REMARK SMILES O=C(O)CCc1ccccc1
REMARK SMILES IDX 4 1 2 2 1 3 3 4 5 6 6 7 7 8 11 9 8 10 10 11 9 12
REMARK H PARENT 3 5
REMARK Flexibility Score: inf
ROOT
ATOM      1  C   UNL     1       4.996   1.805   0.688  1.00  0.00     0.127 C 
ENDROOT
BRANCH   1   2
ATOM      2  C   UNL     1       4.490   1.125   1.904  1.00  0.00     0.303 C 
ATOM      3  O   UNL     1       5.157   0.224   2.471  1.00  0.00    -0.252 OA
BRANCH   2   4
ATOM      4  O   UNL     1       3.262   1.465   2.448  1.00  0.00    -0.481 OA
ATOM      5  H   UNL     1       3.150   2.376   2.902  1.00  0.00     0.296 HD
ENDBRANCH   2   4
ENDBRANCH   1   2
BRANCH   1   6
ATOM      6  C   UNL     1       6.494   1.799   0.735  1.00  0.00     0.047 C 
BRANCH   6   7
ATOM      7  C   UNL     1       7.119   1.046  -0.350  1.00  0.00    -0.047 A 
ATOM      8  C   UNL     1       6.383   0.169  -1.114  1.00  0.00     0.004 A 
ATOM      9  C   UNL     1       8.460   1.223  -0.605  1.00  0.00     0.004 A 
ATOM     10  C   UNL     1       7.046  -0.516  -2.135  1.00  0.00     0.000 A 
ATOM     11  C   UNL     1       9.114   0.545  -1.614  1.00  0.00     0.000 A 
ATOM     12  C   UNL     1       8.384  -0.336  -2.383  1.00  0.00     0.000 A 
ENDBRANCH   6   7
ENDBRANCH   1   6
TORSDOF 4
ENDMDL
MODEL 4
REMARK VINA RESULT:      -6.6      1.930      2.311
REMARK SMILES O=C(O)CCc1ccccc1
REMARK SMILES IDX 4 1 2 2 1 3 3 4 5 6 6 7 7 8 11 9 8 10 10 11 9 12
REMARK H PARENT 3 5
REMARK Flexibility Score: inf
ROOT
ATOM      1  C   UNL     1       8.225   0.216  -2.181  1.00  0.00     0.127 C 
ENDROOT
BRANCH   1   2
ATOM      2  C   UNL     1       9.343   0.340  -1.215  1.00  0.00     0.303 C 
ATOM      3  O   UNL     1       9.437  -0.429  -0.227  1.00  0.00    -0.252 OA
BRANCH   2   4
ATOM      4  O   UNL     1      10.317   1.312  -1.378  1.00  0.00    -0.481 OA
ATOM      5  H   UNL     1      11.076   1.153  -2.046  1.00  0.00     0.296 HD
ENDBRANCH   2   4
ENDBRANCH   1   2
BRANCH   1   6
ATOM      6  C   UNL     1       7.108  -0.528  -1.514  1.00  0.00     0.047 C 
BRANCH   6   7
ATOM      7  C   UNL     1       6.336   0.278  -0.571  1.00  0.00    -0.047 A 
ATOM      8  C   UNL     1       6.111  -0.163   0.712  1.00  0.00     0.004 A 
ATOM      9  C   UNL     1       5.835   1.493  -0.979  1.00  0.00     0.004 A 
ATOM     10  C   UNL     1       5.366   0.660   1.560  1.00  0.00     0.000 A 
ATOM     11  C   UNL     1       5.099   2.305  -0.139  1.00  0.00     0.000 A 
ATOM     12  C   UNL     1       4.868   1.870   1.147  1.00  0.00     0.000 A 
ENDBRANCH   6   7
ENDBRANCH   1   6
TORSDOF 4
ENDMDL
MODEL 5
REMARK VINA RESULT:      -6.6      3.820      4.915
REMARK SMILES O=C(O)CCc1ccccc1
REMARK SMILES IDX 4 1 2 2 1 3 3 4 5 6 6 7 7 8 11 9 8 10 10 11 9 12
REMARK H PARENT 3 5
REMARK Flexibility Score: inf
ROOT
ATOM      1  C   UNL     1       5.516   2.734  -0.020  1.00  0.00     0.127 C 
ENDROOT
BRANCH   1   2
ATOM      2  C   UNL     1       6.209   3.761   0.794  1.00  0.00     0.303 C 
ATOM      3  O   UNL     1       6.157   3.741   2.048  1.00  0.00    -0.252 OA
BRANCH   2   4
ATOM      4  O   UNL     1       6.935   4.775   0.190  1.00  0.00    -0.481 OA
ATOM      5  H   UNL     1       7.780   5.127   0.648  1.00  0.00     0.296 HD
ENDBRANCH   2   4
ENDBRANCH   1   2
BRANCH   1   6
ATOM      6  C   UNL     1       4.954   1.700   0.906  1.00  0.00     0.047 C 
BRANCH   6   7
ATOM      7  C   UNL     1       5.747   0.474   0.981  1.00  0.00    -0.047 A 
ATOM      8  C   UNL     1       5.756  -0.289   2.126  1.00  0.00     0.004 A 
ATOM      9  C   UNL     1       6.487   0.086  -0.111  1.00  0.00     0.004 A 
ATOM     10  C   UNL     1       6.535  -1.448   2.126  1.00  0.00     0.000 A 
ATOM     11  C   UNL     1       7.258  -1.060  -0.109  1.00  0.00     0.000 A 
ATOM     12  C   UNL     1       7.273  -1.829   1.034  1.00  0.00     0.000 A 
ENDBRANCH   6   7
ENDBRANCH   1   6
TORSDOF 4
ENDMDL
