@<TRIPOS>MOLECULE
/home/cewinharhar/GITHUB/reincatalyze/data/processed/docking_pred/2023_Apr_20-15:07/46aa5159a95d0d08c04f597503a56ad94e9ef6ed_ligand_2.pdbqt
 12 12 0 0 0
SMALL
GASTEIGER

@<TRIPOS>ATOM
      1  C          8.4650   -0.6230   -2.1440 C.3     1  UNL1        0.1270
      2  C          8.4800   -1.8980   -2.8990 C.2     1  UNL1        0.3030
      3  O          9.5480   -2.5330   -3.0830 O.2     1  UNL1       -0.2520
      4  O          7.3120   -2.4260   -3.4240 O.3     1  UNL1       -0.4810
      5  H          6.4460   -2.3660   -2.8810 H       1  UNL1        0.2960
      6  C          7.0570   -0.1110   -2.1130 C.3     1  UNL1        0.0470
      7  C          6.5060    0.0310   -0.7660 C.2     1  UNL1       -0.0470
      8  C          6.6290   -0.9830    0.1550 C.2     1  UNL1        0.0040
      9  C          5.8610    1.1970   -0.4240 C.2     1  UNL1        0.0040
     10  C          6.0800   -0.7780    1.4220 C.2     1  UNL1        0.0000
     11  C          5.3180    1.3980    0.8290 C.2     1  UNL1        0.0000
     12  C          5.4360    0.3860    1.7570 C.2     1  UNL1        0.0000
@<TRIPOS>BOND
     1     4     2    1
     2     4     5    1
     3     3     2    2
     4     2     1    1
     5     1     6    1
     6     6     7    1
     7     7     9    2
     8     7     8    1
     9     9    11    1
    10     8    10    2
    11    11    12    2
    12    10    12    1
