@<TRIPOS>MOLECULE
/home/cewinharhar/GITHUB/reincatalyze/data/processed/docking_pred/2023_Apr_20-15:07/46aa5159a95d0d08c04f597503a56ad94e9ef6ed_ligand_2.pdbqt
 12 12 0 0 0
SMALL
GASTEIGER

@<TRIPOS>ATOM
      1  C          8.4100   -0.6110   -2.1480 C.3     1  UNL1        0.1270
      2  C          8.3910   -1.8900   -2.8970 C.2     1  UNL1        0.3030
      3  O          7.3090   -2.4270   -3.2400 O.2     1  UNL1       -0.2520
      4  O          9.5720   -2.5290   -3.2410 O.3     1  UNL1       -0.4810
      5  H          9.5520   -3.5250   -3.4750 H       1  UNL1        0.2960
      6  C          7.0140   -0.0670   -2.1100 C.3     1  UNL1        0.0470
      7  C          6.4720    0.0850   -0.7610 C.2     1  UNL1       -0.0470
      8  C          5.8450    1.2490   -0.3820 C.2     1  UNL1        0.0040
      9  C          6.5940   -0.9540    0.1330 C.2     1  UNL1        0.0040
     10  C          5.3500    1.3240    0.9220 C.2     1  UNL1        0.0000
     11  C          6.1040   -0.8780    1.4220 C.2     1  UNL1        0.0000
     12  C          5.4750    0.2850    1.8090 C.2     1  UNL1        0.0000
@<TRIPOS>BOND
     1     5     4    1
     2     4     2    1
     3     3     2    2
     4     2     1    1
     5     1     6    1
     6     6     7    1
     7     7     8    2
     8     7     9    1
     9     8    10    1
    10     9    11    2
    11    10    12    2
    12    11    12    1
