@<TRIPOS>MOLECULE
/home/cewinharhar/GITHUB/reincatalyze/data/processed/docking_pred/2023_Apr_20-15:07/4a3a178b6a4326eb13634b12f3ce9c4ec26f8538_ligand_2.pdbqt
 12 12 0 0 0
SMALL
GASTEIGER

@<TRIPOS>ATOM
      1  C          7.8830   -2.2190    0.8460 C.3     1  UNL1        0.1270
      2  C          8.7160   -3.3320    0.3320 C.2     1  UNL1        0.3030
      3  O          9.5990   -3.8670    1.0460 O.2     1  UNL1       -0.2520
      4  O          8.5430   -3.8130   -0.9560 O.3     1  UNL1       -0.4810
      5  H          7.8690   -3.3540   -1.5750 H       1  UNL1        0.2960
      6  C          7.4250   -1.3970   -0.3200 C.3     1  UNL1        0.0470
      7  C          6.5670   -0.2720    0.0470 C.2     1  UNL1       -0.0470
      8  C          6.3040    0.7350   -0.8540 C.2     1  UNL1        0.0040
      9  C          6.0190   -0.2280    1.3080 C.2     1  UNL1        0.0040
     10  C          5.4750    1.7780   -0.4350 C.2     1  UNL1        0.0000
     11  C          5.2010    0.8050    1.7200 C.2     1  UNL1        0.0000
     12  C          4.9320    1.8170    0.8240 C.2     1  UNL1        0.0000
@<TRIPOS>BOND
     1     5     4    1
     2     4     2    1
     3     8    10    1
     4     8     7    2
     5    10    12    2
     6     6     7    1
     7     6     1    1
     8     7     9    1
     9     2     1    1
    10     2     3    2
    11    12    11    1
    12     9    11    2
