@<TRIPOS>MOLECULE
/home/cewinharhar/GITHUB/reincatalyze/data/processed/docking_pred/2023_Apr_20-15:07/4a3a178b6a4326eb13634b12f3ce9c4ec26f8538_ligand_2.pdbqt
 12 12 0 0 0
SMALL
GASTEIGER

@<TRIPOS>ATOM
      1  C          4.9780    1.8170    0.7180 C.3     1  UNL1        0.1270
      2  C          4.4820    1.1120    1.9230 C.2     1  UNL1        0.3030
      3  O          5.1570    0.2050    2.4700 O.2     1  UNL1       -0.2520
      4  O          3.2550    1.4340    2.4800 O.3     1  UNL1       -0.4810
      5  H          3.1800    1.5530    3.4940 H       1  UNL1        0.2960
      6  C          6.4760    1.8220    0.7590 C.3     1  UNL1        0.0470
      7  C          7.1030    1.0830   -0.3360 C.2     1  UNL1       -0.0470
      8  C          6.3590    0.2470   -1.1360 C.2     1  UNL1        0.0040
      9  C          8.4520    1.2320   -0.5610 C.2     1  UNL1        0.0040
     10  C          7.0240   -0.4270   -2.1640 C.2     1  UNL1        0.0000
     11  C          9.1070    0.5650   -1.5770 C.2     1  UNL1        0.0000
     12  C          8.3690   -0.2740   -2.3830 C.2     1  UNL1        0.0000
@<TRIPOS>BOND
     1    12    10    2
     2    12    11    1
     3    10     8    1
     4    11     9    2
     5     8     7    2
     6     9     7    1
     7     7     6    1
     8     1     6    1
     9     1     2    1
    10     2     3    2
    11     2     4    1
    12     4     5    1
