@<TRIPOS>MOLECULE
/home/cewinharhar/GITHUB/reincatalyze/data/processed/docking_pred/2023_Apr_20-15:07/4a3a178b6a4326eb13634b12f3ce9c4ec26f8538_ligand_2.pdbqt
 12 12 0 0 0
SMALL
GASTEIGER

@<TRIPOS>ATOM
      1  C          8.4360   -0.5710   -2.2250 C.3     1  UNL1        0.1270
      2  C          8.4880   -1.8820   -2.9160 C.2     1  UNL1        0.3030
      3  O          9.5740   -2.4930   -3.0710 O.2     1  UNL1       -0.2520
      4  O          7.3350   -2.4700   -3.4110 O.3     1  UNL1       -0.4810
      5  H          7.1300   -2.4040   -4.4110 H       1  UNL1        0.2960
      6  C          7.0070   -0.1250   -2.1700 C.3     1  UNL1        0.0470
      7  C          6.4890    0.0440   -0.8130 C.2     1  UNL1       -0.0470
      8  C          5.8700    1.2140   -0.4370 C.2     1  UNL1        0.0040
      9  C          6.6240   -0.9840    0.0900 C.2     1  UNL1        0.0040
     10  C          5.3990    1.3060    0.8740 C.2     1  UNL1        0.0000
     11  C          6.1570   -0.8920    1.3860 C.2     1  UNL1        0.0000
     12  C          5.5370    0.2770    1.7710 C.2     1  UNL1        0.0000
@<TRIPOS>BOND
     1     5     4    1
     2     4     2    1
     3     3     2    2
     4     2     1    1
     5     1     6    1
     6     6     7    1
     7     7     8    2
     8     7     9    1
     9     8    10    1
    10     9    11    2
    11    10    12    2
    12    11    12    1
