@<TRIPOS>MOLECULE
/home/cewinharhar/GITHUB/reincatalyze/data/processed/docking_pred/2023_Apr_20-15:07/4a3a178b6a4326eb13634b12f3ce9c4ec26f8538_ligand_2.pdbqt
 12 12 0 0 0
SMALL
GASTEIGER

@<TRIPOS>ATOM
      1  C          8.3490    0.4830   -1.8700 C.3     1  UNL1        0.1270
      2  C          9.4990    0.2430   -0.9670 C.2     1  UNL1        0.3030
      3  O          9.4070   -0.5410    0.0100 O.2     1  UNL1       -0.2520
      4  O         10.7110    0.8800   -1.1770 O.3     1  UNL1       -0.4810
      5  H         11.3600    0.5050   -1.8750 H       1  UNL1        0.2960
      6  C          7.2040   -0.3680   -1.4100 C.3     1  UNL1        0.0470
      7  C          6.3660    0.2620   -0.3910 C.2     1  UNL1       -0.0470
      8  C          6.1570   -0.3490    0.8230 C.2     1  UNL1        0.0040
      9  C          5.7870    1.4810   -0.6580 C.2     1  UNL1        0.0040
     10  C          5.3460    0.3110    1.7500 C.2     1  UNL1        0.0000
     11  C          4.9860    2.1320    0.2590 C.2     1  UNL1        0.0000
     12  C          4.7700    1.5260    1.4770 C.2     1  UNL1        0.0000
@<TRIPOS>BOND
     1     5     4    1
     2     1     6    1
     3     1     2    1
     4     6     7    1
     5     4     2    1
     6     2     3    2
     7     9     7    2
     8     9    11    1
     9     7     8    1
    10    11    12    2
    11     8    10    2
    12    12    10    1
