@<TRIPOS>MOLECULE
/home/cewinharhar/GITHUB/reincatalyze/data/processed/docking_pred/2023_Apr_20-15:07/4a3a178b6a4326eb13634b12f3ce9c4ec26f8538_ligand_2.pdbqt
 12 12 0 0 0
SMALL
GASTEIGER

@<TRIPOS>ATOM
      1  C          8.4620   -0.6320   -2.1330 C.3     1  UNL1        0.1270
      2  C          8.4780   -1.9010   -2.8970 C.2     1  UNL1        0.3030
      3  O          9.5460   -2.5350   -3.0850 O.2     1  UNL1       -0.2520
      4  O          7.3100   -2.4250   -3.4280 O.3     1  UNL1       -0.4810
      5  H          6.4540   -2.4080   -2.8680 H       1  UNL1        0.2960
      6  C          7.0550   -0.1170   -2.1040 C.3     1  UNL1        0.0470
      7  C          6.5000    0.0220   -0.7580 C.2     1  UNL1       -0.0470
      8  C          6.6220   -0.9940    0.1610 C.2     1  UNL1        0.0040
      9  C          5.8530    1.1870   -0.4170 C.2     1  UNL1        0.0040
     10  C          6.0690   -0.7910    1.4280 C.2     1  UNL1        0.0000
     11  C          5.3070    1.3860    0.8360 C.2     1  UNL1        0.0000
     12  C          5.4240    0.3730    1.7630 C.2     1  UNL1        0.0000
@<TRIPOS>BOND
     1     4     2    1
     2     4     5    1
     3     3     2    2
     4     2     1    1
     5     1     6    1
     6     6     7    1
     7     7     9    2
     8     7     8    1
     9     9    11    1
    10     8    10    2
    11    11    12    2
    12    10    12    1
