MODEL 1
REMARK VINA RESULT:      -7.4      0.000      0.000
REMARK SMILES O=C(O)CCc1ccccc1
REMARK SMILES IDX 4 1 2 2 1 3 3 4 5 6 6 7 7 8 11 9 8 10 10 11 9 12
REMARK H PARENT 3 5
REMARK Flexibility Score: inf
ROOT
ATOM      1  C   UNL     1       8.462  -0.632  -2.133  1.00  0.00     0.127 C 
ENDROOT
BRANCH   1   2
ATOM      2  C   UNL     1       8.478  -1.901  -2.897  1.00  0.00     0.303 C 
ATOM      3  O   UNL     1       9.546  -2.535  -3.085  1.00  0.00    -0.252 OA
BRANCH   2   4
ATOM      4  O   UNL     1       7.310  -2.425  -3.428  1.00  0.00    -0.481 OA
ATOM      5  H   UNL     1       6.454  -2.408  -2.868  1.00  0.00     0.296 HD
ENDBRANCH   2   4
ENDBRANCH   1   2
BRANCH   1   6
ATOM      6  C   UNL     1       7.055  -0.117  -2.104  1.00  0.00     0.047 C 
BRANCH   6   7
ATOM      7  C   UNL     1       6.500   0.022  -0.758  1.00  0.00    -0.047 A 
ATOM      8  C   UNL     1       6.622  -0.994   0.161  1.00  0.00     0.004 A 
ATOM      9  C   UNL     1       5.853   1.187  -0.417  1.00  0.00     0.004 A 
ATOM     10  C   UNL     1       6.069  -0.791   1.428  1.00  0.00     0.000 A 
ATOM     11  C   UNL     1       5.307   1.386   0.836  1.00  0.00     0.000 A 
ATOM     12  C   UNL     1       5.424   0.373   1.763  1.00  0.00     0.000 A 
ENDBRANCH   6   7
ENDBRANCH   1   6
TORSDOF 4
ENDMDL
MODEL 2
REMARK VINA RESULT:      -7.3      0.093      1.439
REMARK SMILES O=C(O)CCc1ccccc1
REMARK SMILES IDX 4 1 2 2 1 3 3 4 5 6 6 7 7 8 11 9 8 10 10 11 9 12
REMARK H PARENT 3 5
REMARK Flexibility Score: inf
ROOT
ATOM      1  C   UNL     1       8.436  -0.571  -2.225  1.00  0.00     0.127 C 
ENDROOT
BRANCH   1   2
ATOM      2  C   UNL     1       8.488  -1.882  -2.916  1.00  0.00     0.303 C 
ATOM      3  O   UNL     1       9.574  -2.493  -3.071  1.00  0.00    -0.252 OA
BRANCH   2   4
ATOM      4  O   UNL     1       7.335  -2.470  -3.411  1.00  0.00    -0.481 OA
ATOM      5  H   UNL     1       7.130  -2.404  -4.411  1.00  0.00     0.296 HD
ENDBRANCH   2   4
ENDBRANCH   1   2
BRANCH   1   6
ATOM      6  C   UNL     1       7.007  -0.125  -2.170  1.00  0.00     0.047 C 
BRANCH   6   7
ATOM      7  C   UNL     1       6.489   0.044  -0.813  1.00  0.00    -0.047 A 
ATOM      8  C   UNL     1       5.870   1.214  -0.437  1.00  0.00     0.004 A 
ATOM      9  C   UNL     1       6.624  -0.984   0.090  1.00  0.00     0.004 A 
ATOM     10  C   UNL     1       5.399   1.306   0.874  1.00  0.00     0.000 A 
ATOM     11  C   UNL     1       6.157  -0.892   1.386  1.00  0.00     0.000 A 
ATOM     12  C   UNL     1       5.537   0.277   1.771  1.00  0.00     0.000 A 
ENDBRANCH   6   7
ENDBRANCH   1   6
TORSDOF 4
ENDMDL
MODEL 3
REMARK VINA RESULT:      -6.8      3.377      5.078
REMARK SMILES O=C(O)CCc1ccccc1
REMARK SMILES IDX 4 1 2 2 1 3 3 4 5 6 6 7 7 8 11 9 8 10 10 11 9 12
REMARK H PARENT 3 5
REMARK Flexibility Score: inf
ROOT
ATOM      1  C   UNL     1       4.978   1.817   0.718  1.00  0.00     0.127 C 
ENDROOT
BRANCH   1   2
ATOM      2  C   UNL     1       4.482   1.112   1.923  1.00  0.00     0.303 C 
ATOM      3  O   UNL     1       5.157   0.205   2.470  1.00  0.00    -0.252 OA
BRANCH   2   4
ATOM      4  O   UNL     1       3.255   1.434   2.480  1.00  0.00    -0.481 OA
ATOM      5  H   UNL     1       3.180   1.553   3.494  1.00  0.00     0.296 HD
ENDBRANCH   2   4
ENDBRANCH   1   2
BRANCH   1   6
ATOM      6  C   UNL     1       6.476   1.822   0.759  1.00  0.00     0.047 C 
BRANCH   6   7
ATOM      7  C   UNL     1       7.103   1.083  -0.336  1.00  0.00    -0.047 A 
ATOM      8  C   UNL     1       6.359   0.247  -1.136  1.00  0.00     0.004 A 
ATOM      9  C   UNL     1       8.452   1.232  -0.561  1.00  0.00     0.004 A 
ATOM     10  C   UNL     1       7.024  -0.427  -2.164  1.00  0.00     0.000 A 
ATOM     11  C   UNL     1       9.107   0.565  -1.577  1.00  0.00     0.000 A 
ATOM     12  C   UNL     1       8.369  -0.274  -2.383  1.00  0.00     0.000 A 
ENDBRANCH   6   7
ENDBRANCH   1   6
TORSDOF 4
ENDMDL
MODEL 4
REMARK VINA RESULT:      -6.6      2.003      2.306
REMARK SMILES O=C(O)CCc1ccccc1
REMARK SMILES IDX 4 1 2 2 1 3 3 4 5 6 6 7 7 8 11 9 8 10 10 11 9 12
REMARK H PARENT 3 5
REMARK Flexibility Score: inf
ROOT
ATOM      1  C   UNL     1       8.349   0.483  -1.870  1.00  0.00     0.127 C 
ENDROOT
BRANCH   1   2
ATOM      2  C   UNL     1       9.499   0.243  -0.967  1.00  0.00     0.303 C 
ATOM      3  O   UNL     1       9.407  -0.541   0.010  1.00  0.00    -0.252 OA
BRANCH   2   4
ATOM      4  O   UNL     1      10.711   0.880  -1.177  1.00  0.00    -0.481 OA
ATOM      5  H   UNL     1      11.360   0.505  -1.875  1.00  0.00     0.296 HD
ENDBRANCH   2   4
ENDBRANCH   1   2
BRANCH   1   6
ATOM      6  C   UNL     1       7.204  -0.368  -1.410  1.00  0.00     0.047 C 
BRANCH   6   7
ATOM      7  C   UNL     1       6.366   0.262  -0.391  1.00  0.00    -0.047 A 
ATOM      8  C   UNL     1       6.157  -0.349   0.823  1.00  0.00     0.004 A 
ATOM      9  C   UNL     1       5.787   1.481  -0.658  1.00  0.00     0.004 A 
ATOM     10  C   UNL     1       5.346   0.311   1.750  1.00  0.00     0.000 A 
ATOM     11  C   UNL     1       4.986   2.132   0.259  1.00  0.00     0.000 A 
ATOM     12  C   UNL     1       4.770   1.526   1.477  1.00  0.00     0.000 A 
ENDBRANCH   6   7
ENDBRANCH   1   6
TORSDOF 4
ENDMDL
MODEL 5
REMARK VINA RESULT:      -6.6      1.977      2.734
REMARK SMILES O=C(O)CCc1ccccc1
REMARK SMILES IDX 4 1 2 2 1 3 3 4 5 6 6 7 7 8 11 9 8 10 10 11 9 12
REMARK H PARENT 3 5
REMARK Flexibility Score: inf
ROOT
ATOM      1  C   UNL     1       7.883  -2.219   0.846  1.00  0.00     0.127 C 
ENDROOT
BRANCH   1   2
ATOM      2  C   UNL     1       8.716  -3.332   0.332  1.00  0.00     0.303 C 
ATOM      3  O   UNL     1       9.599  -3.867   1.046  1.00  0.00    -0.252 OA
BRANCH   2   4
ATOM      4  O   UNL     1       8.543  -3.813  -0.956  1.00  0.00    -0.481 OA
ATOM      5  H   UNL     1       7.869  -3.354  -1.575  1.00  0.00     0.296 HD
ENDBRANCH   2   4
ENDBRANCH   1   2
BRANCH   1   6
ATOM      6  C   UNL     1       7.425  -1.397  -0.320  1.00  0.00     0.047 C 
BRANCH   6   7
ATOM      7  C   UNL     1       6.567  -0.272   0.047  1.00  0.00    -0.047 A 
ATOM      8  C   UNL     1       6.304   0.735  -0.854  1.00  0.00     0.004 A 
ATOM      9  C   UNL     1       6.019  -0.228   1.308  1.00  0.00     0.004 A 
ATOM     10  C   UNL     1       5.475   1.778  -0.435  1.00  0.00     0.000 A 
ATOM     11  C   UNL     1       5.201   0.805   1.720  1.00  0.00     0.000 A 
ATOM     12  C   UNL     1       4.932   1.817   0.824  1.00  0.00     0.000 A 
ENDBRANCH   6   7
ENDBRANCH   1   6
TORSDOF 4
ENDMDL
