@<TRIPOS>MOLECULE
/home/cewinharhar/GITHUB/reincatalyze/data/processed/docking_pred/2023_Apr_20-15:07/4d620996829bdf69d2437cdb6940cc233521eaf3_ligand_2.pdbqt
 12 12 0 0 0
SMALL
GASTEIGER

@<TRIPOS>ATOM
      1  C          7.3290   -1.4130   -2.2610 C.3     1  UNL1        0.1270
      2  C          8.7840   -1.4150   -2.5400 C.2     1  UNL1        0.3030
      3  O          9.3200   -2.3420   -3.1970 O.2     1  UNL1       -0.2520
      4  O          9.5960   -0.3900   -2.0820 O.3     1  UNL1       -0.4810
      5  H          9.5990    0.5070   -2.5770 H       1  UNL1        0.2960
      6  C          7.1350   -1.4040   -0.7750 C.3     1  UNL1        0.0470
      7  C          6.4400   -0.2200   -0.2730 C.2     1  UNL1       -0.0470
      8  C          6.0320    0.7730   -1.1330 C.2     1  UNL1        0.0040
      9  C          6.1950   -0.1070    1.0760 C.2     1  UNL1        0.0040
     10  C          5.3740    1.8760   -0.5830 C.2     1  UNL1        0.0000
     11  C          5.5440    0.9840    1.6170 C.2     1  UNL1        0.0000
     12  C          5.1330    1.9840    0.7630 C.2     1  UNL1        0.0000
@<TRIPOS>BOND
     1     3     2    2
     2     5     4    1
     3     2     1    1
     4     2     4    1
     5     1     6    1
     6     8    10    1
     7     8     7    2
     8     6     7    1
     9    10    12    2
    10     7     9    1
    11    12    11    1
    12     9    11    2
