MODEL 1
REMARK VINA RESULT:      -7.2      0.000      0.000
REMARK SMILES O=C(O)CCc1ccccc1
REMARK SMILES IDX 4 1 2 2 1 3 3 4 5 6 6 7 7 8 11 9 8 10 10 11 9 12
REMARK H PARENT 3 5
REMARK Flexibility Score: inf
ROOT
ATOM      1  C   UNL     1       8.368  -0.550  -2.267  1.00  0.00     0.127 C 
ENDROOT
BRANCH   1   2
ATOM      2  C   UNL     1       8.437  -1.874  -2.929  1.00  0.00     0.303 C 
ATOM      3  O   UNL     1       9.531  -2.476  -3.067  1.00  0.00    -0.252 OA
BRANCH   2   4
ATOM      4  O   UNL     1       7.293  -2.485  -3.417  1.00  0.00    -0.481 OA
ATOM      5  H   UNL     1       6.433  -1.937  -3.509  1.00  0.00     0.296 HD
ENDBRANCH   2   4
ENDBRANCH   1   2
BRANCH   1   6
ATOM      6  C   UNL     1       6.925  -0.185  -2.096  1.00  0.00     0.047 C 
BRANCH   6   7
ATOM      7  C   UNL     1       6.513  -0.027  -0.702  1.00  0.00    -0.047 A 
ATOM      8  C   UNL     1       5.944   1.147  -0.265  1.00  0.00     0.004 A 
ATOM      9  C   UNL     1       6.698  -1.070   0.176  1.00  0.00     0.004 A 
ATOM     10  C   UNL     1       5.574   1.228   1.079  1.00  0.00     0.000 A 
ATOM     11  C   UNL     1       6.332  -0.989   1.504  1.00  0.00     0.000 A 
ATOM     12  C   UNL     1       5.762   0.184   1.950  1.00  0.00     0.000 A 
ENDBRANCH   6   7
ENDBRANCH   1   6
TORSDOF 4
ENDMDL
MODEL 2
REMARK VINA RESULT:      -7.2      0.272      1.456
REMARK SMILES O=C(O)CCc1ccccc1
REMARK SMILES IDX 4 1 2 2 1 3 3 4 5 6 6 7 7 8 11 9 8 10 10 11 9 12
REMARK H PARENT 3 5
REMARK Flexibility Score: inf
ROOT
ATOM      1  C   UNL     1       8.449  -0.680  -2.084  1.00  0.00     0.127 C 
ENDROOT
BRANCH   1   2
ATOM      2  C   UNL     1       8.481  -1.929  -2.880  1.00  0.00     0.303 C 
ATOM      3  O   UNL     1       9.562  -2.525  -3.114  1.00  0.00    -0.252 OA
BRANCH   2   4
ATOM      4  O   UNL     1       7.314  -2.476  -3.390  1.00  0.00    -0.481 OA
ATOM      5  H   UNL     1       6.793  -1.964  -4.107  1.00  0.00     0.296 HD
ENDBRANCH   2   4
ENDBRANCH   1   2
BRANCH   1   6
ATOM      6  C   UNL     1       7.038  -0.178  -2.052  1.00  0.00     0.047 C 
BRANCH   6   7
ATOM      7  C   UNL     1       6.522   0.058  -0.704  1.00  0.00    -0.047 A 
ATOM      8  C   UNL     1       6.684  -0.883   0.286  1.00  0.00     0.004 A 
ATOM      9  C   UNL     1       5.870   1.239  -0.432  1.00  0.00     0.004 A 
ATOM     10  C   UNL     1       6.166  -0.590   1.549  1.00  0.00     0.000 A 
ATOM     11  C   UNL     1       5.359   1.527   0.818  1.00  0.00     0.000 A 
ATOM     12  C   UNL     1       5.516   0.589   1.815  1.00  0.00     0.000 A 
ENDBRANCH   6   7
ENDBRANCH   1   6
TORSDOF 4
ENDMDL
MODEL 3
REMARK VINA RESULT:      -6.8      1.090      1.733
REMARK SMILES O=C(O)CCc1ccccc1
REMARK SMILES IDX 4 1 2 2 1 3 3 4 5 6 6 7 7 8 11 9 8 10 10 11 9 12
REMARK H PARENT 3 5
REMARK Flexibility Score: inf
ROOT
ATOM      1  C   UNL     1       7.329  -1.413  -2.261  1.00  0.00     0.127 C 
ENDROOT
BRANCH   1   2
ATOM      2  C   UNL     1       8.784  -1.415  -2.540  1.00  0.00     0.303 C 
ATOM      3  O   UNL     1       9.320  -2.342  -3.197  1.00  0.00    -0.252 OA
BRANCH   2   4
ATOM      4  O   UNL     1       9.596  -0.390  -2.082  1.00  0.00    -0.481 OA
ATOM      5  H   UNL     1       9.599   0.507  -2.577  1.00  0.00     0.296 HD
ENDBRANCH   2   4
ENDBRANCH   1   2
BRANCH   1   6
ATOM      6  C   UNL     1       7.135  -1.404  -0.775  1.00  0.00     0.047 C 
BRANCH   6   7
ATOM      7  C   UNL     1       6.440  -0.220  -0.273  1.00  0.00    -0.047 A 
ATOM      8  C   UNL     1       6.032   0.773  -1.133  1.00  0.00     0.004 A 
ATOM      9  C   UNL     1       6.195  -0.107   1.076  1.00  0.00     0.004 A 
ATOM     10  C   UNL     1       5.374   1.876  -0.583  1.00  0.00     0.000 A 
ATOM     11  C   UNL     1       5.544   0.984   1.617  1.00  0.00     0.000 A 
ATOM     12  C   UNL     1       5.133   1.984   0.763  1.00  0.00     0.000 A 
ENDBRANCH   6   7
ENDBRANCH   1   6
TORSDOF 4
ENDMDL
MODEL 4
REMARK VINA RESULT:      -6.6      3.784      5.123
REMARK SMILES O=C(O)CCc1ccccc1
REMARK SMILES IDX 4 1 2 2 1 3 3 4 5 6 6 7 7 8 11 9 8 10 10 11 9 12
REMARK H PARENT 3 5
REMARK Flexibility Score: inf
ROOT
ATOM      1  C   UNL     1       5.392   2.934   0.194  1.00  0.00     0.127 C 
ENDROOT
BRANCH   1   2
ATOM      2  C   UNL     1       6.248   3.917   0.898  1.00  0.00     0.303 C 
ATOM      3  O   UNL     1       6.911   4.775   0.264  1.00  0.00    -0.252 OA
BRANCH   2   4
ATOM      4  O   UNL     1       6.341   3.916   2.281  1.00  0.00    -0.481 OA
ATOM      5  H   UNL     1       5.827   3.211   2.817  1.00  0.00     0.296 HD
ENDBRANCH   2   4
ENDBRANCH   1   2
BRANCH   1   6
ATOM      6  C   UNL     1       5.434   1.643   0.954  1.00  0.00     0.047 C 
BRANCH   6   7
ATOM      7  C   UNL     1       6.107   0.557   0.243  1.00  0.00    -0.047 A 
ATOM      8  C   UNL     1       6.672  -0.491   0.933  1.00  0.00     0.004 A 
ATOM      9  C   UNL     1       6.170   0.591  -1.131  1.00  0.00     0.004 A 
ATOM     10  C   UNL     1       7.297  -1.494   0.189  1.00  0.00     0.000 A 
ATOM     11  C   UNL     1       6.789  -0.402  -1.864  1.00  0.00     0.000 A 
ATOM     12  C   UNL     1       7.357  -1.455  -1.181  1.00  0.00     0.000 A 
ENDBRANCH   6   7
ENDBRANCH   1   6
TORSDOF 4
ENDMDL
MODEL 5
REMARK VINA RESULT:      -6.6      2.372      2.993
REMARK SMILES O=C(O)CCc1ccccc1
REMARK SMILES IDX 4 1 2 2 1 3 3 4 5 6 6 7 7 8 11 9 8 10 10 11 9 12
REMARK H PARENT 3 5
REMARK Flexibility Score: inf
ROOT
ATOM      1  C   UNL     1       8.407  -1.071   0.441  1.00  0.00     0.127 C 
ENDROOT
BRANCH   1   2
ATOM      2  C   UNL     1       7.993  -2.423   0.884  1.00  0.00     0.303 C 
ATOM      3  O   UNL     1       8.731  -3.423   0.701  1.00  0.00    -0.252 OA
BRANCH   2   4
ATOM      4  O   UNL     1       6.776  -2.621   1.516  1.00  0.00    -0.481 OA
ATOM      5  H   UNL     1       6.471  -3.575   1.728  1.00  0.00     0.296 HD
ENDBRANCH   2   4
ENDBRANCH   1   2
BRANCH   1   6
ATOM      6  C   UNL     1       7.506  -0.646  -0.678  1.00  0.00     0.047 C 
BRANCH   6   7
ATOM      7  C   UNL     1       6.706   0.541  -0.379  1.00  0.00    -0.047 A 
ATOM      8  C   UNL     1       5.811   1.036  -1.299  1.00  0.00     0.004 A 
ATOM      9  C   UNL     1       6.854   1.160   0.841  1.00  0.00     0.004 A 
ATOM     10  C   UNL     1       5.080   2.172  -0.945  1.00  0.00     0.000 A 
ATOM     11  C   UNL     1       6.130   2.283   1.189  1.00  0.00     0.000 A 
ATOM     12  C   UNL     1       5.232   2.787   0.272  1.00  0.00     0.000 A 
ENDBRANCH   6   7
ENDBRANCH   1   6
TORSDOF 4
ENDMDL
