@<TRIPOS>MOLECULE
/home/cewinharhar/GITHUB/reincatalyze/data/processed/docking_pred/2023_Apr_20-15:07/4d620996829bdf69d2437cdb6940cc233521eaf3_ligand_2.pdbqt
 12 12 0 0 0
SMALL
GASTEIGER

@<TRIPOS>ATOM
      1  C          8.4070   -1.0710    0.4410 C.3     1  UNL1        0.1270
      2  C          7.9930   -2.4230    0.8840 C.2     1  UNL1        0.3030
      3  O          8.7310   -3.4230    0.7010 O.2     1  UNL1       -0.2520
      4  O          6.7760   -2.6210    1.5160 O.3     1  UNL1       -0.4810
      5  H          6.4710   -3.5750    1.7280 H       1  UNL1        0.2960
      6  C          7.5060   -0.6460   -0.6780 C.3     1  UNL1        0.0470
      7  C          6.7060    0.5410   -0.3790 C.2     1  UNL1       -0.0470
      8  C          5.8110    1.0360   -1.2990 C.2     1  UNL1        0.0040
      9  C          6.8540    1.1600    0.8410 C.2     1  UNL1        0.0040
     10  C          5.0800    2.1720   -0.9450 C.2     1  UNL1        0.0000
     11  C          6.1300    2.2830    1.1890 C.2     1  UNL1        0.0000
     12  C          5.2320    2.7870    0.2720 C.2     1  UNL1        0.0000
@<TRIPOS>BOND
     1     8    10    1
     2     8     7    2
     3    10    12    2
     4     6     7    1
     5     6     1    1
     6     7     9    1
     7    12    11    1
     8     1     2    1
     9     3     2    2
    10     9    11    2
    11     2     4    1
    12     4     5    1
