@<TRIPOS>MOLECULE
/home/cewinharhar/GITHUB/reincatalyze/data/processed/docking_pred/2023_Apr_20-15:07/4d620996829bdf69d2437cdb6940cc233521eaf3_ligand_2.pdbqt
 12 12 0 0 0
SMALL
GASTEIGER

@<TRIPOS>ATOM
      1  C          8.3680   -0.5500   -2.2670 C.3     1  UNL1        0.1270
      2  C          8.4370   -1.8740   -2.9290 C.2     1  UNL1        0.3030
      3  O          9.5310   -2.4760   -3.0670 O.2     1  UNL1       -0.2520
      4  O          7.2930   -2.4850   -3.4170 O.3     1  UNL1       -0.4810
      5  H          6.4330   -1.9370   -3.5090 H       1  UNL1        0.2960
      6  C          6.9250   -0.1850   -2.0960 C.3     1  UNL1        0.0470
      7  C          6.5130   -0.0270   -0.7020 C.2     1  UNL1       -0.0470
      8  C          5.9440    1.1470   -0.2650 C.2     1  UNL1        0.0040
      9  C          6.6980   -1.0700    0.1760 C.2     1  UNL1        0.0040
     10  C          5.5740    1.2280    1.0790 C.2     1  UNL1        0.0000
     11  C          6.3320   -0.9890    1.5040 C.2     1  UNL1        0.0000
     12  C          5.7620    0.1840    1.9500 C.2     1  UNL1        0.0000
@<TRIPOS>BOND
     1     5     4    1
     2     4     2    1
     3     3     2    2
     4     2     1    1
     5     1     6    1
     6     6     7    1
     7     7     8    2
     8     7     9    1
     9     8    10    1
    10     9    11    2
    11    10    12    2
    12    11    12    1
