@<TRIPOS>MOLECULE
/home/cewinharhar/GITHUB/reincatalyze/data/processed/docking_pred/2023_Apr_20-15:07/4d620996829bdf69d2437cdb6940cc233521eaf3_ligand_2.pdbqt
 12 12 0 0 0
SMALL
GASTEIGER

@<TRIPOS>ATOM
      1  C          8.4490   -0.6800   -2.0840 C.3     1  UNL1        0.1270
      2  C          8.4810   -1.9290   -2.8800 C.2     1  UNL1        0.3030
      3  O          9.5620   -2.5250   -3.1140 O.2     1  UNL1       -0.2520
      4  O          7.3140   -2.4760   -3.3900 O.3     1  UNL1       -0.4810
      5  H          6.7930   -1.9640   -4.1070 H       1  UNL1        0.2960
      6  C          7.0380   -0.1780   -2.0520 C.3     1  UNL1        0.0470
      7  C          6.5220    0.0580   -0.7040 C.2     1  UNL1       -0.0470
      8  C          6.6840   -0.8830    0.2860 C.2     1  UNL1        0.0040
      9  C          5.8700    1.2390   -0.4320 C.2     1  UNL1        0.0040
     10  C          6.1660   -0.5900    1.5490 C.2     1  UNL1        0.0000
     11  C          5.3590    1.5270    0.8180 C.2     1  UNL1        0.0000
     12  C          5.5160    0.5890    1.8150 C.2     1  UNL1        0.0000
@<TRIPOS>BOND
     1     5     4    1
     2     4     2    1
     3     3     2    2
     4     2     1    1
     5     1     6    1
     6     6     7    1
     7     7     9    2
     8     7     8    1
     9     9    11    1
    10     8    10    2
    11    11    12    2
    12    10    12    1
