@<TRIPOS>MOLECULE
/home/cewinharhar/GITHUB/reincatalyze/data/processed/docking_pred/2023_Apr_20-15:07/4d620996829bdf69d2437cdb6940cc233521eaf3_ligand_2.pdbqt
 12 12 0 0 0
SMALL
GASTEIGER

@<TRIPOS>ATOM
      1  C          5.3920    2.9340    0.1940 C.3     1  UNL1        0.1270
      2  C          6.2480    3.9170    0.8980 C.2     1  UNL1        0.3030
      3  O          6.9110    4.7750    0.2640 O.2     1  UNL1       -0.2520
      4  O          6.3410    3.9160    2.2810 O.3     1  UNL1       -0.4810
      5  H          5.8270    3.2110    2.8170 H       1  UNL1        0.2960
      6  C          5.4340    1.6430    0.9540 C.3     1  UNL1        0.0470
      7  C          6.1070    0.5570    0.2430 C.2     1  UNL1       -0.0470
      8  C          6.6720   -0.4910    0.9330 C.2     1  UNL1        0.0040
      9  C          6.1700    0.5910   -1.1310 C.2     1  UNL1        0.0040
     10  C          7.2970   -1.4940    0.1890 C.2     1  UNL1        0.0000
     11  C          6.7890   -0.4020   -1.8640 C.2     1  UNL1        0.0000
     12  C          7.3570   -1.4550   -1.1810 C.2     1  UNL1        0.0000
@<TRIPOS>BOND
     1    11    12    2
     2    11     9    1
     3    12    10    1
     4     9     7    2
     5    10     8    2
     6     1     2    1
     7     1     6    1
     8     7     8    1
     9     7     6    1
    10     3     2    2
    11     2     4    1
    12     4     5    1
