@<TRIPOS>MOLECULE
/home/cewinharhar/GITHUB/reincatalyze/data/processed/docking_pred/2023_Apr_20-15:07/4dfe2a4ebf2cd2c58b23ebebd9c83ff91bb12173_ligand_2.pdbqt
 12 12 0 0 0
SMALL
GASTEIGER

@<TRIPOS>ATOM
      1  C          8.4580   -0.6340   -2.1000 C.3     1  UNL1        0.1270
      2  C          8.4020   -1.8950   -2.8780 C.2     1  UNL1        0.3030
      3  O          7.3040   -2.4080   -3.2070 O.2     1  UNL1       -0.2520
      4  O          9.5640   -2.5430   -3.2640 O.3     1  UNL1       -0.4810
      5  H          9.5570   -3.1250   -4.1060 H       1  UNL1        0.2960
      6  C          7.0890   -0.0250   -2.0910 C.3     1  UNL1        0.0470
      7  C          6.5030    0.1010   -0.7580 C.2     1  UNL1       -0.0470
      8  C          6.6430   -0.9050    0.1700 C.2     1  UNL1        0.0040
      9  C          5.8080    1.2440   -0.4360 C.2     1  UNL1        0.0040
     10  C          6.0590   -0.7150    1.4240 C.2     1  UNL1        0.0000
     11  C          5.2300    1.4290    0.8050 C.2     1  UNL1        0.0000
     12  C          5.3650    0.4260    1.7400 C.2     1  UNL1        0.0000
@<TRIPOS>BOND
     1     5     4    1
     2     4     2    1
     3     3     2    2
     4     2     1    1
     5     1     6    1
     6     6     7    1
     7     7     9    2
     8     7     8    1
     9     9    11    1
    10     8    10    2
    11    11    12    2
    12    10    12    1
