@<TRIPOS>MOLECULE
/home/cewinharhar/GITHUB/reincatalyze/data/processed/docking_pred/2023_Apr_20-15:07/4dfe2a4ebf2cd2c58b23ebebd9c83ff91bb12173_ligand_2.pdbqt
 12 12 0 0 0
SMALL
GASTEIGER

@<TRIPOS>ATOM
      1  C          8.1820   -0.8790   -1.9210 C.3     1  UNL1        0.1270
      2  C          8.3620   -2.0030   -2.8690 C.2     1  UNL1        0.3030
      3  O          9.4990   -2.4850   -3.0990 O.2     1  UNL1       -0.2520
      4  O          7.2770   -2.5560   -3.5300 O.3     1  UNL1       -0.4810
      5  H          7.4200   -3.3700   -4.1340 H       1  UNL1        0.2960
      6  C          7.3740   -1.3680   -0.7580 C.3     1  UNL1        0.0470
      7  C          6.5530   -0.3360   -0.1280 C.2     1  UNL1       -0.0470
      8  C          6.1190   -0.4780    1.1700 C.2     1  UNL1        0.0040
      9  C          6.2170    0.7870   -0.8480 C.2     1  UNL1        0.0040
     10  C          5.3390    0.5480    1.7080 C.2     1  UNL1        0.0000
     11  C          5.4460    1.8010   -0.3140 C.2     1  UNL1        0.0000
     12  C          5.0060    1.6660    0.9850 C.2     1  UNL1        0.0000
@<TRIPOS>BOND
     1     5     4    1
     2     4     2    1
     3     3     2    2
     4     2     1    1
     5     1     6    1
     6     9    11    1
     7     9     7    2
     8     6     7    1
     9    11    12    2
    10     7     8    1
    11    12    10    1
    12     8    10    2
