@<TRIPOS>MOLECULE
/home/cewinharhar/GITHUB/reincatalyze/data/processed/docking_pred/2023_Apr_20-15:07/4dfe2a4ebf2cd2c58b23ebebd9c83ff91bb12173_ligand_2.pdbqt
 12 12 0 0 0
SMALL
GASTEIGER

@<TRIPOS>ATOM
      1  C          8.1570   -1.5920    1.1700 C.3     1  UNL1        0.1270
      2  C          8.4790   -2.7820    0.3480 C.2     1  UNL1        0.3030
      3  O          9.1460   -3.7370    0.8180 O.2     1  UNL1       -0.2520
      4  O          8.0520   -2.8740   -0.9670 O.3     1  UNL1       -0.4810
      5  H          8.5380   -2.3360   -1.6900 H       1  UNL1        0.2960
      6  C          6.6670   -1.4770    1.2670 C.3     1  UNL1        0.0470
      7  C          6.1350   -0.2050    0.7790 C.2     1  UNL1       -0.0470
      8  C          5.3820    0.6040    1.5980 C.2     1  UNL1        0.0040
      9  C          6.3980    0.1800   -0.5150 C.2     1  UNL1        0.0040
     10  C          4.9080    1.8040    1.0660 C.2     1  UNL1        0.0000
     11  C          5.9280    1.3670   -1.0410 C.2     1  UNL1        0.0000
     12  C          5.1730    2.1830   -0.2270 C.2     1  UNL1        0.0000
@<TRIPOS>BOND
     1     5     4    1
     2    11     9    1
     3    11    12    2
     4     4     2    1
     5     9     7    2
     6    12    10    1
     7     2     3    2
     8     2     1    1
     9     7     6    1
    10     7     8    1
    11    10     8    2
    12     1     6    1
