@<TRIPOS>MOLECULE
/home/cewinharhar/GITHUB/reincatalyze/data/processed/docking_pred/2023_Apr_20-15:07/4dfe2a4ebf2cd2c58b23ebebd9c83ff91bb12173_ligand_2.pdbqt
 12 12 0 0 0
SMALL
GASTEIGER

@<TRIPOS>ATOM
      1  C          8.4350   -0.6030   -2.1580 C.3     1  UNL1        0.1270
      2  C          8.4740   -1.8750   -2.9170 C.2     1  UNL1        0.3030
      3  O          9.5560   -2.4820   -3.1150 O.2     1  UNL1       -0.2520
      4  O          7.3130   -2.4310   -3.4300 O.3     1  UNL1       -0.4810
      5  H          7.1160   -3.4210   -3.2630 H       1  UNL1        0.2960
      6  C          7.0200   -0.1120   -2.1330 C.3     1  UNL1        0.0470
      7  C          6.4760    0.0660   -0.7880 C.2     1  UNL1       -0.0470
      8  C          5.8360    1.2320   -0.4370 C.2     1  UNL1        0.0040
      9  C          6.6090   -0.9510    0.1300 C.2     1  UNL1        0.0040
     10  C          5.3400    1.3320    0.8650 C.2     1  UNL1        0.0000
     11  C          6.1190   -0.8490    1.4170 C.2     1  UNL1        0.0000
     12  C          5.4770    0.3150    1.7770 C.2     1  UNL1        0.0000
@<TRIPOS>BOND
     1     4     5    1
     2     4     2    1
     3     3     2    2
     4     2     1    1
     5     1     6    1
     6     6     7    1
     7     7     8    2
     8     7     9    1
     9     8    10    1
    10     9    11    2
    11    10    12    2
    12    11    12    1
