@<TRIPOS>MOLECULE
/home/cewinharhar/GITHUB/reincatalyze/data/processed/docking_pred/2023_Apr_20-15:07/4e2e003c692afcef440410ba16f5bc8e831af6c9_ligand_2.pdbqt
 12 12 0 0 0
SMALL
GASTEIGER

@<TRIPOS>ATOM
      1  C          8.4780   -0.6570   -2.0550 C.3     1  UNL1        0.1270
      2  C          8.4050   -1.8980   -2.8620 C.2     1  UNL1        0.3030
      3  O          7.3000   -2.3910   -3.1990 O.2     1  UNL1       -0.2520
      4  O          9.5580   -2.5500   -3.2670 O.3     1  UNL1       -0.4810
      5  H          9.8530   -3.3980   -2.7760 H       1  UNL1        0.2960
      6  C          7.1260   -0.0110   -2.0620 C.3     1  UNL1        0.0470
      7  C          6.5220    0.1180   -0.7360 C.2     1  UNL1       -0.0470
      8  C          6.6380   -0.8910    0.1910 C.2     1  UNL1        0.0040
      9  C          5.8350    1.2670   -0.4210 C.2     1  UNL1        0.0040
     10  C          6.0380   -0.6990    1.4370 C.2     1  UNL1        0.0000
     11  C          5.2410    1.4560    0.8110 C.2     1  UNL1        0.0000
     12  C          5.3520    0.4490    1.7460 C.2     1  UNL1        0.0000
@<TRIPOS>BOND
     1     4     2    1
     2     4     5    1
     3     3     2    2
     4     2     1    1
     5     6     1    1
     6     6     7    1
     7     7     9    2
     8     7     8    1
     9     9    11    1
    10     8    10    2
    11    11    12    2
    12    10    12    1
