@<TRIPOS>MOLECULE
/home/cewinharhar/GITHUB/reincatalyze/data/processed/docking_pred/2023_Apr_20-15:07/4e2e003c692afcef440410ba16f5bc8e831af6c9_ligand_2.pdbqt
 12 12 0 0 0
SMALL
GASTEIGER

@<TRIPOS>ATOM
      1  C          8.2680    0.2460   -2.2190 C.3     1  UNL1        0.1270
      2  C          9.3810    0.3490   -1.2460 C.2     1  UNL1        0.3030
      3  O          9.4450   -0.4090   -0.2470 O.2     1  UNL1       -0.2520
      4  O         10.3850    1.2900   -1.4130 O.3     1  UNL1       -0.4810
      5  H         11.2320    1.2250   -0.8410 H       1  UNL1        0.2960
      6  C          7.1370   -0.4870   -1.5640 C.3     1  UNL1        0.0470
      7  C          6.3460    0.3350   -0.6490 C.2     1  UNL1       -0.0470
      8  C          5.8150    1.5350   -1.0630 C.2     1  UNL1        0.0040
      9  C          6.1350   -0.1050    0.6370 C.2     1  UNL1        0.0040
     10  C          5.0690    2.2670   -0.1360 C.2     1  UNL1        0.0000
     11  C          5.3980    0.6200    1.5520 C.2     1  UNL1        0.0000
     12  C          4.8620    1.8230    1.1460 C.2     1  UNL1        0.0000
@<TRIPOS>BOND
     1     1     6    1
     2     1     2    1
     3     6     7    1
     4     4     2    1
     5     4     5    1
     6     2     3    2
     7     8     7    2
     8     8    10    1
     9     7     9    1
    10    10    12    2
    11     9    11    2
    12    12    11    1
