@<TRIPOS>MOLECULE
/home/cewinharhar/GITHUB/reincatalyze/data/processed/docking_pred/2023_Apr_20-15:07/4e2e003c692afcef440410ba16f5bc8e831af6c9_ligand_2.pdbqt
 12 12 0 0 0
SMALL
GASTEIGER

@<TRIPOS>ATOM
      1  C          5.6860    3.0610   -0.0400 C.3     1  UNL1        0.1270
      2  C          6.4160    3.9840    0.8610 C.2     1  UNL1        0.3030
      3  O          7.2860    4.7740    0.4170 O.2     1  UNL1       -0.2520
      4  O          6.1580    3.9990    2.2220 O.3     1  UNL1       -0.4810
      5  H          6.9360    4.1140    2.8780 H       1  UNL1        0.2960
      6  C          4.9980    2.0290    0.8000 C.3     1  UNL1        0.0470
      7  C          5.7100    0.7540    0.8780 C.2     1  UNL1       -0.0470
      8  C          5.7910    0.0650    2.0650 C.2     1  UNL1        0.0040
      9  C          6.3010    0.2460   -0.2560 C.2     1  UNL1        0.0040
     10  C          6.4870   -1.1460    2.0660 C.2     1  UNL1        0.0000
     11  C          6.9880   -0.9520   -0.2530 C.2     1  UNL1        0.0000
     12  C          7.0750   -1.6490    0.9320 C.2     1  UNL1        0.0000
@<TRIPOS>BOND
     1     9    11    1
     2     9     7    2
     3    11    12    2
     4     1     6    1
     5     1     2    1
     6     3     2    2
     7     6     7    1
     8     2     4    1
     9     7     8    1
    10    12    10    1
    11     8    10    2
    12     4     5    1
