MODEL 1
REMARK VINA RESULT:      -7.3      0.000      0.000
REMARK SMILES O=C(O)CCc1ccccc1
REMARK SMILES IDX 4 1 2 2 1 3 3 4 5 6 6 7 7 8 11 9 8 10 10 11 9 12
REMARK H PARENT 3 5
REMARK Flexibility Score: inf
ROOT
ATOM      1  C   UNL     1       8.416  -0.595  -2.169  1.00  0.00     0.127 C 
ENDROOT
BRANCH   1   2
ATOM      2  C   UNL     1       8.468  -1.873  -2.917  1.00  0.00     0.303 C 
ATOM      3  O   UNL     1       9.556  -2.474  -3.103  1.00  0.00    -0.252 OA
BRANCH   2   4
ATOM      4  O   UNL     1       7.315  -2.442  -3.433  1.00  0.00    -0.481 OA
ATOM      5  H   UNL     1       6.997  -2.169  -4.367  1.00  0.00     0.296 HD
ENDBRANCH   2   4
ENDBRANCH   1   2
BRANCH   1   6
ATOM      6  C   UNL     1       6.991  -0.133  -2.126  1.00  0.00     0.047 C 
BRANCH   6   7
ATOM      7  C   UNL     1       6.465   0.049  -0.774  1.00  0.00    -0.047 A 
ATOM      8  C   UNL     1       5.842   1.221  -0.414  1.00  0.00     0.004 A 
ATOM      9  C   UNL     1       6.598  -0.970   0.141  1.00  0.00     0.004 A 
ATOM     10  C   UNL     1       5.363   1.326   0.894  1.00  0.00     0.000 A 
ATOM     11  C   UNL     1       6.125  -0.865   1.433  1.00  0.00     0.000 A 
ATOM     12  C   UNL     1       5.500   0.307   1.803  1.00  0.00     0.000 A 
ENDBRANCH   6   7
ENDBRANCH   1   6
TORSDOF 4
ENDMDL
MODEL 2
REMARK VINA RESULT:      -7.3      0.164      1.734
REMARK SMILES O=C(O)CCc1ccccc1
REMARK SMILES IDX 4 1 2 2 1 3 3 4 5 6 6 7 7 8 11 9 8 10 10 11 9 12
REMARK H PARENT 3 5
REMARK Flexibility Score: inf
ROOT
ATOM      1  C   UNL     1       8.478  -0.657  -2.055  1.00  0.00     0.127 C 
ENDROOT
BRANCH   1   2
ATOM      2  C   UNL     1       8.405  -1.898  -2.862  1.00  0.00     0.303 C 
ATOM      3  O   UNL     1       7.300  -2.391  -3.199  1.00  0.00    -0.252 OA
BRANCH   2   4
ATOM      4  O   UNL     1       9.558  -2.550  -3.267  1.00  0.00    -0.481 OA
ATOM      5  H   UNL     1       9.853  -3.398  -2.776  1.00  0.00     0.296 HD
ENDBRANCH   2   4
ENDBRANCH   1   2
BRANCH   1   6
ATOM      6  C   UNL     1       7.126  -0.011  -2.062  1.00  0.00     0.047 C 
BRANCH   6   7
ATOM      7  C   UNL     1       6.522   0.118  -0.736  1.00  0.00    -0.047 A 
ATOM      8  C   UNL     1       6.638  -0.891   0.191  1.00  0.00     0.004 A 
ATOM      9  C   UNL     1       5.835   1.267  -0.421  1.00  0.00     0.004 A 
ATOM     10  C   UNL     1       6.038  -0.699   1.437  1.00  0.00     0.000 A 
ATOM     11  C   UNL     1       5.241   1.456   0.811  1.00  0.00     0.000 A 
ATOM     12  C   UNL     1       5.352   0.449   1.746  1.00  0.00     0.000 A 
ENDBRANCH   6   7
ENDBRANCH   1   6
TORSDOF 4
ENDMDL
MODEL 3
REMARK VINA RESULT:      -6.8      3.384      5.087
REMARK SMILES O=C(O)CCc1ccccc1
REMARK SMILES IDX 4 1 2 2 1 3 3 4 5 6 6 7 7 8 11 9 8 10 10 11 9 12
REMARK H PARENT 3 5
REMARK Flexibility Score: inf
ROOT
ATOM      1  C   UNL     1       5.011   1.800   0.723  1.00  0.00     0.127 C 
ENDROOT
BRANCH   1   2
ATOM      2  C   UNL     1       4.482   1.109   1.923  1.00  0.00     0.303 C 
ATOM      3  O   UNL     1       5.131   0.193   2.484  1.00  0.00    -0.252 OA
BRANCH   2   4
ATOM      4  O   UNL     1       3.252   1.458   2.458  1.00  0.00    -0.481 OA
ATOM      5  H   UNL     1       2.914   0.972   3.293  1.00  0.00     0.296 HD
ENDBRANCH   2   4
ENDBRANCH   1   2
BRANCH   1   6
ATOM      6  C   UNL     1       6.507   1.751   0.773  1.00  0.00     0.047 C 
BRANCH   6   7
ATOM      7  C   UNL     1       7.114   1.005  -0.329  1.00  0.00    -0.047 A 
ATOM      8  C   UNL     1       6.383   0.084  -1.042  1.00  0.00     0.004 A 
ATOM      9  C   UNL     1       8.432   1.235  -0.649  1.00  0.00     0.004 A 
ATOM     10  C   UNL     1       7.027  -0.590  -2.082  1.00  0.00     0.000 A 
ATOM     11  C   UNL     1       9.068   0.567  -1.677  1.00  0.00     0.000 A 
ATOM     12  C   UNL     1       8.342  -0.358  -2.396  1.00  0.00     0.000 A 
ENDBRANCH   6   7
ENDBRANCH   1   6
TORSDOF 4
ENDMDL
MODEL 4
REMARK VINA RESULT:      -6.6      1.937      2.324
REMARK SMILES O=C(O)CCc1ccccc1
REMARK SMILES IDX 4 1 2 2 1 3 3 4 5 6 6 7 7 8 11 9 8 10 10 11 9 12
REMARK H PARENT 3 5
REMARK Flexibility Score: inf
ROOT
ATOM      1  C   UNL     1       8.268   0.246  -2.219  1.00  0.00     0.127 C 
ENDROOT
BRANCH   1   2
ATOM      2  C   UNL     1       9.381   0.349  -1.246  1.00  0.00     0.303 C 
ATOM      3  O   UNL     1       9.445  -0.409  -0.247  1.00  0.00    -0.252 OA
BRANCH   2   4
ATOM      4  O   UNL     1      10.385   1.290  -1.413  1.00  0.00    -0.481 OA
ATOM      5  H   UNL     1      11.232   1.225  -0.841  1.00  0.00     0.296 HD
ENDBRANCH   2   4
ENDBRANCH   1   2
BRANCH   1   6
ATOM      6  C   UNL     1       7.137  -0.487  -1.564  1.00  0.00     0.047 C 
BRANCH   6   7
ATOM      7  C   UNL     1       6.346   0.335  -0.649  1.00  0.00    -0.047 A 
ATOM      8  C   UNL     1       5.815   1.535  -1.063  1.00  0.00     0.004 A 
ATOM      9  C   UNL     1       6.135  -0.105   0.637  1.00  0.00     0.004 A 
ATOM     10  C   UNL     1       5.069   2.267  -0.136  1.00  0.00     0.000 A 
ATOM     11  C   UNL     1       5.398   0.620   1.552  1.00  0.00     0.000 A 
ATOM     12  C   UNL     1       4.862   1.823   1.146  1.00  0.00     0.000 A 
ENDBRANCH   6   7
ENDBRANCH   1   6
TORSDOF 4
ENDMDL
MODEL 5
REMARK VINA RESULT:      -6.6      3.816      4.979
REMARK SMILES O=C(O)CCc1ccccc1
REMARK SMILES IDX 4 1 2 2 1 3 3 4 5 6 6 7 7 8 11 9 8 10 10 11 9 12
REMARK H PARENT 3 5
REMARK Flexibility Score: inf
ROOT
ATOM      1  C   UNL     1       5.686   3.061  -0.040  1.00  0.00     0.127 C 
ENDROOT
BRANCH   1   2
ATOM      2  C   UNL     1       6.416   3.984   0.861  1.00  0.00     0.303 C 
ATOM      3  O   UNL     1       7.286   4.774   0.417  1.00  0.00    -0.252 OA
BRANCH   2   4
ATOM      4  O   UNL     1       6.158   3.999   2.222  1.00  0.00    -0.481 OA
ATOM      5  H   UNL     1       6.936   4.114   2.878  1.00  0.00     0.296 HD
ENDBRANCH   2   4
ENDBRANCH   1   2
BRANCH   1   6
ATOM      6  C   UNL     1       4.998   2.029   0.800  1.00  0.00     0.047 C 
BRANCH   6   7
ATOM      7  C   UNL     1       5.710   0.754   0.878  1.00  0.00    -0.047 A 
ATOM      8  C   UNL     1       5.791   0.065   2.065  1.00  0.00     0.004 A 
ATOM      9  C   UNL     1       6.301   0.246  -0.256  1.00  0.00     0.004 A 
ATOM     10  C   UNL     1       6.487  -1.146   2.066  1.00  0.00     0.000 A 
ATOM     11  C   UNL     1       6.988  -0.952  -0.253  1.00  0.00     0.000 A 
ATOM     12  C   UNL     1       7.075  -1.649   0.932  1.00  0.00     0.000 A 
ENDBRANCH   6   7
ENDBRANCH   1   6
TORSDOF 4
ENDMDL
