@<TRIPOS>MOLECULE
/home/cewinharhar/GITHUB/reincatalyze/data/processed/docking_pred/2023_Apr_20-15:07/4e2e003c692afcef440410ba16f5bc8e831af6c9_ligand_2.pdbqt
 12 12 0 0 0
SMALL
GASTEIGER

@<TRIPOS>ATOM
      1  C          5.0110    1.8000    0.7230 C.3     1  UNL1        0.1270
      2  C          4.4820    1.1090    1.9230 C.2     1  UNL1        0.3030
      3  O          5.1310    0.1930    2.4840 O.2     1  UNL1       -0.2520
      4  O          3.2520    1.4580    2.4580 O.3     1  UNL1       -0.4810
      5  H          2.9140    0.9720    3.2930 H       1  UNL1        0.2960
      6  C          6.5070    1.7510    0.7730 C.3     1  UNL1        0.0470
      7  C          7.1140    1.0050   -0.3290 C.2     1  UNL1       -0.0470
      8  C          6.3830    0.0840   -1.0420 C.2     1  UNL1        0.0040
      9  C          8.4320    1.2350   -0.6490 C.2     1  UNL1        0.0040
     10  C          7.0270   -0.5900   -2.0820 C.2     1  UNL1        0.0000
     11  C          9.0680    0.5670   -1.6770 C.2     1  UNL1        0.0000
     12  C          8.3420   -0.3580   -2.3960 C.2     1  UNL1        0.0000
@<TRIPOS>BOND
     1    12    10    2
     2    12    11    1
     3    10     8    1
     4    11     9    2
     5     8     7    2
     6     9     7    1
     7     7     6    1
     8     1     6    1
     9     1     2    1
    10     2     4    1
    11     2     3    2
    12     4     5    1
