@<TRIPOS>MOLECULE
/home/cewinharhar/GITHUB/reincatalyze/data/processed/docking_pred/2023_Apr_20-15:07/4e2e003c692afcef440410ba16f5bc8e831af6c9_ligand_2.pdbqt
 12 12 0 0 0
SMALL
GASTEIGER

@<TRIPOS>ATOM
      1  C          8.4160   -0.5950   -2.1690 C.3     1  UNL1        0.1270
      2  C          8.4680   -1.8730   -2.9170 C.2     1  UNL1        0.3030
      3  O          9.5560   -2.4740   -3.1030 O.2     1  UNL1       -0.2520
      4  O          7.3150   -2.4420   -3.4330 O.3     1  UNL1       -0.4810
      5  H          6.9970   -2.1690   -4.3670 H       1  UNL1        0.2960
      6  C          6.9910   -0.1330   -2.1260 C.3     1  UNL1        0.0470
      7  C          6.4650    0.0490   -0.7740 C.2     1  UNL1       -0.0470
      8  C          5.8420    1.2210   -0.4140 C.2     1  UNL1        0.0040
      9  C          6.5980   -0.9700    0.1410 C.2     1  UNL1        0.0040
     10  C          5.3630    1.3260    0.8940 C.2     1  UNL1        0.0000
     11  C          6.1250   -0.8650    1.4330 C.2     1  UNL1        0.0000
     12  C          5.5000    0.3070    1.8030 C.2     1  UNL1        0.0000
@<TRIPOS>BOND
     1     5     4    1
     2     4     2    1
     3     3     2    2
     4     2     1    1
     5     1     6    1
     6     6     7    1
     7     7     8    2
     8     7     9    1
     9     8    10    1
    10     9    11    2
    11    10    12    2
    12    11    12    1
