@<TRIPOS>MOLECULE
/home/cewinharhar/GITHUB/reincatalyze/data/processed/docking_pred/2023_Apr_20-15:07/4f8338f1f65f27d68c3e57a6b5041c9c59ec4c55_ligand_2.pdbqt
 12 12 0 0 0
SMALL
GASTEIGER

@<TRIPOS>ATOM
      1  C          8.1600    0.2600   -2.0940 C.3     1  UNL1        0.1270
      2  C          9.3430    0.3600   -1.2070 C.2     1  UNL1        0.3030
      3  O          9.4740   -0.3910   -0.2090 O.2     1  UNL1       -0.2520
      4  O         10.3410    1.2890   -1.4560 O.3     1  UNL1       -0.4810
      5  H         10.6370    1.4590   -2.4220 H       1  UNL1        0.2960
      6  C          7.1290   -0.5840   -1.4090 C.3     1  UNL1        0.0470
      7  C          6.3450    0.1330   -0.4050 C.2     1  UNL1       -0.0470
      8  C          5.8030    1.3660   -0.6850 C.2     1  UNL1        0.0040
      9  C          6.1500   -0.4410    0.8300 C.2     1  UNL1        0.0040
     10  C          5.0640    1.9930    0.3210 C.2     1  UNL1        0.0000
     11  C          5.4190    0.1810    1.8230 C.2     1  UNL1        0.0000
     12  C          4.8740    1.4160    1.5510 C.2     1  UNL1        0.0000
@<TRIPOS>BOND
     1     5     4    1
     2     1     6    1
     3     1     2    1
     4     4     2    1
     5     6     7    1
     6     2     3    2
     7     8     7    2
     8     8    10    1
     9     7     9    1
    10    10    12    2
    11     9    11    2
    12    12    11    1
