@<TRIPOS>MOLECULE
/home/cewinharhar/GITHUB/reincatalyze/data/processed/docking_pred/2023_Apr_20-15:07/4f8338f1f65f27d68c3e57a6b5041c9c59ec4c55_ligand_2.pdbqt
 12 12 0 0 0
SMALL
GASTEIGER

@<TRIPOS>ATOM
      1  C          8.4110   -0.5940   -2.1700 C.3     1  UNL1        0.1270
      2  C          8.3920   -1.8800   -2.9080 C.2     1  UNL1        0.3030
      3  O          7.3090   -2.4290   -3.2300 O.2     1  UNL1       -0.2520
      4  O          9.5720   -2.5130   -3.2620 O.3     1  UNL1       -0.4810
      5  H          9.6170   -3.0330   -4.1420 H       1  UNL1        0.2960
      6  C          7.0130   -0.0580   -2.1230 C.3     1  UNL1        0.0470
      7  C          6.4740    0.0790   -0.7710 C.2     1  UNL1       -0.0470
      8  C          6.5960   -0.9430    0.1410 C.2     1  UNL1        0.0040
      9  C          5.8400    1.2470   -0.4160 C.2     1  UNL1        0.0040
     10  C          6.0590   -0.7420    1.4150 C.2     1  UNL1        0.0000
     11  C          5.3090    1.4440    0.8430 C.2     1  UNL1        0.0000
     12  C          5.4270    0.4250    1.7630 C.2     1  UNL1        0.0000
@<TRIPOS>BOND
     1     5     4    1
     2     4     2    1
     3     3     2    2
     4     2     1    1
     5     1     6    1
     6     6     7    1
     7     7     9    2
     8     7     8    1
     9     9    11    1
    10     8    10    2
    11    11    12    2
    12    10    12    1
