@<TRIPOS>MOLECULE
/home/cewinharhar/GITHUB/reincatalyze/data/processed/docking_pred/2023_Apr_20-15:07/4f8338f1f65f27d68c3e57a6b5041c9c59ec4c55_ligand_2.pdbqt
 12 12 0 0 0
SMALL
GASTEIGER

@<TRIPOS>ATOM
      1  C          5.3190    2.8700    0.0890 C.3     1  UNL1        0.1270
      2  C          6.1750    3.7910    0.8740 C.2     1  UNL1        0.3030
      3  O          6.2470    3.7060    2.1250 O.2     1  UNL1       -0.2520
      4  O          6.9220    4.7750    0.2460 O.3     1  UNL1       -0.4810
      5  H          6.6660    5.7570    0.3760 H       1  UNL1        0.2960
      6  C          5.2760    1.5500    0.7970 C.3     1  UNL1        0.0470
      7  C          6.0500    0.4980    0.1400 C.2     1  UNL1       -0.0470
      8  C          6.4890   -0.5970    0.8470 C.2     1  UNL1        0.0040
      9  C          6.3350    0.6120   -1.2010 C.2     1  UNL1        0.0040
     10  C          7.2220   -1.5640    0.1550 C.2     1  UNL1        0.0000
     11  C          7.0600   -0.3450   -1.8840 C.2     1  UNL1        0.0000
     12  C          7.5040   -1.4450   -1.1830 C.2     1  UNL1        0.0000
@<TRIPOS>BOND
     1    11     9    1
     2    11    12    2
     3     9     7    2
     4    12    10    1
     5     1     6    1
     6     1     2    1
     7     7     6    1
     8     7     8    1
     9    10     8    2
    10     4     5    1
    11     4     2    1
    12     2     3    2
