@<TRIPOS>MOLECULE
/home/cewinharhar/GITHUB/reincatalyze/data/processed/docking_pred/2023_Apr_20-15:07/4f8338f1f65f27d68c3e57a6b5041c9c59ec4c55_ligand_2.pdbqt
 12 12 0 0 0
SMALL
GASTEIGER

@<TRIPOS>ATOM
      1  C          8.4110   -0.6240   -2.1140 C.3     1  UNL1        0.1270
      2  C          8.4490   -1.8910   -2.8820 C.2     1  UNL1        0.3030
      3  O          9.5280   -2.5060   -3.0690 O.2     1  UNL1       -0.2520
      4  O          7.2910   -2.4310   -3.4180 O.3     1  UNL1       -0.4810
      5  H          7.1280   -3.4390   -3.3440 H       1  UNL1        0.2960
      6  C          6.9960   -0.1330   -2.0850 C.3     1  UNL1        0.0470
      7  C          6.4540    0.0400   -0.7380 C.2     1  UNL1       -0.0470
      8  C          5.8350    1.2130   -0.3740 C.2     1  UNL1        0.0040
      9  C          6.5670   -0.9890    0.1690 C.2     1  UNL1        0.0040
     10  C          5.3400    1.3080    0.9280 C.2     1  UNL1        0.0000
     11  C          6.0780   -0.8930    1.4560 C.2     1  UNL1        0.0000
     12  C          5.4570    0.2800    1.8290 C.2     1  UNL1        0.0000
@<TRIPOS>BOND
     1     4     5    1
     2     4     2    1
     3     3     2    2
     4     2     1    1
     5     1     6    1
     6     6     7    1
     7     7     8    2
     8     7     9    1
     9     8    10    1
    10     9    11    2
    11    10    12    2
    12    11    12    1
