@<TRIPOS>MOLECULE
/home/cewinharhar/GITHUB/reincatalyze/data/processed/docking_pred/2023_Apr_20-15:07/4f8485ffa73320ccf1b94cd7b1ea99ef776c762b_ligand_2.pdbqt
 12 12 0 0 0
SMALL
GASTEIGER

@<TRIPOS>ATOM
      1  C          5.0290    1.8140    0.6840 C.3     1  UNL1        0.1270
      2  C          4.4950    1.1350    1.8880 C.2     1  UNL1        0.3030
      3  O          5.1400    0.2230    2.4620 O.2     1  UNL1       -0.2520
      4  O          3.2630    1.4890    2.4150 O.3     1  UNL1       -0.4810
      5  H          3.1810    1.6690    3.4190 H       1  UNL1        0.2960
      6  C          6.5250    1.7910    0.7560 C.3     1  UNL1        0.0470
      7  C          7.1620    1.0570   -0.3370 C.2     1  UNL1       -0.0470
      8  C          8.4910    1.2500   -0.6330 C.2     1  UNL1        0.0040
      9  C          6.4150    0.1640   -1.0700 C.2     1  UNL1        0.0040
     10  C          9.0330    0.5140   -1.6900 C.2     1  UNL1        0.0000
     11  C          6.9520   -0.5620   -2.1150 C.2     1  UNL1        0.0000
     12  C          8.2830   -0.3740   -2.4180 C.2     1  UNL1        0.0000
@<TRIPOS>BOND
     1    12    11    2
     2    12    10    1
     3    11     9    1
     4    10     8    2
     5     9     7    2
     6     8     7    1
     7     7     6    1
     8     1     6    1
     9     1     2    1
    10     2     4    1
    11     2     3    2
    12     4     5    1
