@<TRIPOS>MOLECULE
/home/cewinharhar/GITHUB/reincatalyze/data/processed/docking_pred/2023_Apr_20-15:07/4f8485ffa73320ccf1b94cd7b1ea99ef776c762b_ligand_2.pdbqt
 12 12 0 0 0
SMALL
GASTEIGER

@<TRIPOS>ATOM
      1  C          4.9920    1.8070    0.7310 C.3     1  UNL1        0.1270
      2  C          4.4850    1.1110    1.9370 C.2     1  UNL1        0.3030
      3  O          5.1540    0.2060    2.4960 O.2     1  UNL1       -0.2520
      4  O          3.2550    1.4400    2.4830 O.3     1  UNL1       -0.4810
      5  H          3.0320    2.4240    2.6580 H       1  UNL1        0.2960
      6  C          6.4890    1.7840    0.7690 C.3     1  UNL1        0.0470
      7  C          7.1010    1.0510   -0.3380 C.2     1  UNL1       -0.0470
      8  C          6.3570    0.1800   -1.1000 C.2     1  UNL1        0.0040
      9  C          8.4350    1.2410   -0.6150 C.2     1  UNL1        0.0040
     10  C          7.0060   -0.4870   -2.1420 C.2     1  UNL1        0.0000
     11  C          9.0750    0.5820   -1.6450 C.2     1  UNL1        0.0000
     12  C          8.3380   -0.2930   -2.4120 C.2     1  UNL1        0.0000
@<TRIPOS>BOND
     1    12    10    2
     2    12    11    1
     3    10     8    1
     4    11     9    2
     5     8     7    2
     6     9     7    1
     7     7     6    1
     8     1     6    1
     9     1     2    1
    10     2     4    1
    11     2     3    2
    12     4     5    1
