@<TRIPOS>MOLECULE
/home/cewinharhar/GITHUB/reincatalyze/data/processed/docking_pred/2023_Apr_20-15:07/4f8485ffa73320ccf1b94cd7b1ea99ef776c762b_ligand_2.pdbqt
 12 12 0 0 0
SMALL
GASTEIGER

@<TRIPOS>ATOM
      1  C          8.5700   -0.5180   -2.0410 C.3     1  UNL1        0.1270
      2  C          8.7540   -1.7970   -2.7660 C.2     1  UNL1        0.3030
      3  O          9.8890   -2.3220   -2.8830 O.2     1  UNL1       -0.2520
      4  O          7.6740   -2.4510   -3.3370 O.3     1  UNL1       -0.4810
      5  H          7.3770   -3.3540   -2.9570 H       1  UNL1        0.2960
      6  C          7.1200   -0.1460   -2.1030 C.3     1  UNL1        0.0470
      7  C          6.5060    0.0760   -0.7950 C.2     1  UNL1       -0.0470
      8  C          5.8640    1.2590   -0.5110 C.2     1  UNL1        0.0040
      9  C          6.5750   -0.9160    0.1560 C.2     1  UNL1        0.0040
     10  C          5.3000    1.4010    0.7590 C.2     1  UNL1        0.0000
     11  C          6.0170   -0.7740    1.4100 C.2     1  UNL1        0.0000
     12  C          5.3720    0.4080    1.7030 C.2     1  UNL1        0.0000
@<TRIPOS>BOND
     1     4     5    1
     2     4     2    1
     3     3     2    2
     4     2     1    1
     5     6     1    1
     6     6     7    1
     7     7     8    2
     8     7     9    1
     9     8    10    1
    10     9    11    2
    11    10    12    2
    12    11    12    1
