MODEL 1
REMARK VINA RESULT:      -6.6      0.000      0.000
REMARK SMILES O=C(O)CCc1ccccc1
REMARK SMILES IDX 4 1 2 2 1 3 3 4 5 6 6 7 7 8 11 9 8 10 10 11 9 12
REMARK H PARENT 3 5
REMARK Flexibility Score: inf
ROOT
ATOM      1  C   UNL     1       8.570  -0.518  -2.041  1.00  0.00     0.127 C 
ENDROOT
BRANCH   1   2
ATOM      2  C   UNL     1       8.754  -1.797  -2.766  1.00  0.00     0.303 C 
ATOM      3  O   UNL     1       9.889  -2.322  -2.883  1.00  0.00    -0.252 OA
BRANCH   2   4
ATOM      4  O   UNL     1       7.674  -2.451  -3.337  1.00  0.00    -0.481 OA
ATOM      5  H   UNL     1       7.377  -3.354  -2.957  1.00  0.00     0.296 HD
ENDBRANCH   2   4
ENDBRANCH   1   2
BRANCH   1   6
ATOM      6  C   UNL     1       7.120  -0.146  -2.103  1.00  0.00     0.047 C 
BRANCH   6   7
ATOM      7  C   UNL     1       6.506   0.076  -0.795  1.00  0.00    -0.047 A 
ATOM      8  C   UNL     1       5.864   1.259  -0.511  1.00  0.00     0.004 A 
ATOM      9  C   UNL     1       6.575  -0.916   0.156  1.00  0.00     0.004 A 
ATOM     10  C   UNL     1       5.300   1.401   0.759  1.00  0.00     0.000 A 
ATOM     11  C   UNL     1       6.017  -0.774   1.410  1.00  0.00     0.000 A 
ATOM     12  C   UNL     1       5.372   0.408   1.703  1.00  0.00     0.000 A 
ENDBRANCH   6   7
ENDBRANCH   1   6
TORSDOF 4
ENDMDL
MODEL 2
REMARK VINA RESULT:      -6.5      0.799      1.706
REMARK SMILES O=C(O)CCc1ccccc1
REMARK SMILES IDX 4 1 2 2 1 3 3 4 5 6 6 7 7 8 11 9 8 10 10 11 9 12
REMARK H PARENT 3 5
REMARK Flexibility Score: inf
ROOT
ATOM      1  C   UNL     1       7.596  -1.574  -1.944  1.00  0.00     0.127 C 
ENDROOT
BRANCH   1   2
ATOM      2  C   UNL     1       9.013  -1.635  -2.376  1.00  0.00     0.303 C 
ATOM      3  O   UNL     1       9.888  -0.909  -1.842  1.00  0.00    -0.252 OA
BRANCH   2   4
ATOM      4  O   UNL     1       9.410  -2.497  -3.385  1.00  0.00    -0.481 OA
ATOM      5  H   UNL     1      10.286  -3.017  -3.283  1.00  0.00     0.296 HD
ENDBRANCH   2   4
ENDBRANCH   1   2
BRANCH   1   6
ATOM      6  C   UNL     1       7.200  -0.133  -1.833  1.00  0.00     0.047 C 
BRANCH   6   7
ATOM      7  C   UNL     1       6.481   0.193  -0.602  1.00  0.00    -0.047 A 
ATOM      8  C   UNL     1       6.474  -0.681   0.460  1.00  0.00     0.004 A 
ATOM      9  C   UNL     1       5.808   1.389  -0.514  1.00  0.00     0.004 A 
ATOM     10  C   UNL     1       5.767  -0.304   1.605  1.00  0.00     0.000 A 
ATOM     11  C   UNL     1       5.110   1.760   0.618  1.00  0.00     0.000 A 
ATOM     12  C   UNL     1       5.097   0.890   1.686  1.00  0.00     0.000 A 
ENDBRANCH   6   7
ENDBRANCH   1   6
TORSDOF 4
ENDMDL
MODEL 3
REMARK VINA RESULT:      -6.4      3.410      5.108
REMARK SMILES O=C(O)CCc1ccccc1
REMARK SMILES IDX 4 1 2 2 1 3 3 4 5 6 6 7 7 8 11 9 8 10 10 11 9 12
REMARK H PARENT 3 5
REMARK Flexibility Score: inf
ROOT
ATOM      1  C   UNL     1       4.992   1.807   0.731  1.00  0.00     0.127 C 
ENDROOT
BRANCH   1   2
ATOM      2  C   UNL     1       4.485   1.111   1.937  1.00  0.00     0.303 C 
ATOM      3  O   UNL     1       5.154   0.206   2.496  1.00  0.00    -0.252 OA
BRANCH   2   4
ATOM      4  O   UNL     1       3.255   1.440   2.483  1.00  0.00    -0.481 OA
ATOM      5  H   UNL     1       3.032   2.424   2.658  1.00  0.00     0.296 HD
ENDBRANCH   2   4
ENDBRANCH   1   2
BRANCH   1   6
ATOM      6  C   UNL     1       6.489   1.784   0.769  1.00  0.00     0.047 C 
BRANCH   6   7
ATOM      7  C   UNL     1       7.101   1.051  -0.338  1.00  0.00    -0.047 A 
ATOM      8  C   UNL     1       6.357   0.180  -1.100  1.00  0.00     0.004 A 
ATOM      9  C   UNL     1       8.435   1.241  -0.615  1.00  0.00     0.004 A 
ATOM     10  C   UNL     1       7.006  -0.487  -2.142  1.00  0.00     0.000 A 
ATOM     11  C   UNL     1       9.075   0.582  -1.645  1.00  0.00     0.000 A 
ATOM     12  C   UNL     1       8.338  -0.293  -2.412  1.00  0.00     0.000 A 
ENDBRANCH   6   7
ENDBRANCH   1   6
TORSDOF 4
ENDMDL
MODEL 4
REMARK VINA RESULT:      -6.4      3.400      5.073
REMARK SMILES O=C(O)CCc1ccccc1
REMARK SMILES IDX 4 1 2 2 1 3 3 4 5 6 6 7 7 8 11 9 8 10 10 11 9 12
REMARK H PARENT 3 5
REMARK Flexibility Score: inf
ROOT
ATOM      1  C   UNL     1       5.029   1.814   0.684  1.00  0.00     0.127 C 
ENDROOT
BRANCH   1   2
ATOM      2  C   UNL     1       4.495   1.135   1.888  1.00  0.00     0.303 C 
ATOM      3  O   UNL     1       5.140   0.223   2.462  1.00  0.00    -0.252 OA
BRANCH   2   4
ATOM      4  O   UNL     1       3.263   1.489   2.415  1.00  0.00    -0.481 OA
ATOM      5  H   UNL     1       3.181   1.669   3.419  1.00  0.00     0.296 HD
ENDBRANCH   2   4
ENDBRANCH   1   2
BRANCH   1   6
ATOM      6  C   UNL     1       6.525   1.791   0.756  1.00  0.00     0.047 C 
BRANCH   6   7
ATOM      7  C   UNL     1       7.162   1.057  -0.337  1.00  0.00    -0.047 A 
ATOM      8  C   UNL     1       8.491   1.250  -0.633  1.00  0.00     0.004 A 
ATOM      9  C   UNL     1       6.415   0.164  -1.070  1.00  0.00     0.004 A 
ATOM     10  C   UNL     1       9.033   0.514  -1.690  1.00  0.00     0.000 A 
ATOM     11  C   UNL     1       6.952  -0.562  -2.115  1.00  0.00     0.000 A 
ATOM     12  C   UNL     1       8.283  -0.374  -2.418  1.00  0.00     0.000 A 
ENDBRANCH   6   7
ENDBRANCH   1   6
TORSDOF 4
ENDMDL
MODEL 5
REMARK VINA RESULT:      -6.1      3.852      5.290
REMARK SMILES O=C(O)CCc1ccccc1
REMARK SMILES IDX 4 1 2 2 1 3 3 4 5 6 6 7 7 8 11 9 8 10 10 11 9 12
REMARK H PARENT 3 5
REMARK Flexibility Score: inf
ROOT
ATOM      1  C   UNL     1       5.651   2.730   0.452  1.00  0.00     0.127 C 
ENDROOT
BRANCH   1   2
ATOM      2  C   UNL     1       6.316   3.933   1.006  1.00  0.00     0.303 C 
ATOM      3  O   UNL     1       6.888   4.764   0.257  1.00  0.00    -0.252 OA
BRANCH   2   4
ATOM      4  O   UNL     1       6.325   4.175   2.370  1.00  0.00    -0.481 OA
ATOM      5  H   UNL     1       5.885   3.500   3.001  1.00  0.00     0.296 HD
ENDBRANCH   2   4
ENDBRANCH   1   2
BRANCH   1   6
ATOM      6  C   UNL     1       6.461   1.528   0.831  1.00  0.00     0.047 C 
BRANCH   6   7
ATOM      7  C   UNL     1       7.133   0.884  -0.296  1.00  0.00    -0.047 A 
ATOM      8  C   UNL     1       8.419   1.232  -0.641  1.00  0.00     0.004 A 
ATOM      9  C   UNL     1       6.465  -0.081  -1.014  1.00  0.00     0.004 A 
ATOM     10  C   UNL     1       8.999   0.575  -1.728  1.00  0.00     0.000 A 
ATOM     11  C   UNL     1       7.040  -0.729  -2.089  1.00  0.00     0.000 A 
ATOM     12  C   UNL     1       8.328  -0.386  -2.441  1.00  0.00     0.000 A 
ENDBRANCH   6   7
ENDBRANCH   1   6
TORSDOF 4
ENDMDL
