@<TRIPOS>MOLECULE
/home/cewinharhar/GITHUB/reincatalyze/data/processed/docking_pred/2023_Apr_20-15:07/4f8485ffa73320ccf1b94cd7b1ea99ef776c762b_ligand_2.pdbqt
 12 12 0 0 0
SMALL
GASTEIGER

@<TRIPOS>ATOM
      1  C          7.5960   -1.5740   -1.9440 C.3     1  UNL1        0.1270
      2  C          9.0130   -1.6350   -2.3760 C.2     1  UNL1        0.3030
      3  O          9.8880   -0.9090   -1.8420 O.2     1  UNL1       -0.2520
      4  O          9.4100   -2.4970   -3.3850 O.3     1  UNL1       -0.4810
      5  H         10.2860   -3.0170   -3.2830 H       1  UNL1        0.2960
      6  C          7.2000   -0.1330   -1.8330 C.3     1  UNL1        0.0470
      7  C          6.4810    0.1930   -0.6020 C.2     1  UNL1       -0.0470
      8  C          6.4740   -0.6810    0.4600 C.2     1  UNL1        0.0040
      9  C          5.8080    1.3890   -0.5140 C.2     1  UNL1        0.0040
     10  C          5.7670   -0.3040    1.6050 C.2     1  UNL1        0.0000
     11  C          5.1100    1.7600    0.6180 C.2     1  UNL1        0.0000
     12  C          5.0970    0.8900    1.6860 C.2     1  UNL1        0.0000
@<TRIPOS>BOND
     1     4     5    1
     2     4     2    1
     3     2     1    1
     4     2     3    2
     5     1     6    1
     6     6     7    1
     7     7     9    2
     8     7     8    1
     9     9    11    1
    10     8    10    2
    11    11    12    2
    12    10    12    1
