@<TRIPOS>MOLECULE
/home/cewinharhar/GITHUB/reincatalyze/data/processed/docking_pred/2023_Apr_20-15:07/4f8485ffa73320ccf1b94cd7b1ea99ef776c762b_ligand_2.pdbqt
 12 12 0 0 0
SMALL
GASTEIGER

@<TRIPOS>ATOM
      1  C          5.6510    2.7300    0.4520 C.3     1  UNL1        0.1270
      2  C          6.3160    3.9330    1.0060 C.2     1  UNL1        0.3030
      3  O          6.8880    4.7640    0.2570 O.2     1  UNL1       -0.2520
      4  O          6.3250    4.1750    2.3700 O.3     1  UNL1       -0.4810
      5  H          5.8850    3.5000    3.0010 H       1  UNL1        0.2960
      6  C          6.4610    1.5280    0.8310 C.3     1  UNL1        0.0470
      7  C          7.1330    0.8840   -0.2960 C.2     1  UNL1       -0.0470
      8  C          8.4190    1.2320   -0.6410 C.2     1  UNL1        0.0040
      9  C          6.4650   -0.0810   -1.0140 C.2     1  UNL1        0.0040
     10  C          8.9990    0.5750   -1.7280 C.2     1  UNL1        0.0000
     11  C          7.0400   -0.7290   -2.0890 C.2     1  UNL1        0.0000
     12  C          8.3280   -0.3860   -2.4410 C.2     1  UNL1        0.0000
@<TRIPOS>BOND
     1    12    11    2
     2    12    10    1
     3    11     9    1
     4    10     8    2
     5     9     7    2
     6     8     7    1
     7     7     6    1
     8     3     2    2
     9     1     6    1
    10     1     2    1
    11     2     4    1
    12     4     5    1
