@<TRIPOS>MOLECULE
/home/cewinharhar/GITHUB/reincatalyze/data/processed/docking_pred/2023_Apr_20-15:07/4fd116288ae20ad94bf91d23a53b6bc9c92e4cae_ligand_2.pdbqt
 12 12 0 0 0
SMALL
GASTEIGER

@<TRIPOS>ATOM
      1  C          8.2780   -0.9530   -1.8310 C.3     1  UNL1        0.1270
      2  C          8.4080   -2.0250   -2.8460 C.2     1  UNL1        0.3030
      3  O          9.5260   -2.5200   -3.1310 O.2     1  UNL1       -0.2520
      4  O          7.2940   -2.5120   -3.5110 O.3     1  UNL1       -0.4810
      5  H          7.4210   -3.1600   -4.2940 H       1  UNL1        0.2960
      6  C          7.2930   -1.4030   -0.7950 C.3     1  UNL1        0.0470
      7  C          6.5130   -0.3160   -0.2060 C.2     1  UNL1       -0.0470
      8  C          6.1850    0.7960   -0.9460 C.2     1  UNL1        0.0040
      9  C          6.1040   -0.4170    1.1040 C.2     1  UNL1        0.0040
     10  C          5.4360    1.7950   -0.3190 C.2     1  UNL1        0.0000
     11  C          5.3640    0.5720    1.7220 C.2     1  UNL1        0.0000
     12  C          5.0320    1.6890    0.9880 C.2     1  UNL1        0.0000
@<TRIPOS>BOND
     1     5     4    1
     2     4     2    1
     3     3     2    2
     4     2     1    1
     5     1     6    1
     6     8    10    1
     7     8     7    2
     8     6     7    1
     9    10    12    2
    10     7     9    1
    11    12    11    1
    12     9    11    2
