@<TRIPOS>MOLECULE
/home/cewinharhar/GITHUB/reincatalyze/data/processed/docking_pred/2023_Apr_20-15:07/4fd116288ae20ad94bf91d23a53b6bc9c92e4cae_ligand_2.pdbqt
 12 12 0 0 0
SMALL
GASTEIGER

@<TRIPOS>ATOM
      1  C          5.0020    1.7710    0.6780 C.3     1  UNL1        0.1270
      2  C          4.4920    1.1050    1.8990 C.2     1  UNL1        0.3030
      3  O          5.1490    0.1990    2.4700 O.2     1  UNL1       -0.2520
      4  O          3.2700    1.4640    2.4460 O.3     1  UNL1       -0.4810
      5  H          2.5590    1.8920    1.8460 H       1  UNL1        0.2960
      6  C          6.4990    1.7910    0.7430 C.3     1  UNL1        0.0470
      7  C          7.1510    1.0490   -0.3340 C.2     1  UNL1       -0.0470
      8  C          8.4840    1.2420   -0.6150 C.2     1  UNL1        0.0040
      9  C          6.4160    0.1480   -1.0690 C.2     1  UNL1        0.0040
     10  C          9.0410    0.4980   -1.6580 C.2     1  UNL1        0.0000
     11  C          6.9680   -0.5870   -2.1000 C.2     1  UNL1        0.0000
     12  C          8.3020   -0.3990   -2.3880 C.2     1  UNL1        0.0000
@<TRIPOS>BOND
     1    12    11    2
     2    12    10    1
     3    11     9    1
     4    10     8    2
     5     9     7    2
     6     8     7    1
     7     7     6    1
     8     1     6    1
     9     1     2    1
    10     5     4    1
    11     2     4    1
    12     2     3    2
