@<TRIPOS>MOLECULE
/home/cewinharhar/GITHUB/reincatalyze/data/processed/docking_pred/2023_Apr_20-15:07/4fd116288ae20ad94bf91d23a53b6bc9c92e4cae_ligand_2.pdbqt
 12 12 0 0 0
SMALL
GASTEIGER

@<TRIPOS>ATOM
      1  C          8.3190    0.3510   -2.0520 C.3     1  UNL1        0.1270
      2  C          9.4740    0.4190   -1.1260 C.2     1  UNL1        0.3030
      3  O          9.5560   -0.3410   -0.1300 O.2     1  UNL1       -0.2520
      4  O         10.4980    1.3290   -1.3350 O.3     1  UNL1       -0.4810
      5  H         11.4680    1.0010   -1.3300 H       1  UNL1        0.2960
      6  C          7.2580   -0.4970   -1.4180 C.3     1  UNL1        0.0470
      7  C          6.4220    0.2190   -0.4550 C.2     1  UNL1       -0.0470
      8  C          6.1950   -0.2980    0.7990 C.2     1  UNL1        0.0040
      9  C          5.8630    1.4230   -0.8160 C.2     1  UNL1        0.0040
     10  C          5.3870    0.4390    1.6680 C.2     1  UNL1        0.0000
     11  C          5.0640    2.1510    0.0440 C.2     1  UNL1        0.0000
     12  C          4.8310    1.6390    1.3020 C.2     1  UNL1        0.0000
@<TRIPOS>BOND
     1     1     6    1
     2     1     2    1
     3     6     7    1
     4     4     5    1
     5     4     2    1
     6     2     3    2
     7     9     7    2
     8     9    11    1
     9     7     8    1
    10    11    12    2
    11     8    10    2
    12    12    10    1
