MODEL 1
REMARK VINA RESULT:      -7.3      0.000      0.000
REMARK SMILES O=C(O)CCc1ccccc1
REMARK SMILES IDX 4 1 2 2 1 3 3 4 5 6 6 7 7 8 11 9 8 10 10 11 9 12
REMARK H PARENT 3 5
REMARK Flexibility Score: inf
ROOT
ATOM      1  C   UNL     1       8.397  -0.531  -2.279  1.00  0.00     0.127 C 
ENDROOT
BRANCH   1   2
ATOM      2  C   UNL     1       8.462  -1.874  -2.902  1.00  0.00     0.303 C 
ATOM      3  O   UNL     1       9.552  -2.486  -3.018  1.00  0.00    -0.252 OA
BRANCH   2   4
ATOM      4  O   UNL     1       7.316  -2.493  -3.376  1.00  0.00    -0.481 OA
ATOM      5  H   UNL     1       7.125  -3.463  -3.112  1.00  0.00     0.296 HD
ENDBRANCH   2   4
ENDBRANCH   1   2
BRANCH   1   6
ATOM      6  C   UNL     1       6.959  -0.118  -2.198  1.00  0.00     0.047 C 
BRANCH   6   7
ATOM      7  C   UNL     1       6.461   0.038  -0.833  1.00  0.00    -0.047 A 
ATOM      8  C   UNL     1       6.596  -0.977   0.086  1.00  0.00     0.004 A 
ATOM      9  C   UNL     1       5.852   1.218  -0.471  1.00  0.00     0.004 A 
ATOM     10  C   UNL     1       6.098  -0.757   1.372  1.00  0.00     0.000 A 
ATOM     11  C   UNL     1       5.360   1.433   0.800  1.00  0.00     0.000 A 
ATOM     12  C   UNL     1       5.491   0.421   1.727  1.00  0.00     0.000 A 
ENDBRANCH   6   7
ENDBRANCH   1   6
TORSDOF 4
ENDMDL
MODEL 2
REMARK VINA RESULT:      -7.3      0.150      1.734
REMARK SMILES O=C(O)CCc1ccccc1
REMARK SMILES IDX 4 1 2 2 1 3 3 4 5 6 6 7 7 8 11 9 8 10 10 11 9 12
REMARK H PARENT 3 5
REMARK Flexibility Score: inf
ROOT
ATOM      1  C   UNL     1       8.393  -0.636  -2.100  1.00  0.00     0.127 C 
ENDROOT
BRANCH   1   2
ATOM      2  C   UNL     1       8.362  -1.892  -2.885  1.00  0.00     0.303 C 
ATOM      3  O   UNL     1       7.275  -2.401  -3.255  1.00  0.00    -0.252 OA
BRANCH   2   4
ATOM      4  O   UNL     1       9.535  -2.542  -3.232  1.00  0.00    -0.481 OA
ATOM      5  H   UNL     1      10.425  -2.042  -3.159  1.00  0.00     0.296 HD
ENDBRANCH   2   4
ENDBRANCH   1   2
BRANCH   1   6
ATOM      6  C   UNL     1       7.011  -0.059  -2.079  1.00  0.00     0.047 C 
BRANCH   6   7
ATOM      7  C   UNL     1       6.455   0.104  -0.737  1.00  0.00    -0.047 A 
ATOM      8  C   UNL     1       5.798   1.260  -0.383  1.00  0.00     0.004 A 
ATOM      9  C   UNL     1       6.593  -0.916   0.176  1.00  0.00     0.004 A 
ATOM     10  C   UNL     1       5.292   1.346   0.916  1.00  0.00     0.000 A 
ATOM     11  C   UNL     1       6.092  -0.829   1.459  1.00  0.00     0.000 A 
ATOM     12  C   UNL     1       5.434   0.326   1.822  1.00  0.00     0.000 A 
ENDBRANCH   6   7
ENDBRANCH   1   6
TORSDOF 4
ENDMDL
MODEL 3
REMARK VINA RESULT:      -7.2      0.676      1.597
REMARK SMILES O=C(O)CCc1ccccc1
REMARK SMILES IDX 4 1 2 2 1 3 3 4 5 6 6 7 7 8 11 9 8 10 10 11 9 12
REMARK H PARENT 3 5
REMARK Flexibility Score: inf
ROOT
ATOM      1  C   UNL     1       8.278  -0.953  -1.831  1.00  0.00     0.127 C 
ENDROOT
BRANCH   1   2
ATOM      2  C   UNL     1       8.408  -2.025  -2.846  1.00  0.00     0.303 C 
ATOM      3  O   UNL     1       9.526  -2.520  -3.131  1.00  0.00    -0.252 OA
BRANCH   2   4
ATOM      4  O   UNL     1       7.294  -2.512  -3.511  1.00  0.00    -0.481 OA
ATOM      5  H   UNL     1       7.421  -3.160  -4.294  1.00  0.00     0.296 HD
ENDBRANCH   2   4
ENDBRANCH   1   2
BRANCH   1   6
ATOM      6  C   UNL     1       7.293  -1.403  -0.795  1.00  0.00     0.047 C 
BRANCH   6   7
ATOM      7  C   UNL     1       6.513  -0.316  -0.206  1.00  0.00    -0.047 A 
ATOM      8  C   UNL     1       6.185   0.796  -0.946  1.00  0.00     0.004 A 
ATOM      9  C   UNL     1       6.104  -0.417   1.104  1.00  0.00     0.004 A 
ATOM     10  C   UNL     1       5.436   1.795  -0.319  1.00  0.00     0.000 A 
ATOM     11  C   UNL     1       5.364   0.572   1.722  1.00  0.00     0.000 A 
ATOM     12  C   UNL     1       5.032   1.689   0.988  1.00  0.00     0.000 A 
ENDBRANCH   6   7
ENDBRANCH   1   6
TORSDOF 4
ENDMDL
MODEL 4
REMARK VINA RESULT:      -6.8      3.368      5.054
REMARK SMILES O=C(O)CCc1ccccc1
REMARK SMILES IDX 4 1 2 2 1 3 3 4 5 6 6 7 7 8 11 9 8 10 10 11 9 12
REMARK H PARENT 3 5
REMARK Flexibility Score: inf
ROOT
ATOM      1  C   UNL     1       5.002   1.771   0.678  1.00  0.00     0.127 C 
ENDROOT
BRANCH   1   2
ATOM      2  C   UNL     1       4.492   1.105   1.899  1.00  0.00     0.303 C 
ATOM      3  O   UNL     1       5.149   0.199   2.470  1.00  0.00    -0.252 OA
BRANCH   2   4
ATOM      4  O   UNL     1       3.270   1.464   2.446  1.00  0.00    -0.481 OA
ATOM      5  H   UNL     1       2.559   1.892   1.846  1.00  0.00     0.296 HD
ENDBRANCH   2   4
ENDBRANCH   1   2
BRANCH   1   6
ATOM      6  C   UNL     1       6.499   1.791   0.743  1.00  0.00     0.047 C 
BRANCH   6   7
ATOM      7  C   UNL     1       7.151   1.049  -0.334  1.00  0.00    -0.047 A 
ATOM      8  C   UNL     1       8.484   1.242  -0.615  1.00  0.00     0.004 A 
ATOM      9  C   UNL     1       6.416   0.148  -1.069  1.00  0.00     0.004 A 
ATOM     10  C   UNL     1       9.041   0.498  -1.658  1.00  0.00     0.000 A 
ATOM     11  C   UNL     1       6.968  -0.587  -2.100  1.00  0.00     0.000 A 
ATOM     12  C   UNL     1       8.302  -0.399  -2.388  1.00  0.00     0.000 A 
ENDBRANCH   6   7
ENDBRANCH   1   6
TORSDOF 4
ENDMDL
MODEL 5
REMARK VINA RESULT:      -6.6      1.976      2.330
REMARK SMILES O=C(O)CCc1ccccc1
REMARK SMILES IDX 4 1 2 2 1 3 3 4 5 6 6 7 7 8 11 9 8 10 10 11 9 12
REMARK H PARENT 3 5
REMARK Flexibility Score: inf
ROOT
ATOM      1  C   UNL     1       8.319   0.351  -2.052  1.00  0.00     0.127 C 
ENDROOT
BRANCH   1   2
ATOM      2  C   UNL     1       9.474   0.419  -1.126  1.00  0.00     0.303 C 
ATOM      3  O   UNL     1       9.556  -0.341  -0.130  1.00  0.00    -0.252 OA
BRANCH   2   4
ATOM      4  O   UNL     1      10.498   1.329  -1.335  1.00  0.00    -0.481 OA
ATOM      5  H   UNL     1      11.468   1.001  -1.330  1.00  0.00     0.296 HD
ENDBRANCH   2   4
ENDBRANCH   1   2
BRANCH   1   6
ATOM      6  C   UNL     1       7.258  -0.497  -1.418  1.00  0.00     0.047 C 
BRANCH   6   7
ATOM      7  C   UNL     1       6.422   0.219  -0.455  1.00  0.00    -0.047 A 
ATOM      8  C   UNL     1       6.195  -0.298   0.799  1.00  0.00     0.004 A 
ATOM      9  C   UNL     1       5.863   1.423  -0.816  1.00  0.00     0.004 A 
ATOM     10  C   UNL     1       5.387   0.439   1.668  1.00  0.00     0.000 A 
ATOM     11  C   UNL     1       5.064   2.151   0.044  1.00  0.00     0.000 A 
ATOM     12  C   UNL     1       4.831   1.639   1.302  1.00  0.00     0.000 A 
ENDBRANCH   6   7
ENDBRANCH   1   6
TORSDOF 4
ENDMDL
