@<TRIPOS>MOLECULE
/home/cewinharhar/GITHUB/reincatalyze/data/processed/docking_pred/2023_Apr_20-15:07/4fd116288ae20ad94bf91d23a53b6bc9c92e4cae_ligand_2.pdbqt
 12 12 0 0 0
SMALL
GASTEIGER

@<TRIPOS>ATOM
      1  C          8.3970   -0.5310   -2.2790 C.3     1  UNL1        0.1270
      2  C          8.4620   -1.8740   -2.9020 C.2     1  UNL1        0.3030
      3  O          9.5520   -2.4860   -3.0180 O.2     1  UNL1       -0.2520
      4  O          7.3160   -2.4930   -3.3760 O.3     1  UNL1       -0.4810
      5  H          7.1250   -3.4630   -3.1120 H       1  UNL1        0.2960
      6  C          6.9590   -0.1180   -2.1980 C.3     1  UNL1        0.0470
      7  C          6.4610    0.0380   -0.8330 C.2     1  UNL1       -0.0470
      8  C          6.5960   -0.9770    0.0860 C.2     1  UNL1        0.0040
      9  C          5.8520    1.2180   -0.4710 C.2     1  UNL1        0.0040
     10  C          6.0980   -0.7570    1.3720 C.2     1  UNL1        0.0000
     11  C          5.3600    1.4330    0.8000 C.2     1  UNL1        0.0000
     12  C          5.4910    0.4210    1.7270 C.2     1  UNL1        0.0000
@<TRIPOS>BOND
     1     4     5    1
     2     4     2    1
     3     3     2    2
     4     2     1    1
     5     1     6    1
     6     6     7    1
     7     7     9    2
     8     7     8    1
     9     9    11    1
    10     8    10    2
    11    11    12    2
    12    10    12    1
