@<TRIPOS>MOLECULE
/home/cewinharhar/GITHUB/reincatalyze/data/processed/docking_pred/2023_Apr_20-15:07/51335195432d6c3c52ef841bfe8bb9323d602809_ligand_2.pdbqt
 12 12 0 0 0
SMALL
GASTEIGER

@<TRIPOS>ATOM
      1  C          5.3430    2.9300    0.1280 C.3     1  UNL1        0.1270
      2  C          6.2260    3.8560    0.8760 C.2     1  UNL1        0.3030
      3  O          6.8560    4.7700    0.2900 O.2     1  UNL1       -0.2520
      4  O          6.3800    3.7370    2.2480 O.3     1  UNL1       -0.4810
      5  H          7.0850    4.3060    2.7240 H       1  UNL1        0.2960
      6  C          5.3150    1.6180    0.8520 C.3     1  UNL1        0.0470
      7  C          6.0620    0.5540    0.1820 C.2     1  UNL1       -0.0470
      8  C          6.3360    0.6260   -1.1640 C.2     1  UNL1        0.0040
      9  C          6.4930   -0.5270    0.9160 C.2     1  UNL1        0.0040
     10  C          7.0540   -0.4260   -1.7360 C.2     1  UNL1        0.0000
     11  C          7.2020   -1.5670    0.3480 C.2     1  UNL1        0.0000
     12  C          7.4810   -1.5020   -1.0000 C.2     1  UNL1        0.0000
@<TRIPOS>BOND
     1    10     8    1
     2    10    12    2
     3     8     7    2
     4    12    11    1
     5     1     6    1
     6     1     2    1
     7     7     6    1
     8     7     9    1
     9     3     2    2
    10    11     9    2
    11     2     4    1
    12     4     5    1
