@<TRIPOS>MOLECULE
/home/cewinharhar/GITHUB/reincatalyze/data/processed/docking_pred/2023_Apr_20-15:07/51335195432d6c3c52ef841bfe8bb9323d602809_ligand_2.pdbqt
 12 12 0 0 0
SMALL
GASTEIGER

@<TRIPOS>ATOM
      1  C          5.0350    1.7910    0.7310 C.3     1  UNL1        0.1270
      2  C          4.4880    1.1050    1.9260 C.2     1  UNL1        0.3030
      3  O          5.1230    0.1830    2.4950 O.2     1  UNL1       -0.2520
      4  O          3.2560    1.4640    2.4480 O.3     1  UNL1       -0.4810
      5  H          2.7560    0.8050    3.0500 H       1  UNL1        0.2960
      6  C          6.5300    1.7160    0.7890 C.3     1  UNL1        0.0470
      7  C          7.1320    0.9700   -0.3150 C.2     1  UNL1       -0.0470
      8  C          6.4060    0.0270   -1.0050 C.2     1  UNL1        0.0040
      9  C          8.4390    1.2230   -0.6630 C.2     1  UNL1        0.0040
     10  C          7.0440   -0.6460   -2.0490 C.2     1  UNL1        0.0000
     11  C          9.0680    0.5560   -1.6950 C.2     1  UNL1        0.0000
     12  C          8.3480   -0.3910   -2.3910 C.2     1  UNL1        0.0000
@<TRIPOS>BOND
     1    12    10    2
     2    12    11    1
     3    10     8    1
     4    11     9    2
     5     8     7    2
     6     9     7    1
     7     7     6    1
     8     1     6    1
     9     1     2    1
    10     2     4    1
    11     2     3    2
    12     4     5    1
