@<TRIPOS>MOLECULE
/home/cewinharhar/GITHUB/reincatalyze/data/processed/docking_pred/2023_Apr_20-15:07/51335195432d6c3c52ef841bfe8bb9323d602809_ligand_2.pdbqt
 12 12 0 0 0
SMALL
GASTEIGER

@<TRIPOS>ATOM
      1  C          8.3370    0.3610   -1.9960 C.3     1  UNL1        0.1270
      2  C          9.4880    0.4050   -1.0630 C.2     1  UNL1        0.3030
      3  O          9.5510   -0.3650   -0.0720 O.2     1  UNL1       -0.2520
      4  O         10.5280    1.2990   -1.2590 O.3     1  UNL1       -0.4810
      5  H         10.8690    1.4700   -2.2090 H       1  UNL1        0.2960
      6  C          7.2740   -0.5050   -1.3930 C.3     1  UNL1        0.0470
      7  C          6.4350    0.1810   -0.4110 C.2     1  UNL1       -0.0470
      8  C          6.2120   -0.3690    0.8300 C.2     1  UNL1        0.0040
      9  C          5.8680    1.3900   -0.7400 C.2     1  UNL1        0.0040
     10  C          5.4020    0.3420    1.7180 C.2     1  UNL1        0.0000
     11  C          5.0670    2.0920    0.1390 C.2     1  UNL1        0.0000
     12  C          4.8380    1.5470    1.3840 C.2     1  UNL1        0.0000
@<TRIPOS>BOND
     1     5     4    1
     2     1     6    1
     3     1     2    1
     4     6     7    1
     5     4     2    1
     6     2     3    2
     7     9     7    2
     8     9    11    1
     9     7     8    1
    10    11    12    2
    11     8    10    2
    12    12    10    1
