@<TRIPOS>MOLECULE
/home/cewinharhar/GITHUB/reincatalyze/data/processed/docking_pred/2023_Apr_20-15:07/51335195432d6c3c52ef841bfe8bb9323d602809_ligand_2.pdbqt
 12 12 0 0 0
SMALL
GASTEIGER

@<TRIPOS>ATOM
      1  C          8.4430   -0.6890   -2.0460 C.3     1  UNL1        0.1270
      2  C          8.4490   -1.9250   -2.8650 C.2     1  UNL1        0.3030
      3  O          9.5120   -2.5600   -3.0760 O.2     1  UNL1       -0.2520
      4  O          7.2780   -2.4140   -3.4210 O.3     1  UNL1       -0.4810
      5  H          6.7230   -1.8080   -4.0320 H       1  UNL1        0.2960
      6  C          7.0560   -0.1210   -2.0620 C.3     1  UNL1        0.0470
      7  C          6.4770    0.0700   -0.7340 C.2     1  UNL1       -0.0470
      8  C          5.8550    1.2510   -0.4010 C.2     1  UNL1        0.0040
      9  C          6.5580   -0.9490    0.1870 C.2     1  UNL1        0.0040
     10  C          5.3230    1.3630    0.8850 C.2     1  UNL1        0.0000
     11  C          6.0320   -0.8360    1.4580 C.2     1  UNL1        0.0000
     12  C          5.4070    0.3440    1.8000 C.2     1  UNL1        0.0000
@<TRIPOS>BOND
     1     5     4    1
     2     4     2    1
     3     3     2    2
     4     2     1    1
     5     6     1    1
     6     6     7    1
     7     7     8    2
     8     7     9    1
     9     8    10    1
    10     9    11    2
    11    10    12    2
    12    11    12    1
