MODEL 1
REMARK VINA RESULT:      -7.3      0.000      0.000
REMARK SMILES O=C(O)CCc1ccccc1
REMARK SMILES IDX 4 1 2 2 1 3 3 4 5 6 6 7 7 8 11 9 8 10 10 11 9 12
REMARK H PARENT 3 5
REMARK Flexibility Score: inf
ROOT
ATOM      1  C   UNL     1       8.443  -0.689  -2.046  1.00  0.00     0.127 C 
ENDROOT
BRANCH   1   2
ATOM      2  C   UNL     1       8.449  -1.925  -2.865  1.00  0.00     0.303 C 
ATOM      3  O   UNL     1       9.512  -2.560  -3.076  1.00  0.00    -0.252 OA
BRANCH   2   4
ATOM      4  O   UNL     1       7.278  -2.414  -3.421  1.00  0.00    -0.481 OA
ATOM      5  H   UNL     1       6.723  -1.808  -4.032  1.00  0.00     0.296 HD
ENDBRANCH   2   4
ENDBRANCH   1   2
BRANCH   1   6
ATOM      6  C   UNL     1       7.056  -0.121  -2.062  1.00  0.00     0.047 C 
BRANCH   6   7
ATOM      7  C   UNL     1       6.477   0.070  -0.734  1.00  0.00    -0.047 A 
ATOM      8  C   UNL     1       5.855   1.251  -0.401  1.00  0.00     0.004 A 
ATOM      9  C   UNL     1       6.558  -0.949   0.187  1.00  0.00     0.004 A 
ATOM     10  C   UNL     1       5.323   1.363   0.885  1.00  0.00     0.000 A 
ATOM     11  C   UNL     1       6.032  -0.836   1.458  1.00  0.00     0.000 A 
ATOM     12  C   UNL     1       5.407   0.344   1.800  1.00  0.00     0.000 A 
ENDBRANCH   6   7
ENDBRANCH   1   6
TORSDOF 4
ENDMDL
MODEL 2
REMARK VINA RESULT:      -7.3      0.105      1.440
REMARK SMILES O=C(O)CCc1ccccc1
REMARK SMILES IDX 4 1 2 2 1 3 3 4 5 6 6 7 7 8 11 9 8 10 10 11 9 12
REMARK H PARENT 3 5
REMARK Flexibility Score: inf
ROOT
ATOM      1  C   UNL     1       8.439  -0.576  -2.209  1.00  0.00     0.127 C 
ENDROOT
BRANCH   1   2
ATOM      2  C   UNL     1       8.485  -1.870  -2.929  1.00  0.00     0.303 C 
ATOM      3  O   UNL     1       9.570  -2.476  -3.111  1.00  0.00    -0.252 OA
BRANCH   2   4
ATOM      4  O   UNL     1       7.327  -2.449  -3.424  1.00  0.00    -0.481 OA
ATOM      5  H   UNL     1       6.430  -2.232  -2.981  1.00  0.00     0.296 HD
ENDBRANCH   2   4
ENDBRANCH   1   2
BRANCH   1   6
ATOM      6  C   UNL     1       7.014  -0.118  -2.154  1.00  0.00     0.047 C 
BRANCH   6   7
ATOM      7  C   UNL     1       6.488   0.028  -0.798  1.00  0.00    -0.047 A 
ATOM      8  C   UNL     1       6.626  -0.985   0.122  1.00  0.00     0.004 A 
ATOM      9  C   UNL     1       5.850   1.195  -0.447  1.00  0.00     0.004 A 
ATOM     10  C   UNL     1       6.100  -0.777   1.399  1.00  0.00     0.000 A 
ATOM     11  C   UNL     1       5.330   1.399   0.816  1.00  0.00     0.000 A 
ATOM     12  C   UNL     1       5.464   0.389   1.744  1.00  0.00     0.000 A 
ENDBRANCH   6   7
ENDBRANCH   1   6
TORSDOF 4
ENDMDL
MODEL 3
REMARK VINA RESULT:      -6.8      3.366      5.086
REMARK SMILES O=C(O)CCc1ccccc1
REMARK SMILES IDX 4 1 2 2 1 3 3 4 5 6 6 7 7 8 11 9 8 10 10 11 9 12
REMARK H PARENT 3 5
REMARK Flexibility Score: inf
ROOT
ATOM      1  C   UNL     1       5.035   1.791   0.731  1.00  0.00     0.127 C 
ENDROOT
BRANCH   1   2
ATOM      2  C   UNL     1       4.488   1.105   1.926  1.00  0.00     0.303 C 
ATOM      3  O   UNL     1       5.123   0.183   2.495  1.00  0.00    -0.252 OA
BRANCH   2   4
ATOM      4  O   UNL     1       3.256   1.464   2.448  1.00  0.00    -0.481 OA
ATOM      5  H   UNL     1       2.756   0.805   3.050  1.00  0.00     0.296 HD
ENDBRANCH   2   4
ENDBRANCH   1   2
BRANCH   1   6
ATOM      6  C   UNL     1       6.530   1.716   0.789  1.00  0.00     0.047 C 
BRANCH   6   7
ATOM      7  C   UNL     1       7.132   0.970  -0.315  1.00  0.00    -0.047 A 
ATOM      8  C   UNL     1       6.406   0.027  -1.005  1.00  0.00     0.004 A 
ATOM      9  C   UNL     1       8.439   1.223  -0.663  1.00  0.00     0.004 A 
ATOM     10  C   UNL     1       7.044  -0.646  -2.049  1.00  0.00     0.000 A 
ATOM     11  C   UNL     1       9.068   0.556  -1.695  1.00  0.00     0.000 A 
ATOM     12  C   UNL     1       8.348  -0.391  -2.391  1.00  0.00     0.000 A 
ENDBRANCH   6   7
ENDBRANCH   1   6
TORSDOF 4
ENDMDL
MODEL 4
REMARK VINA RESULT:      -6.6      2.001      2.705
REMARK SMILES O=C(O)CCc1ccccc1
REMARK SMILES IDX 4 1 2 2 1 3 3 4 5 6 6 7 7 8 11 9 8 10 10 11 9 12
REMARK H PARENT 3 5
REMARK Flexibility Score: inf
ROOT
ATOM      1  C   UNL     1       8.337   0.361  -1.996  1.00  0.00     0.127 C 
ENDROOT
BRANCH   1   2
ATOM      2  C   UNL     1       9.488   0.405  -1.063  1.00  0.00     0.303 C 
ATOM      3  O   UNL     1       9.551  -0.365  -0.072  1.00  0.00    -0.252 OA
BRANCH   2   4
ATOM      4  O   UNL     1      10.528   1.299  -1.259  1.00  0.00    -0.481 OA
ATOM      5  H   UNL     1      10.869   1.470  -2.209  1.00  0.00     0.296 HD
ENDBRANCH   2   4
ENDBRANCH   1   2
BRANCH   1   6
ATOM      6  C   UNL     1       7.274  -0.505  -1.393  1.00  0.00     0.047 C 
BRANCH   6   7
ATOM      7  C   UNL     1       6.435   0.181  -0.411  1.00  0.00    -0.047 A 
ATOM      8  C   UNL     1       6.212  -0.369   0.830  1.00  0.00     0.004 A 
ATOM      9  C   UNL     1       5.868   1.390  -0.740  1.00  0.00     0.004 A 
ATOM     10  C   UNL     1       5.402   0.342   1.718  1.00  0.00     0.000 A 
ATOM     11  C   UNL     1       5.067   2.092   0.139  1.00  0.00     0.000 A 
ATOM     12  C   UNL     1       4.838   1.547   1.384  1.00  0.00     0.000 A 
ENDBRANCH   6   7
ENDBRANCH   1   6
TORSDOF 4
ENDMDL
MODEL 5
REMARK VINA RESULT:      -6.5      3.718      4.974
REMARK SMILES O=C(O)CCc1ccccc1
REMARK SMILES IDX 4 1 2 2 1 3 3 4 5 6 6 7 7 8 11 9 8 10 10 11 9 12
REMARK H PARENT 3 5
REMARK Flexibility Score: inf
ROOT
ATOM      1  C   UNL     1       5.343   2.930   0.128  1.00  0.00     0.127 C 
ENDROOT
BRANCH   1   2
ATOM      2  C   UNL     1       6.226   3.856   0.876  1.00  0.00     0.303 C 
ATOM      3  O   UNL     1       6.856   4.770   0.290  1.00  0.00    -0.252 OA
BRANCH   2   4
ATOM      4  O   UNL     1       6.380   3.737   2.248  1.00  0.00    -0.481 OA
ATOM      5  H   UNL     1       7.085   4.306   2.724  1.00  0.00     0.296 HD
ENDBRANCH   2   4
ENDBRANCH   1   2
BRANCH   1   6
ATOM      6  C   UNL     1       5.315   1.618   0.852  1.00  0.00     0.047 C 
BRANCH   6   7
ATOM      7  C   UNL     1       6.062   0.554   0.182  1.00  0.00    -0.047 A 
ATOM      8  C   UNL     1       6.336   0.626  -1.164  1.00  0.00     0.004 A 
ATOM      9  C   UNL     1       6.493  -0.527   0.916  1.00  0.00     0.004 A 
ATOM     10  C   UNL     1       7.054  -0.426  -1.736  1.00  0.00     0.000 A 
ATOM     11  C   UNL     1       7.202  -1.567   0.348  1.00  0.00     0.000 A 
ATOM     12  C   UNL     1       7.481  -1.502  -1.000  1.00  0.00     0.000 A 
ENDBRANCH   6   7
ENDBRANCH   1   6
TORSDOF 4
ENDMDL
