@<TRIPOS>MOLECULE
/home/cewinharhar/GITHUB/reincatalyze/data/processed/docking_pred/2023_Apr_20-15:07/51335195432d6c3c52ef841bfe8bb9323d602809_ligand_2.pdbqt
 12 12 0 0 0
SMALL
GASTEIGER

@<TRIPOS>ATOM
      1  C          8.4390   -0.5760   -2.2090 C.3     1  UNL1        0.1270
      2  C          8.4850   -1.8700   -2.9290 C.2     1  UNL1        0.3030
      3  O          9.5700   -2.4760   -3.1110 O.2     1  UNL1       -0.2520
      4  O          7.3270   -2.4490   -3.4240 O.3     1  UNL1       -0.4810
      5  H          6.4300   -2.2320   -2.9810 H       1  UNL1        0.2960
      6  C          7.0140   -0.1180   -2.1540 C.3     1  UNL1        0.0470
      7  C          6.4880    0.0280   -0.7980 C.2     1  UNL1       -0.0470
      8  C          6.6260   -0.9850    0.1220 C.2     1  UNL1        0.0040
      9  C          5.8500    1.1950   -0.4470 C.2     1  UNL1        0.0040
     10  C          6.1000   -0.7770    1.3990 C.2     1  UNL1        0.0000
     11  C          5.3300    1.3990    0.8160 C.2     1  UNL1        0.0000
     12  C          5.4640    0.3890    1.7440 C.2     1  UNL1        0.0000
@<TRIPOS>BOND
     1     4     5    1
     2     4     2    1
     3     3     2    2
     4     2     1    1
     5     1     6    1
     6     6     7    1
     7     7     9    2
     8     7     8    1
     9     9    11    1
    10     8    10    2
    11    11    12    2
    12    10    12    1
