@<TRIPOS>MOLECULE
/home/cewinharhar/GITHUB/reincatalyze/data/processed/docking_pred/2023_Apr_20-15:07/51cadb519a72bd0ce332fe372f57097c9ba117cb_ligand_2.pdbqt
 12 12 0 0 0
SMALL
GASTEIGER

@<TRIPOS>ATOM
      1  C          7.2940   -1.3300   -2.1610 C.3     1  UNL1        0.1270
      2  C          8.7370   -1.4050   -2.4900 C.2     1  UNL1        0.3030
      3  O          9.5480   -0.5490   -2.0580 O.2     1  UNL1       -0.2520
      4  O          9.2320   -2.4250   -3.2870 O.3     1  UNL1       -0.4810
      5  H         10.2430   -2.5110   -3.4190 H       1  UNL1        0.2960
      6  C          6.9410    0.1050   -1.9120 C.3     1  UNL1        0.0470
      7  C          6.3020    0.3440   -0.6190 C.2     1  UNL1       -0.0470
      8  C          5.5800    1.4930   -0.3930 C.2     1  UNL1        0.0040
      9  C          6.4280   -0.5970    0.3770 C.2     1  UNL1        0.0040
     10  C          4.9960    1.6550    0.8650 C.2     1  UNL1        0.0000
     11  C          5.8500   -0.4350    1.6200 C.2     1  UNL1        0.0000
     12  C          5.1250    0.7130    1.8540 C.2     1  UNL1        0.0000
@<TRIPOS>BOND
     1     5     4    1
     2     4     2    1
     3     2     1    1
     4     2     3    2
     5     1     6    1
     6     6     7    1
     7     7     8    2
     8     7     9    1
     9     8    10    1
    10     9    11    2
    11    10    12    2
    12    11    12    1
