@<TRIPOS>MOLECULE
/home/cewinharhar/GITHUB/reincatalyze/data/processed/docking_pred/2023_Apr_20-15:07/51cadb519a72bd0ce332fe372f57097c9ba117cb_ligand_2.pdbqt
 12 12 0 0 0
SMALL
GASTEIGER

@<TRIPOS>ATOM
      1  C          5.0140    1.7860    0.6830 C.3     1  UNL1        0.1270
      2  C          4.5070    1.1190    1.9060 C.2     1  UNL1        0.3030
      3  O          5.1730    0.2250    2.4840 O.2     1  UNL1       -0.2520
      4  O          3.2780    1.4640    2.4450 O.3     1  UNL1       -0.4810
      5  H          2.5760    1.9090    1.8480 H       1  UNL1        0.2960
      6  C          6.5110    1.7990    0.7410 C.3     1  UNL1        0.0470
      7  C          7.1540    1.0490   -0.3370 C.2     1  UNL1       -0.0470
      8  C          8.4850    1.2380   -0.6290 C.2     1  UNL1        0.0040
      9  C          6.4120    0.1440   -1.0600 C.2     1  UNL1        0.0040
     10  C          9.0330    0.4870   -1.6710 C.2     1  UNL1        0.0000
     11  C          6.9560   -0.5970   -2.0900 C.2     1  UNL1        0.0000
     12  C          8.2880   -0.4130   -2.3900 C.2     1  UNL1        0.0000
@<TRIPOS>BOND
     1    12    11    2
     2    12    10    1
     3    11     9    1
     4    10     8    2
     5     9     7    2
     6     8     7    1
     7     7     6    1
     8     1     6    1
     9     1     2    1
    10     5     4    1
    11     2     4    1
    12     2     3    2
