@<TRIPOS>MOLECULE
/home/cewinharhar/GITHUB/reincatalyze/data/processed/docking_pred/2023_Apr_20-15:07/51cadb519a72bd0ce332fe372f57097c9ba117cb_ligand_2.pdbqt
 12 12 0 0 0
SMALL
GASTEIGER

@<TRIPOS>ATOM
      1  C          8.4360   -0.6810   -2.0510 C.3     1  UNL1        0.1270
      2  C          8.3780   -1.9180   -2.8640 C.2     1  UNL1        0.3030
      3  O          7.2810   -2.4000   -3.2380 O.2     1  UNL1       -0.2520
      4  O          9.5380   -2.5790   -3.2350 O.3     1  UNL1       -0.4810
      5  H          9.9290   -3.2920   -2.6130 H       1  UNL1        0.2960
      6  C          7.0790   -0.0470   -2.0600 C.3     1  UNL1        0.0470
      7  C          6.4900    0.1170   -0.7320 C.2     1  UNL1       -0.0470
      8  C          5.8150    1.2680   -0.3990 C.2     1  UNL1        0.0040
      9  C          6.6170   -0.8980    0.1880 C.2     1  UNL1        0.0040
     10  C          5.2770    1.3560    0.8870 C.2     1  UNL1        0.0000
     11  C          6.0850   -0.8100    1.4600 C.2     1  UNL1        0.0000
     12  C          5.4070    0.3410    1.8010 C.2     1  UNL1        0.0000
@<TRIPOS>BOND
     1     3     2    2
     2     4     2    1
     3     4     5    1
     4     2     1    1
     5     6     1    1
     6     6     7    1
     7     7     8    2
     8     7     9    1
     9     8    10    1
    10     9    11    2
    11    10    12    2
    12    11    12    1
