MODEL 1
REMARK VINA RESULT:      -7.3      0.000      0.000
REMARK SMILES O=C(O)CCc1ccccc1
REMARK SMILES IDX 4 1 2 2 1 3 3 4 5 6 6 7 7 8 11 9 8 10 10 11 9 12
REMARK H PARENT 3 5
REMARK Flexibility Score: inf
ROOT
ATOM      1  C   UNL     1       8.429  -0.560  -2.224  1.00  0.00     0.127 C 
ENDROOT
BRANCH   1   2
ATOM      2  C   UNL     1       8.470  -1.866  -2.924  1.00  0.00     0.303 C 
ATOM      3  O   UNL     1       9.548  -2.493  -3.067  1.00  0.00    -0.252 OA
BRANCH   2   4
ATOM      4  O   UNL     1       7.315  -2.431  -3.440  1.00  0.00    -0.481 OA
ATOM      5  H   UNL     1       6.614  -1.827  -3.877  1.00  0.00     0.296 HD
ENDBRANCH   2   4
ENDBRANCH   1   2
BRANCH   1   6
ATOM      6  C   UNL     1       7.004  -0.100  -2.169  1.00  0.00     0.047 C 
BRANCH   6   7
ATOM      7  C   UNL     1       6.482   0.058  -0.813  1.00  0.00    -0.047 A 
ATOM      8  C   UNL     1       6.622  -0.946   0.117  1.00  0.00     0.004 A 
ATOM      9  C   UNL     1       5.846   1.230  -0.471  1.00  0.00     0.004 A 
ATOM     10  C   UNL     1       6.100  -0.725   1.393  1.00  0.00     0.000 A 
ATOM     11  C   UNL     1       5.331   1.446   0.791  1.00  0.00     0.000 A 
ATOM     12  C   UNL     1       5.466   0.445   1.728  1.00  0.00     0.000 A 
ENDBRANCH   6   7
ENDBRANCH   1   6
TORSDOF 4
ENDMDL
MODEL 2
REMARK VINA RESULT:      -7.3      0.146      1.733
REMARK SMILES O=C(O)CCc1ccccc1
REMARK SMILES IDX 4 1 2 2 1 3 3 4 5 6 6 7 7 8 11 9 8 10 10 11 9 12
REMARK H PARENT 3 5
REMARK Flexibility Score: inf
ROOT
ATOM      1  C   UNL     1       8.436  -0.681  -2.051  1.00  0.00     0.127 C 
ENDROOT
BRANCH   1   2
ATOM      2  C   UNL     1       8.378  -1.918  -2.864  1.00  0.00     0.303 C 
ATOM      3  O   UNL     1       7.281  -2.400  -3.238  1.00  0.00    -0.252 OA
BRANCH   2   4
ATOM      4  O   UNL     1       9.538  -2.579  -3.235  1.00  0.00    -0.481 OA
ATOM      5  H   UNL     1       9.929  -3.292  -2.613  1.00  0.00     0.296 HD
ENDBRANCH   2   4
ENDBRANCH   1   2
BRANCH   1   6
ATOM      6  C   UNL     1       7.079  -0.047  -2.060  1.00  0.00     0.047 C 
BRANCH   6   7
ATOM      7  C   UNL     1       6.490   0.117  -0.732  1.00  0.00    -0.047 A 
ATOM      8  C   UNL     1       5.815   1.268  -0.399  1.00  0.00     0.004 A 
ATOM      9  C   UNL     1       6.617  -0.898   0.188  1.00  0.00     0.004 A 
ATOM     10  C   UNL     1       5.277   1.356   0.887  1.00  0.00     0.000 A 
ATOM     11  C   UNL     1       6.085  -0.810   1.460  1.00  0.00     0.000 A 
ATOM     12  C   UNL     1       5.407   0.341   1.801  1.00  0.00     0.000 A 
ENDBRANCH   6   7
ENDBRANCH   1   6
TORSDOF 4
ENDMDL
MODEL 3
REMARK VINA RESULT:      -7.1      0.865      1.775
REMARK SMILES O=C(O)CCc1ccccc1
REMARK SMILES IDX 4 1 2 2 1 3 3 4 5 6 6 7 7 8 11 9 8 10 10 11 9 12
REMARK H PARENT 3 5
REMARK Flexibility Score: inf
ROOT
ATOM      1  C   UNL     1       7.294  -1.330  -2.161  1.00  0.00     0.127 C 
ENDROOT
BRANCH   1   2
ATOM      2  C   UNL     1       8.737  -1.405  -2.490  1.00  0.00     0.303 C 
ATOM      3  O   UNL     1       9.548  -0.549  -2.058  1.00  0.00    -0.252 OA
BRANCH   2   4
ATOM      4  O   UNL     1       9.232  -2.425  -3.287  1.00  0.00    -0.481 OA
ATOM      5  H   UNL     1      10.243  -2.511  -3.419  1.00  0.00     0.296 HD
ENDBRANCH   2   4
ENDBRANCH   1   2
BRANCH   1   6
ATOM      6  C   UNL     1       6.941   0.105  -1.912  1.00  0.00     0.047 C 
BRANCH   6   7
ATOM      7  C   UNL     1       6.302   0.344  -0.619  1.00  0.00    -0.047 A 
ATOM      8  C   UNL     1       5.580   1.493  -0.393  1.00  0.00     0.004 A 
ATOM      9  C   UNL     1       6.428  -0.597   0.377  1.00  0.00     0.004 A 
ATOM     10  C   UNL     1       4.996   1.655   0.865  1.00  0.00     0.000 A 
ATOM     11  C   UNL     1       5.850  -0.435   1.620  1.00  0.00     0.000 A 
ATOM     12  C   UNL     1       5.125   0.713   1.854  1.00  0.00     0.000 A 
ENDBRANCH   6   7
ENDBRANCH   1   6
TORSDOF 4
ENDMDL
MODEL 4
REMARK VINA RESULT:      -6.8      3.375      5.062
REMARK SMILES O=C(O)CCc1ccccc1
REMARK SMILES IDX 4 1 2 2 1 3 3 4 5 6 6 7 7 8 11 9 8 10 10 11 9 12
REMARK H PARENT 3 5
REMARK Flexibility Score: inf
ROOT
ATOM      1  C   UNL     1       5.014   1.786   0.683  1.00  0.00     0.127 C 
ENDROOT
BRANCH   1   2
ATOM      2  C   UNL     1       4.507   1.119   1.906  1.00  0.00     0.303 C 
ATOM      3  O   UNL     1       5.173   0.225   2.484  1.00  0.00    -0.252 OA
BRANCH   2   4
ATOM      4  O   UNL     1       3.278   1.464   2.445  1.00  0.00    -0.481 OA
ATOM      5  H   UNL     1       2.576   1.909   1.848  1.00  0.00     0.296 HD
ENDBRANCH   2   4
ENDBRANCH   1   2
BRANCH   1   6
ATOM      6  C   UNL     1       6.511   1.799   0.741  1.00  0.00     0.047 C 
BRANCH   6   7
ATOM      7  C   UNL     1       7.154   1.049  -0.337  1.00  0.00    -0.047 A 
ATOM      8  C   UNL     1       8.485   1.238  -0.629  1.00  0.00     0.004 A 
ATOM      9  C   UNL     1       6.412   0.144  -1.060  1.00  0.00     0.004 A 
ATOM     10  C   UNL     1       9.033   0.487  -1.671  1.00  0.00     0.000 A 
ATOM     11  C   UNL     1       6.956  -0.597  -2.090  1.00  0.00     0.000 A 
ATOM     12  C   UNL     1       8.288  -0.413  -2.390  1.00  0.00     0.000 A 
ENDBRANCH   6   7
ENDBRANCH   1   6
TORSDOF 4
ENDMDL
MODEL 5
REMARK VINA RESULT:      -6.6      1.982      2.698
REMARK SMILES O=C(O)CCc1ccccc1
REMARK SMILES IDX 4 1 2 2 1 3 3 4 5 6 6 7 7 8 11 9 8 10 10 11 9 12
REMARK H PARENT 3 5
REMARK Flexibility Score: inf
ROOT
ATOM      1  C   UNL     1       8.387   0.330  -2.097  1.00  0.00     0.127 C 
ENDROOT
BRANCH   1   2
ATOM      2  C   UNL     1       9.489   0.404  -1.110  1.00  0.00     0.303 C 
ATOM      3  O   UNL     1       9.531  -0.371  -0.122  1.00  0.00    -0.252 OA
BRANCH   2   4
ATOM      4  O   UNL     1      10.507   1.334  -1.250  1.00  0.00    -0.481 OA
ATOM      5  H   UNL     1      10.467   2.007  -2.020  1.00  0.00     0.296 HD
ENDBRANCH   2   4
ENDBRANCH   1   2
BRANCH   1   6
ATOM      6  C   UNL     1       7.264  -0.456  -1.491  1.00  0.00     0.047 C 
BRANCH   6   7
ATOM      7  C   UNL     1       6.421   0.316  -0.580  1.00  0.00    -0.047 A 
ATOM      8  C   UNL     1       5.867   1.511  -0.977  1.00  0.00     0.004 A 
ATOM      9  C   UNL     1       6.183  -0.167   0.686  1.00  0.00     0.004 A 
ATOM     10  C   UNL     1       5.072   2.194  -0.054  1.00  0.00     0.000 A 
ATOM     11  C   UNL     1       5.397   0.510   1.597  1.00  0.00     0.000 A 
ATOM     12  C   UNL     1       4.839   1.708   1.207  1.00  0.00     0.000 A 
ENDBRANCH   6   7
ENDBRANCH   1   6
TORSDOF 4
ENDMDL
