@<TRIPOS>MOLECULE
/home/cewinharhar/GITHUB/reincatalyze/data/processed/docking_pred/2023_Apr_20-15:07/51cadb519a72bd0ce332fe372f57097c9ba117cb_ligand_2.pdbqt
 12 12 0 0 0
SMALL
GASTEIGER

@<TRIPOS>ATOM
      1  C          8.3870    0.3300   -2.0970 C.3     1  UNL1        0.1270
      2  C          9.4890    0.4040   -1.1100 C.2     1  UNL1        0.3030
      3  O          9.5310   -0.3710   -0.1220 O.2     1  UNL1       -0.2520
      4  O         10.5070    1.3340   -1.2500 O.3     1  UNL1       -0.4810
      5  H         10.4670    2.0070   -2.0200 H       1  UNL1        0.2960
      6  C          7.2640   -0.4560   -1.4910 C.3     1  UNL1        0.0470
      7  C          6.4210    0.3160   -0.5800 C.2     1  UNL1       -0.0470
      8  C          5.8670    1.5110   -0.9770 C.2     1  UNL1        0.0040
      9  C          6.1830   -0.1670    0.6860 C.2     1  UNL1        0.0040
     10  C          5.0720    2.1940   -0.0540 C.2     1  UNL1        0.0000
     11  C          5.3970    0.5100    1.5970 C.2     1  UNL1        0.0000
     12  C          4.8390    1.7080    1.2070 C.2     1  UNL1        0.0000
@<TRIPOS>BOND
     1     1     6    1
     2     1     2    1
     3     5     4    1
     4     6     7    1
     5     4     2    1
     6     2     3    2
     7     8     7    2
     8     8    10    1
     9     7     9    1
    10    10    12    2
    11     9    11    2
    12    12    11    1
