@<TRIPOS>MOLECULE
/home/cewinharhar/GITHUB/reincatalyze/data/processed/docking_pred/2023_Apr_20-15:07/51cadb519a72bd0ce332fe372f57097c9ba117cb_ligand_2.pdbqt
 12 12 0 0 0
SMALL
GASTEIGER

@<TRIPOS>ATOM
      1  C          8.4290   -0.5600   -2.2240 C.3     1  UNL1        0.1270
      2  C          8.4700   -1.8660   -2.9240 C.2     1  UNL1        0.3030
      3  O          9.5480   -2.4930   -3.0670 O.2     1  UNL1       -0.2520
      4  O          7.3150   -2.4310   -3.4400 O.3     1  UNL1       -0.4810
      5  H          6.6140   -1.8270   -3.8770 H       1  UNL1        0.2960
      6  C          7.0040   -0.1000   -2.1690 C.3     1  UNL1        0.0470
      7  C          6.4820    0.0580   -0.8130 C.2     1  UNL1       -0.0470
      8  C          6.6220   -0.9460    0.1170 C.2     1  UNL1        0.0040
      9  C          5.8460    1.2300   -0.4710 C.2     1  UNL1        0.0040
     10  C          6.1000   -0.7250    1.3930 C.2     1  UNL1        0.0000
     11  C          5.3310    1.4460    0.7910 C.2     1  UNL1        0.0000
     12  C          5.4660    0.4450    1.7280 C.2     1  UNL1        0.0000
@<TRIPOS>BOND
     1     5     4    1
     2     4     2    1
     3     3     2    2
     4     2     1    1
     5     1     6    1
     6     6     7    1
     7     7     9    2
     8     7     8    1
     9     9    11    1
    10     8    10    2
    11    11    12    2
    12    10    12    1
