@<TRIPOS>MOLECULE
/home/cewinharhar/GITHUB/reincatalyze/data/processed/docking_pred/2023_Apr_20-15:07/53c3fbcdd7c01d09a3e8b21e27d629f70ce21da9_ligand_2.pdbqt
 12 12 0 0 0
SMALL
GASTEIGER

@<TRIPOS>ATOM
      1  C          5.0250    1.7560    0.6720 C.3     1  UNL1        0.1270
      2  C          4.5680    1.0800    1.9100 C.2     1  UNL1        0.3030
      3  O          3.4490    1.3400    2.4180 O.2     1  UNL1       -0.2520
      4  O          5.3660    0.1410    2.5430 O.3     1  UNL1       -0.4810
      5  H          4.9300   -0.5650    3.1420 H       1  UNL1        0.2960
      6  C          6.5220    1.8140    0.6940 C.3     1  UNL1        0.0470
      7  C          7.1630    1.0410   -0.3690 C.2     1  UNL1       -0.0470
      8  C          8.4940    1.2190   -0.6640 C.2     1  UNL1        0.0040
      9  C          6.4170    0.1260   -1.0760 C.2     1  UNL1        0.0040
     10  C          9.0400    0.4460   -1.6910 C.2     1  UNL1        0.0000
     11  C          6.9580   -0.6370   -2.0920 C.2     1  UNL1        0.0000
     12  C          8.2920   -0.4640   -2.3930 C.2     1  UNL1        0.0000
@<TRIPOS>BOND
     1    12    11    2
     2    12    10    1
     3    11     9    1
     4    10     8    2
     5     9     7    2
     6     8     7    1
     7     7     6    1
     8     1     6    1
     9     1     2    1
    10     2     3    2
    11     2     4    1
    12     4     5    1
