MODEL 1
REMARK VINA RESULT:      -7.3      0.000      0.000
REMARK SMILES O=C(O)CCc1ccccc1
REMARK SMILES IDX 4 1 2 2 1 3 3 4 5 6 6 7 7 8 11 9 8 10 10 11 9 12
REMARK H PARENT 3 5
REMARK Flexibility Score: inf
ROOT
ATOM      1  C   UNL     1       8.415  -0.654  -2.086  1.00  0.00     0.127 C 
ENDROOT
BRANCH   1   2
ATOM      2  C   UNL     1       8.375  -1.906  -2.877  1.00  0.00     0.303 C 
ATOM      3  O   UNL     1       7.285  -2.408  -3.247  1.00  0.00    -0.252 OA
BRANCH   2   4
ATOM      4  O   UNL     1       9.544  -2.560  -3.231  1.00  0.00    -0.481 OA
ATOM      5  H   UNL     1       9.535  -3.210  -4.022  1.00  0.00     0.296 HD
ENDBRANCH   2   4
ENDBRANCH   1   2
BRANCH   1   6
ATOM      6  C   UNL     1       7.042  -0.054  -2.085  1.00  0.00     0.047 C 
BRANCH   6   7
ATOM      7  C   UNL     1       6.467   0.113  -0.751  1.00  0.00    -0.047 A 
ATOM      8  C   UNL     1       5.801   1.268  -0.412  1.00  0.00     0.004 A 
ATOM      9  C   UNL     1       6.598  -0.901   0.169  1.00  0.00     0.004 A 
ATOM     10  C   UNL     1       5.277   1.359   0.880  1.00  0.00     0.000 A 
ATOM     11  C   UNL     1       6.080  -0.810   1.445  1.00  0.00     0.000 A 
ATOM     12  C   UNL     1       5.411   0.343   1.793  1.00  0.00     0.000 A 
ENDBRANCH   6   7
ENDBRANCH   1   6
TORSDOF 4
ENDMDL
MODEL 2
REMARK VINA RESULT:      -7.2      0.083      1.439
REMARK SMILES O=C(O)CCc1ccccc1
REMARK SMILES IDX 4 1 2 2 1 3 3 4 5 6 6 7 7 8 11 9 8 10 10 11 9 12
REMARK H PARENT 3 5
REMARK Flexibility Score: inf
ROOT
ATOM      1  C   UNL     1       8.426  -0.581  -2.200  1.00  0.00     0.127 C 
ENDROOT
BRANCH   1   2
ATOM      2  C   UNL     1       8.400  -1.880  -2.912  1.00  0.00     0.303 C 
ATOM      3  O   UNL     1       7.315  -2.431  -3.221  1.00  0.00    -0.252 OA
BRANCH   2   4
ATOM      4  O   UNL     1       9.578  -2.523  -3.258  1.00  0.00    -0.481 OA
ATOM      5  H   UNL     1      10.381  -2.472  -2.626  1.00  0.00     0.296 HD
ENDBRANCH   2   4
ENDBRANCH   1   2
BRANCH   1   6
ATOM      6  C   UNL     1       7.028  -0.042  -2.152  1.00  0.00     0.047 C 
BRANCH   6   7
ATOM      7  C   UNL     1       6.488   0.091  -0.800  1.00  0.00    -0.047 A 
ATOM      8  C   UNL     1       6.631  -0.924   0.117  1.00  0.00     0.004 A 
ATOM      9  C   UNL     1       5.833   1.249  -0.450  1.00  0.00     0.004 A 
ATOM     10  C   UNL     1       6.091  -0.728   1.390  1.00  0.00     0.000 A 
ATOM     11  C   UNL     1       5.299   1.441   0.809  1.00  0.00     0.000 A 
ATOM     12  C   UNL     1       5.437   0.429   1.733  1.00  0.00     0.000 A 
ENDBRANCH   6   7
ENDBRANCH   1   6
TORSDOF 4
ENDMDL
MODEL 3
REMARK VINA RESULT:      -7.2      0.663      1.882
REMARK SMILES O=C(O)CCc1ccccc1
REMARK SMILES IDX 4 1 2 2 1 3 3 4 5 6 6 7 7 8 11 9 8 10 10 11 9 12
REMARK H PARENT 3 5
REMARK Flexibility Score: inf
ROOT
ATOM      1  C   UNL     1       8.321  -0.973  -1.745  1.00  0.00     0.127 C 
ENDROOT
BRANCH   1   2
ATOM      2  C   UNL     1       8.453  -2.007  -2.799  1.00  0.00     0.303 C 
ATOM      3  O   UNL     1       9.577  -2.457  -3.132  1.00  0.00    -0.252 OA
BRANCH   2   4
ATOM      4  O   UNL     1       7.335  -2.506  -3.447  1.00  0.00    -0.481 OA
ATOM      5  H   UNL     1       6.427  -2.479  -2.973  1.00  0.00     0.296 HD
ENDBRANCH   2   4
ENDBRANCH   1   2
BRANCH   1   6
ATOM      6  C   UNL     1       7.286  -1.431  -0.763  1.00  0.00     0.047 C 
BRANCH   6   7
ATOM      7  C   UNL     1       6.518  -0.343  -0.159  1.00  0.00    -0.047 A 
ATOM      8  C   UNL     1       6.109  -0.415   1.152  1.00  0.00     0.004 A 
ATOM      9  C   UNL     1       6.206   0.761  -0.918  1.00  0.00     0.004 A 
ATOM     10  C   UNL     1       5.380   0.661   1.664  1.00  0.00     0.000 A 
ATOM     11  C   UNL     1       5.485   1.823  -0.412  1.00  0.00     0.000 A 
ATOM     12  C   UNL     1       5.071   1.759   0.901  1.00  0.00     0.000 A 
ENDBRANCH   6   7
ENDBRANCH   1   6
TORSDOF 4
ENDMDL
MODEL 4
REMARK VINA RESULT:      -6.7      1.954      2.591
REMARK SMILES O=C(O)CCc1ccccc1
REMARK SMILES IDX 4 1 2 2 1 3 3 4 5 6 6 7 7 8 11 9 8 10 10 11 9 12
REMARK H PARENT 3 5
REMARK Flexibility Score: inf
ROOT
ATOM      1  C   UNL     1       8.212   0.240  -2.079  1.00  0.00     0.127 C 
ENDROOT
BRANCH   1   2
ATOM      2  C   UNL     1       9.396   0.362  -1.195  1.00  0.00     0.303 C 
ATOM      3  O   UNL     1       9.521  -0.356  -0.172  1.00  0.00    -0.252 OA
BRANCH   2   4
ATOM      4  O   UNL     1      10.400   1.274  -1.475  1.00  0.00    -0.481 OA
ATOM      5  H   UNL     1      10.210   2.047  -2.119  1.00  0.00     0.296 HD
ENDBRANCH   2   4
ENDBRANCH   1   2
BRANCH   1   6
ATOM      6  C   UNL     1       7.189  -0.603  -1.381  1.00  0.00     0.047 C 
BRANCH   6   7
ATOM      7  C   UNL     1       6.381   0.128  -0.406  1.00  0.00    -0.047 A 
ATOM      8  C   UNL     1       6.149  -0.392   0.846  1.00  0.00     0.004 A 
ATOM      9  C   UNL     1       5.853   1.350  -0.752  1.00  0.00     0.004 A 
ATOM     10  C   UNL     1       5.370   0.361   1.727  1.00  0.00     0.000 A 
ATOM     11  C   UNL     1       5.083   2.093   0.120  1.00  0.00     0.000 A 
ATOM     12  C   UNL     1       4.845   1.579   1.376  1.00  0.00     0.000 A 
ENDBRANCH   6   7
ENDBRANCH   1   6
TORSDOF 4
ENDMDL
MODEL 5
REMARK VINA RESULT:      -6.6      3.262      4.995
REMARK SMILES O=C(O)CCc1ccccc1
REMARK SMILES IDX 4 1 2 2 1 3 3 4 5 6 6 7 7 8 11 9 8 10 10 11 9 12
REMARK H PARENT 3 5
REMARK Flexibility Score: inf
ROOT
ATOM      1  C   UNL     1       5.025   1.756   0.672  1.00  0.00     0.127 C 
ENDROOT
BRANCH   1   2
ATOM      2  C   UNL     1       4.568   1.080   1.910  1.00  0.00     0.303 C 
ATOM      3  O   UNL     1       3.449   1.340   2.418  1.00  0.00    -0.252 OA
BRANCH   2   4
ATOM      4  O   UNL     1       5.366   0.141   2.543  1.00  0.00    -0.481 OA
ATOM      5  H   UNL     1       4.930  -0.565   3.142  1.00  0.00     0.296 HD
ENDBRANCH   2   4
ENDBRANCH   1   2
BRANCH   1   6
ATOM      6  C   UNL     1       6.522   1.814   0.694  1.00  0.00     0.047 C 
BRANCH   6   7
ATOM      7  C   UNL     1       7.163   1.041  -0.369  1.00  0.00    -0.047 A 
ATOM      8  C   UNL     1       8.494   1.219  -0.664  1.00  0.00     0.004 A 
ATOM      9  C   UNL     1       6.417   0.126  -1.076  1.00  0.00     0.004 A 
ATOM     10  C   UNL     1       9.040   0.446  -1.691  1.00  0.00     0.000 A 
ATOM     11  C   UNL     1       6.958  -0.637  -2.092  1.00  0.00     0.000 A 
ATOM     12  C   UNL     1       8.292  -0.464  -2.393  1.00  0.00     0.000 A 
ENDBRANCH   6   7
ENDBRANCH   1   6
TORSDOF 4
ENDMDL
