@<TRIPOS>MOLECULE
/home/cewinharhar/GITHUB/reincatalyze/data/processed/docking_pred/2023_Apr_20-15:07/53c3fbcdd7c01d09a3e8b21e27d629f70ce21da9_ligand_2.pdbqt
 12 12 0 0 0
SMALL
GASTEIGER

@<TRIPOS>ATOM
      1  C          8.2120    0.2400   -2.0790 C.3     1  UNL1        0.1270
      2  C          9.3960    0.3620   -1.1950 C.2     1  UNL1        0.3030
      3  O          9.5210   -0.3560   -0.1720 O.2     1  UNL1       -0.2520
      4  O         10.4000    1.2740   -1.4750 O.3     1  UNL1       -0.4810
      5  H         10.2100    2.0470   -2.1190 H       1  UNL1        0.2960
      6  C          7.1890   -0.6030   -1.3810 C.3     1  UNL1        0.0470
      7  C          6.3810    0.1280   -0.4060 C.2     1  UNL1       -0.0470
      8  C          6.1490   -0.3920    0.8460 C.2     1  UNL1        0.0040
      9  C          5.8530    1.3500   -0.7520 C.2     1  UNL1        0.0040
     10  C          5.3700    0.3610    1.7270 C.2     1  UNL1        0.0000
     11  C          5.0830    2.0930    0.1200 C.2     1  UNL1        0.0000
     12  C          4.8450    1.5790    1.3760 C.2     1  UNL1        0.0000
@<TRIPOS>BOND
     1     5     4    1
     2     1     6    1
     3     1     2    1
     4     4     2    1
     5     6     7    1
     6     2     3    2
     7     9     7    2
     8     9    11    1
     9     7     8    1
    10    11    12    2
    11     8    10    2
    12    12    10    1
