@<TRIPOS>MOLECULE
/home/cewinharhar/GITHUB/reincatalyze/data/processed/docking_pred/2023_Apr_20-15:07/53c3fbcdd7c01d09a3e8b21e27d629f70ce21da9_ligand_2.pdbqt
 12 12 0 0 0
SMALL
GASTEIGER

@<TRIPOS>ATOM
      1  C          8.3210   -0.9730   -1.7450 C.3     1  UNL1        0.1270
      2  C          8.4530   -2.0070   -2.7990 C.2     1  UNL1        0.3030
      3  O          9.5770   -2.4570   -3.1320 O.2     1  UNL1       -0.2520
      4  O          7.3350   -2.5060   -3.4470 O.3     1  UNL1       -0.4810
      5  H          6.4270   -2.4790   -2.9730 H       1  UNL1        0.2960
      6  C          7.2860   -1.4310   -0.7630 C.3     1  UNL1        0.0470
      7  C          6.5180   -0.3430   -0.1590 C.2     1  UNL1       -0.0470
      8  C          6.1090   -0.4150    1.1520 C.2     1  UNL1        0.0040
      9  C          6.2060    0.7610   -0.9180 C.2     1  UNL1        0.0040
     10  C          5.3800    0.6610    1.6640 C.2     1  UNL1        0.0000
     11  C          5.4850    1.8230   -0.4120 C.2     1  UNL1        0.0000
     12  C          5.0710    1.7590    0.9010 C.2     1  UNL1        0.0000
@<TRIPOS>BOND
     1     4     5    1
     2     4     2    1
     3     3     2    2
     4     2     1    1
     5     1     6    1
     6     9    11    1
     7     9     7    2
     8     6     7    1
     9    11    12    2
    10     7     8    1
    11    12    10    1
    12     8    10    2
