@<TRIPOS>MOLECULE
/home/cewinharhar/GITHUB/reincatalyze/data/processed/docking_pred/2023_Apr_20-15:07/53c3fbcdd7c01d09a3e8b21e27d629f70ce21da9_ligand_2.pdbqt
 12 12 0 0 0
SMALL
GASTEIGER

@<TRIPOS>ATOM
      1  C          8.4150   -0.6540   -2.0860 C.3     1  UNL1        0.1270
      2  C          8.3750   -1.9060   -2.8770 C.2     1  UNL1        0.3030
      3  O          7.2850   -2.4080   -3.2470 O.2     1  UNL1       -0.2520
      4  O          9.5440   -2.5600   -3.2310 O.3     1  UNL1       -0.4810
      5  H          9.5350   -3.2100   -4.0220 H       1  UNL1        0.2960
      6  C          7.0420   -0.0540   -2.0850 C.3     1  UNL1        0.0470
      7  C          6.4670    0.1130   -0.7510 C.2     1  UNL1       -0.0470
      8  C          5.8010    1.2680   -0.4120 C.2     1  UNL1        0.0040
      9  C          6.5980   -0.9010    0.1690 C.2     1  UNL1        0.0040
     10  C          5.2770    1.3590    0.8800 C.2     1  UNL1        0.0000
     11  C          6.0800   -0.8100    1.4450 C.2     1  UNL1        0.0000
     12  C          5.4110    0.3430    1.7930 C.2     1  UNL1        0.0000
@<TRIPOS>BOND
     1     5     4    1
     2     3     2    2
     3     4     2    1
     4     2     1    1
     5     1     6    1
     6     6     7    1
     7     7     8    2
     8     7     9    1
     9     8    10    1
    10     9    11    2
    11    10    12    2
    12    11    12    1
