@<TRIPOS>MOLECULE
/home/cewinharhar/GITHUB/reincatalyze/data/processed/docking_pred/2023_Apr_20-15:07/53c3fbcdd7c01d09a3e8b21e27d629f70ce21da9_ligand_2.pdbqt
 12 12 0 0 0
SMALL
GASTEIGER

@<TRIPOS>ATOM
      1  C          8.4260   -0.5810   -2.2000 C.3     1  UNL1        0.1270
      2  C          8.4000   -1.8800   -2.9120 C.2     1  UNL1        0.3030
      3  O          7.3150   -2.4310   -3.2210 O.2     1  UNL1       -0.2520
      4  O          9.5780   -2.5230   -3.2580 O.3     1  UNL1       -0.4810
      5  H         10.3810   -2.4720   -2.6260 H       1  UNL1        0.2960
      6  C          7.0280   -0.0420   -2.1520 C.3     1  UNL1        0.0470
      7  C          6.4880    0.0910   -0.8000 C.2     1  UNL1       -0.0470
      8  C          6.6310   -0.9240    0.1170 C.2     1  UNL1        0.0040
      9  C          5.8330    1.2490   -0.4500 C.2     1  UNL1        0.0040
     10  C          6.0910   -0.7280    1.3900 C.2     1  UNL1        0.0000
     11  C          5.2990    1.4410    0.8090 C.2     1  UNL1        0.0000
     12  C          5.4370    0.4290    1.7330 C.2     1  UNL1        0.0000
@<TRIPOS>BOND
     1     4     2    1
     2     4     5    1
     3     3     2    2
     4     2     1    1
     5     1     6    1
     6     6     7    1
     7     7     9    2
     8     7     8    1
     9     9    11    1
    10     8    10    2
    11    11    12    2
    12    10    12    1
