MODEL 1
REMARK VINA RESULT:      -7.4      0.000      0.000
REMARK SMILES O=C(O)CCc1ccccc1
REMARK SMILES IDX 4 1 2 2 1 3 3 4 5 6 6 7 7 8 11 9 8 10 10 11 9 12
REMARK H PARENT 3 5
REMARK Flexibility Score: inf
ROOT
ATOM      1  C   UNL     1       8.470  -0.616  -2.155  1.00  0.00     0.127 C 
ENDROOT
BRANCH   1   2
ATOM      2  C   UNL     1       8.490  -1.891  -2.910  1.00  0.00     0.303 C 
ATOM      3  O   UNL     1       9.560  -2.522  -3.092  1.00  0.00    -0.252 OA
BRANCH   2   4
ATOM      4  O   UNL     1       7.324  -2.422  -3.438  1.00  0.00    -0.481 OA
ATOM      5  H   UNL     1       7.325  -3.384  -3.787  1.00  0.00     0.296 HD
ENDBRANCH   2   4
ENDBRANCH   1   2
BRANCH   1   6
ATOM      6  C   UNL     1       7.065  -0.095  -2.147  1.00  0.00     0.047 C 
BRANCH   6   7
ATOM      7  C   UNL     1       6.501   0.073  -0.809  1.00  0.00    -0.047 A 
ATOM      8  C   UNL     1       6.616  -0.923   0.133  1.00  0.00     0.004 A 
ATOM      9  C   UNL     1       5.850   1.244  -0.497  1.00  0.00     0.004 A 
ATOM     10  C   UNL     1       6.054  -0.694   1.391  1.00  0.00     0.000 A 
ATOM     11  C   UNL     1       5.294   1.469   0.747  1.00  0.00     0.000 A 
ATOM     12  C   UNL     1       5.405   0.476   1.696  1.00  0.00     0.000 A 
ENDBRANCH   6   7
ENDBRANCH   1   6
TORSDOF 4
ENDMDL
MODEL 2
REMARK VINA RESULT:      -7.2      0.155      1.734
REMARK SMILES O=C(O)CCc1ccccc1
REMARK SMILES IDX 4 1 2 2 1 3 3 4 5 6 6 7 7 8 11 9 8 10 10 11 9 12
REMARK H PARENT 3 5
REMARK Flexibility Score: inf
ROOT
ATOM      1  C   UNL     1       8.367  -0.578  -2.157  1.00  0.00     0.127 C 
ENDROOT
BRANCH   1   2
ATOM      2  C   UNL     1       8.350  -1.859  -2.903  1.00  0.00     0.303 C 
ATOM      3  O   UNL     1       7.269  -2.391  -3.259  1.00  0.00    -0.252 OA
BRANCH   2   4
ATOM      4  O   UNL     1       9.531  -2.507  -3.228  1.00  0.00    -0.481 OA
ATOM      5  H   UNL     1       9.989  -3.095  -2.527  1.00  0.00     0.296 HD
ENDBRANCH   2   4
ENDBRANCH   1   2
BRANCH   1   6
ATOM      6  C   UNL     1       6.967  -0.045  -2.106  1.00  0.00     0.047 C 
BRANCH   6   7
ATOM      7  C   UNL     1       6.438   0.106  -0.752  1.00  0.00    -0.047 A 
ATOM      8  C   UNL     1       5.777   1.254  -0.380  1.00  0.00     0.004 A 
ATOM      9  C   UNL     1       6.604  -0.917   0.152  1.00  0.00     0.004 A 
ATOM     10  C   UNL     1       5.297   1.329   0.930  1.00  0.00     0.000 A 
ATOM     11  C   UNL     1       6.129  -0.841   1.446  1.00  0.00     0.000 A 
ATOM     12  C   UNL     1       5.467   0.306   1.828  1.00  0.00     0.000 A 
ENDBRANCH   6   7
ENDBRANCH   1   6
TORSDOF 4
ENDMDL
MODEL 3
REMARK VINA RESULT:      -6.7      3.335      5.044
REMARK SMILES O=C(O)CCc1ccccc1
REMARK SMILES IDX 4 1 2 2 1 3 3 4 5 6 6 7 7 8 11 9 8 10 10 11 9 12
REMARK H PARENT 3 5
REMARK Flexibility Score: inf
ROOT
ATOM      1  C   UNL     1       5.086   1.637   0.691  1.00  0.00     0.127 C 
ENDROOT
BRANCH   1   2
ATOM      2  C   UNL     1       4.607   0.990   1.936  1.00  0.00     0.303 C 
ATOM      3  O   UNL     1       5.302   0.130   2.531  1.00  0.00    -0.252 OA
BRANCH   2   4
ATOM      4  O   UNL     1       3.374   1.318   2.477  1.00  0.00    -0.481 OA
ATOM      5  H   UNL     1       3.297   2.136   3.088  1.00  0.00     0.296 HD
ENDBRANCH   2   4
ENDBRANCH   1   2
BRANCH   1   6
ATOM      6  C   UNL     1       6.584   1.659   0.719  1.00  0.00     0.047 C 
BRANCH   6   7
ATOM      7  C   UNL     1       7.210   0.908  -0.368  1.00  0.00    -0.047 A 
ATOM      8  C   UNL     1       8.499   1.183  -0.762  1.00  0.00     0.004 A 
ATOM      9  C   UNL     1       6.494  -0.086  -0.996  1.00  0.00     0.004 A 
ATOM     10  C   UNL     1       9.033   0.424  -1.806  1.00  0.00     0.000 A 
ATOM     11  C   UNL     1       7.024  -0.834  -2.028  1.00  0.00     0.000 A 
ATOM     12  C   UNL     1       8.314  -0.564  -2.430  1.00  0.00     0.000 A 
ENDBRANCH   6   7
ENDBRANCH   1   6
TORSDOF 4
ENDMDL
MODEL 4
REMARK VINA RESULT:      -6.6      1.996      2.660
REMARK SMILES O=C(O)CCc1ccccc1
REMARK SMILES IDX 4 1 2 2 1 3 3 4 5 6 6 7 7 8 11 9 8 10 10 11 9 12
REMARK H PARENT 3 5
REMARK Flexibility Score: inf
ROOT
ATOM      1  C   UNL     1       8.249   0.399  -1.958  1.00  0.00     0.127 C 
ENDROOT
BRANCH   1   2
ATOM      2  C   UNL     1       9.444   0.399  -1.082  1.00  0.00     0.303 C 
ATOM      3  O   UNL     1       9.528  -0.374  -0.096  1.00  0.00    -0.252 OA
BRANCH   2   4
ATOM      4  O   UNL     1      10.505   1.255  -1.329  1.00  0.00    -0.481 OA
ATOM      5  H   UNL     1      11.297   0.923  -1.886  1.00  0.00     0.296 HD
ENDBRANCH   2   4
ENDBRANCH   1   2
BRANCH   1   6
ATOM      6  C   UNL     1       7.218  -0.501  -1.348  1.00  0.00     0.047 C 
BRANCH   6   7
ATOM      7  C   UNL     1       6.387   0.148  -0.335  1.00  0.00    -0.047 A 
ATOM      8  C   UNL     1       5.813   1.375  -0.576  1.00  0.00     0.004 A 
ATOM      9  C   UNL     1       6.180  -0.484   0.869  1.00  0.00     0.004 A 
ATOM     10  C   UNL     1       5.031   1.935   0.436  1.00  0.00     0.000 A 
ATOM     11  C   UNL     1       5.407   0.071   1.869  1.00  0.00     0.000 A 
ATOM     12  C   UNL     1       4.829   1.300   1.636  1.00  0.00     0.000 A 
ENDBRANCH   6   7
ENDBRANCH   1   6
TORSDOF 4
ENDMDL
MODEL 5
REMARK VINA RESULT:      -6.5      2.008      2.843
REMARK SMILES O=C(O)CCc1ccccc1
REMARK SMILES IDX 4 1 2 2 1 3 3 4 5 6 6 7 7 8 11 9 8 10 10 11 9 12
REMARK H PARENT 3 5
REMARK Flexibility Score: inf
ROOT
ATOM      1  C   UNL     1       7.868  -2.386   0.775  1.00  0.00     0.127 C 
ENDROOT
BRANCH   1   2
ATOM      2  C   UNL     1       8.775  -3.433   0.250  1.00  0.00     0.303 C 
ATOM      3  O   UNL     1       8.694  -3.828  -0.940  1.00  0.00    -0.252 OA
BRANCH   2   4
ATOM      4  O   UNL     1       9.742  -4.007   1.060  1.00  0.00    -0.481 OA
ATOM      5  H   UNL     1      10.188  -3.439   1.786  1.00  0.00     0.296 HD
ENDBRANCH   2   4
ENDBRANCH   1   2
BRANCH   1   6
ATOM      6  C   UNL     1       7.515  -1.461  -0.350  1.00  0.00     0.047 C 
BRANCH   6   7
ATOM      7  C   UNL     1       6.639  -0.358   0.040  1.00  0.00    -0.047 A 
ATOM      8  C   UNL     1       6.352   0.658  -0.842  1.00  0.00     0.004 A 
ATOM      9  C   UNL     1       6.099  -0.344   1.305  1.00  0.00     0.004 A 
ATOM     10  C   UNL     1       5.507   1.679  -0.402  1.00  0.00     0.000 A 
ATOM     11  C   UNL     1       5.264   0.667   1.739  1.00  0.00     0.000 A 
ATOM     12  C   UNL     1       4.972   1.688   0.861  1.00  0.00     0.000 A 
ENDBRANCH   6   7
ENDBRANCH   1   6
TORSDOF 4
ENDMDL
