@<TRIPOS>MOLECULE
/home/cewinharhar/GITHUB/reincatalyze/data/processed/docking_pred/2023_Apr_20-15:07/544f4ddee7da09465e084ab518e20d4fbc72de61_ligand_2.pdbqt
 12 12 0 0 0
SMALL
GASTEIGER

@<TRIPOS>ATOM
      1  C          8.2490    0.3990   -1.9580 C.3     1  UNL1        0.1270
      2  C          9.4440    0.3990   -1.0820 C.2     1  UNL1        0.3030
      3  O          9.5280   -0.3740   -0.0960 O.2     1  UNL1       -0.2520
      4  O         10.5050    1.2550   -1.3290 O.3     1  UNL1       -0.4810
      5  H         11.2970    0.9230   -1.8860 H       1  UNL1        0.2960
      6  C          7.2180   -0.5010   -1.3480 C.3     1  UNL1        0.0470
      7  C          6.3870    0.1480   -0.3350 C.2     1  UNL1       -0.0470
      8  C          5.8130    1.3750   -0.5760 C.2     1  UNL1        0.0040
      9  C          6.1800   -0.4840    0.8690 C.2     1  UNL1        0.0040
     10  C          5.0310    1.9350    0.4360 C.2     1  UNL1        0.0000
     11  C          5.4070    0.0710    1.8690 C.2     1  UNL1        0.0000
     12  C          4.8290    1.3000    1.6360 C.2     1  UNL1        0.0000
@<TRIPOS>BOND
     1     1     6    1
     2     1     2    1
     3     5     4    1
     4     6     7    1
     5     4     2    1
     6     2     3    2
     7     8     7    2
     8     8    10    1
     9     7     9    1
    10    10    12    2
    11     9    11    2
    12    12    11    1
