@<TRIPOS>MOLECULE
/home/cewinharhar/GITHUB/reincatalyze/data/processed/docking_pred/2023_Apr_20-15:07/544f4ddee7da09465e084ab518e20d4fbc72de61_ligand_2.pdbqt
 12 12 0 0 0
SMALL
GASTEIGER

@<TRIPOS>ATOM
      1  C          5.0860    1.6370    0.6910 C.3     1  UNL1        0.1270
      2  C          4.6070    0.9900    1.9360 C.2     1  UNL1        0.3030
      3  O          5.3020    0.1300    2.5310 O.2     1  UNL1       -0.2520
      4  O          3.3740    1.3180    2.4770 O.3     1  UNL1       -0.4810
      5  H          3.2970    2.1360    3.0880 H       1  UNL1        0.2960
      6  C          6.5840    1.6590    0.7190 C.3     1  UNL1        0.0470
      7  C          7.2100    0.9080   -0.3680 C.2     1  UNL1       -0.0470
      8  C          8.4990    1.1830   -0.7620 C.2     1  UNL1        0.0040
      9  C          6.4940   -0.0860   -0.9960 C.2     1  UNL1        0.0040
     10  C          9.0330    0.4240   -1.8060 C.2     1  UNL1        0.0000
     11  C          7.0240   -0.8340   -2.0280 C.2     1  UNL1        0.0000
     12  C          8.3140   -0.5640   -2.4300 C.2     1  UNL1        0.0000
@<TRIPOS>BOND
     1    12    11    2
     2    12    10    1
     3    11     9    1
     4    10     8    2
     5     9     7    2
     6     8     7    1
     7     7     6    1
     8     1     6    1
     9     1     2    1
    10     2     4    1
    11     2     3    2
    12     4     5    1
