@<TRIPOS>MOLECULE
/home/cewinharhar/GITHUB/reincatalyze/data/processed/docking_pred/2023_Apr_20-15:07/544f4ddee7da09465e084ab518e20d4fbc72de61_ligand_2.pdbqt
 12 12 0 0 0
SMALL
GASTEIGER

@<TRIPOS>ATOM
      1  C          8.4700   -0.6160   -2.1550 C.3     1  UNL1        0.1270
      2  C          8.4900   -1.8910   -2.9100 C.2     1  UNL1        0.3030
      3  O          9.5600   -2.5220   -3.0920 O.2     1  UNL1       -0.2520
      4  O          7.3240   -2.4220   -3.4380 O.3     1  UNL1       -0.4810
      5  H          7.3250   -3.3840   -3.7870 H       1  UNL1        0.2960
      6  C          7.0650   -0.0950   -2.1470 C.3     1  UNL1        0.0470
      7  C          6.5010    0.0730   -0.8090 C.2     1  UNL1       -0.0470
      8  C          6.6160   -0.9230    0.1330 C.2     1  UNL1        0.0040
      9  C          5.8500    1.2440   -0.4970 C.2     1  UNL1        0.0040
     10  C          6.0540   -0.6940    1.3910 C.2     1  UNL1        0.0000
     11  C          5.2940    1.4690    0.7470 C.2     1  UNL1        0.0000
     12  C          5.4050    0.4760    1.6960 C.2     1  UNL1        0.0000
@<TRIPOS>BOND
     1     5     4    1
     2     4     2    1
     3     3     2    2
     4     2     1    1
     5     1     6    1
     6     6     7    1
     7     7     9    2
     8     7     8    1
     9     9    11    1
    10     8    10    2
    11    11    12    2
    12    10    12    1
