@<TRIPOS>MOLECULE
/home/cewinharhar/GITHUB/reincatalyze/data/processed/docking_pred/2023_Apr_20-15:07/544f4ddee7da09465e084ab518e20d4fbc72de61_ligand_2.pdbqt
 12 12 0 0 0
SMALL
GASTEIGER

@<TRIPOS>ATOM
      1  C          8.3670   -0.5780   -2.1570 C.3     1  UNL1        0.1270
      2  C          8.3500   -1.8590   -2.9030 C.2     1  UNL1        0.3030
      3  O          7.2690   -2.3910   -3.2590 O.2     1  UNL1       -0.2520
      4  O          9.5310   -2.5070   -3.2280 O.3     1  UNL1       -0.4810
      5  H          9.9890   -3.0950   -2.5270 H       1  UNL1        0.2960
      6  C          6.9670   -0.0450   -2.1060 C.3     1  UNL1        0.0470
      7  C          6.4380    0.1060   -0.7520 C.2     1  UNL1       -0.0470
      8  C          5.7770    1.2540   -0.3800 C.2     1  UNL1        0.0040
      9  C          6.6040   -0.9170    0.1520 C.2     1  UNL1        0.0040
     10  C          5.2970    1.3290    0.9300 C.2     1  UNL1        0.0000
     11  C          6.1290   -0.8410    1.4460 C.2     1  UNL1        0.0000
     12  C          5.4670    0.3060    1.8280 C.2     1  UNL1        0.0000
@<TRIPOS>BOND
     1     3     2    2
     2     4     2    1
     3     4     5    1
     4     2     1    1
     5     1     6    1
     6     6     7    1
     7     7     8    2
     8     7     9    1
     9     8    10    1
    10     9    11    2
    11    10    12    2
    12    11    12    1
