@<TRIPOS>MOLECULE
/home/cewinharhar/GITHUB/reincatalyze/data/processed/docking_pred/2023_Apr_20-15:07/544f4ddee7da09465e084ab518e20d4fbc72de61_ligand_2.pdbqt
 12 12 0 0 0
SMALL
GASTEIGER

@<TRIPOS>ATOM
      1  C          7.8680   -2.3860    0.7750 C.3     1  UNL1        0.1270
      2  C          8.7750   -3.4330    0.2500 C.2     1  UNL1        0.3030
      3  O          8.6940   -3.8280   -0.9400 O.2     1  UNL1       -0.2520
      4  O          9.7420   -4.0070    1.0600 O.3     1  UNL1       -0.4810
      5  H         10.1880   -3.4390    1.7860 H       1  UNL1        0.2960
      6  C          7.5150   -1.4610   -0.3500 C.3     1  UNL1        0.0470
      7  C          6.6390   -0.3580    0.0400 C.2     1  UNL1       -0.0470
      8  C          6.3520    0.6580   -0.8420 C.2     1  UNL1        0.0040
      9  C          6.0990   -0.3440    1.3050 C.2     1  UNL1        0.0040
     10  C          5.5070    1.6790   -0.4020 C.2     1  UNL1        0.0000
     11  C          5.2640    0.6670    1.7390 C.2     1  UNL1        0.0000
     12  C          4.9720    1.6880    0.8610 C.2     1  UNL1        0.0000
@<TRIPOS>BOND
     1     3     2    2
     2     8    10    1
     3     8     7    2
     4    10    12    2
     5     6     7    1
     6     6     1    1
     7     7     9    1
     8     2     1    1
     9     2     4    1
    10    12    11    1
    11     4     5    1
    12     9    11    2
