MODEL 1
REMARK VINA RESULT:      -7.3      0.000      0.000
REMARK SMILES O=C(O)CCc1ccccc1
REMARK SMILES IDX 4 1 2 2 1 3 3 4 5 6 6 7 7 8 11 9 8 10 10 11 9 12
REMARK H PARENT 3 5
REMARK Flexibility Score: inf
ROOT
ATOM      1  C   UNL     1       8.435  -0.574  -2.210  1.00  0.00     0.127 C 
ENDROOT
BRANCH   1   2
ATOM      2  C   UNL     1       8.489  -1.878  -2.911  1.00  0.00     0.303 C 
ATOM      3  O   UNL     1       9.579  -2.477  -3.088  1.00  0.00    -0.252 OA
BRANCH   2   4
ATOM      4  O   UNL     1       7.335  -2.474  -3.394  1.00  0.00    -0.481 OA
ATOM      5  H   UNL     1       6.867  -3.189  -2.830  1.00  0.00     0.296 HD
ENDBRANCH   2   4
ENDBRANCH   1   2
BRANCH   1   6
ATOM      6  C   UNL     1       7.006  -0.125  -2.160  1.00  0.00     0.047 C 
BRANCH   6   7
ATOM      7  C   UNL     1       6.485   0.051  -0.805  1.00  0.00    -0.047 A 
ATOM      8  C   UNL     1       5.860   1.221  -0.439  1.00  0.00     0.004 A 
ATOM      9  C   UNL     1       6.625  -0.969   0.106  1.00  0.00     0.004 A 
ATOM     10  C   UNL     1       5.386   1.320   0.871  1.00  0.00     0.000 A 
ATOM     11  C   UNL     1       6.156  -0.870   1.401  1.00  0.00     0.000 A 
ATOM     12  C   UNL     1       5.529   0.299   1.776  1.00  0.00     0.000 A 
ENDBRANCH   6   7
ENDBRANCH   1   6
TORSDOF 4
ENDMDL
MODEL 2
REMARK VINA RESULT:      -7.3      0.192      1.737
REMARK SMILES O=C(O)CCc1ccccc1
REMARK SMILES IDX 4 1 2 2 1 3 3 4 5 6 6 7 7 8 11 9 8 10 10 11 9 12
REMARK H PARENT 3 5
REMARK Flexibility Score: inf
ROOT
ATOM      1  C   UNL     1       8.436  -0.724  -2.006  1.00  0.00     0.127 C 
ENDROOT
BRANCH   1   2
ATOM      2  C   UNL     1       8.374  -1.926  -2.871  1.00  0.00     0.303 C 
ATOM      3  O   UNL     1       7.276  -2.381  -3.276  1.00  0.00    -0.252 OA
BRANCH   2   4
ATOM      4  O   UNL     1       9.532  -2.582  -3.258  1.00  0.00    -0.481 OA
ATOM      5  H   UNL     1      10.160  -2.954  -2.541  1.00  0.00     0.296 HD
ENDBRANCH   2   4
ENDBRANCH   1   2
BRANCH   1   6
ATOM      6  C   UNL     1       7.090  -0.064  -2.021  1.00  0.00     0.047 C 
BRANCH   6   7
ATOM      7  C   UNL     1       6.489   0.088  -0.697  1.00  0.00    -0.047 A 
ATOM      8  C   UNL     1       6.607  -0.904   0.248  1.00  0.00     0.004 A 
ATOM      9  C   UNL     1       5.801   1.242  -0.402  1.00  0.00     0.004 A 
ATOM     10  C   UNL     1       6.008  -0.690   1.491  1.00  0.00     0.000 A 
ATOM     11  C   UNL     1       5.209   1.453   0.828  1.00  0.00     0.000 A 
ATOM     12  C   UNL     1       5.322   0.463   1.780  1.00  0.00     0.000 A 
ENDBRANCH   6   7
ENDBRANCH   1   6
TORSDOF 4
ENDMDL
MODEL 3
REMARK VINA RESULT:      -7.2      0.516      1.521
REMARK SMILES O=C(O)CCc1ccccc1
REMARK SMILES IDX 4 1 2 2 1 3 3 4 5 6 6 7 7 8 11 9 8 10 10 11 9 12
REMARK H PARENT 3 5
REMARK Flexibility Score: inf
ROOT
ATOM      1  C   UNL     1       8.254  -1.155  -1.618  1.00  0.00     0.127 C 
ENDROOT
BRANCH   1   2
ATOM      2  C   UNL     1       8.362  -2.067  -2.781  1.00  0.00     0.303 C 
ATOM      3  O   UNL     1       9.476  -2.497  -3.171  1.00  0.00    -0.252 OA
BRANCH   2   4
ATOM      4  O   UNL     1       7.231  -2.470  -3.474  1.00  0.00    -0.481 OA
ATOM      5  H   UNL     1       6.871  -3.419  -3.335  1.00  0.00     0.296 HD
ENDBRANCH   2   4
ENDBRANCH   1   2
BRANCH   1   6
ATOM      6  C   UNL     1       7.117  -0.211  -1.863  1.00  0.00     0.047 C 
BRANCH   6   7
ATOM      7  C   UNL     1       6.414   0.200  -0.649  1.00  0.00    -0.047 A 
ATOM      8  C   UNL     1       6.404  -0.606   0.465  1.00  0.00     0.004 A 
ATOM      9  C   UNL     1       5.758   1.409  -0.630  1.00  0.00     0.004 A 
ATOM     10  C   UNL     1       5.713  -0.150   1.590  1.00  0.00     0.000 A 
ATOM     11  C   UNL     1       5.075   1.859   0.482  1.00  0.00     0.000 A 
ATOM     12  C   UNL     1       5.060   1.057   1.603  1.00  0.00     0.000 A 
ENDBRANCH   6   7
ENDBRANCH   1   6
TORSDOF 4
ENDMDL
MODEL 4
REMARK VINA RESULT:      -6.8      3.379      5.082
REMARK SMILES O=C(O)CCc1ccccc1
REMARK SMILES IDX 4 1 2 2 1 3 3 4 5 6 6 7 7 8 11 9 8 10 10 11 9 12
REMARK H PARENT 3 5
REMARK Flexibility Score: inf
ROOT
ATOM      1  C   UNL     1       5.007   1.794   0.720  1.00  0.00     0.127 C 
ENDROOT
BRANCH   1   2
ATOM      2  C   UNL     1       4.477   1.107   1.921  1.00  0.00     0.303 C 
ATOM      3  O   UNL     1       5.123   0.188   2.483  1.00  0.00    -0.252 OA
BRANCH   2   4
ATOM      4  O   UNL     1       3.250   1.460   2.458  1.00  0.00    -0.481 OA
ATOM      5  H   UNL     1       2.911   0.976   3.294  1.00  0.00     0.296 HD
ENDBRANCH   2   4
ENDBRANCH   1   2
BRANCH   1   6
ATOM      6  C   UNL     1       6.504   1.744   0.770  1.00  0.00     0.047 C 
BRANCH   6   7
ATOM      7  C   UNL     1       7.111   0.997  -0.330  1.00  0.00    -0.047 A 
ATOM      8  C   UNL     1       6.384   0.064  -1.033  1.00  0.00     0.004 A 
ATOM      9  C   UNL     1       8.424   1.239  -0.662  1.00  0.00     0.004 A 
ATOM     10  C   UNL     1       7.027  -0.611  -2.072  1.00  0.00     0.000 A 
ATOM     11  C   UNL     1       9.059   0.570  -1.689  1.00  0.00     0.000 A 
ATOM     12  C   UNL     1       8.338  -0.367  -2.397  1.00  0.00     0.000 A 
ENDBRANCH   6   7
ENDBRANCH   1   6
TORSDOF 4
ENDMDL
MODEL 5
REMARK VINA RESULT:      -6.6      1.920      2.314
REMARK SMILES O=C(O)CCc1ccccc1
REMARK SMILES IDX 4 1 2 2 1 3 3 4 5 6 6 7 7 8 11 9 8 10 10 11 9 12
REMARK H PARENT 3 5
REMARK Flexibility Score: inf
ROOT
ATOM      1  C   UNL     1       8.209   0.241  -2.236  1.00  0.00     0.127 C 
ENDROOT
BRANCH   1   2
ATOM      2  C   UNL     1       9.327   0.357  -1.271  1.00  0.00     0.303 C 
ATOM      3  O   UNL     1       9.421  -0.417  -0.286  1.00  0.00    -0.252 OA
BRANCH   2   4
ATOM      4  O   UNL     1      10.304   1.328  -1.429  1.00  0.00    -0.481 OA
ATOM      5  H   UNL     1      11.082   1.155  -2.072  1.00  0.00     0.296 HD
ENDBRANCH   2   4
ENDBRANCH   1   2
BRANCH   1   6
ATOM      6  C   UNL     1       7.081  -0.482  -1.564  1.00  0.00     0.047 C 
BRANCH   6   7
ATOM      7  C   UNL     1       6.310   0.347  -0.640  1.00  0.00    -0.047 A 
ATOM      8  C   UNL     1       5.805   1.563  -1.040  1.00  0.00     0.004 A 
ATOM      9  C   UNL     1       6.089  -0.103   0.641  1.00  0.00     0.004 A 
ATOM     10  C   UNL     1       5.077   2.301  -0.104  1.00  0.00     0.000 A 
ATOM     11  C   UNL     1       5.369   0.629   1.565  1.00  0.00     0.000 A 
ATOM     12  C   UNL     1       4.861   1.848   1.173  1.00  0.00     0.000 A 
ENDBRANCH   6   7
ENDBRANCH   1   6
TORSDOF 4
ENDMDL
