@<TRIPOS>MOLECULE
/home/cewinharhar/GITHUB/reincatalyze/data/processed/docking_pred/2023_Apr_20-15:07/54a2e3ceee1b2a6ac8591f20fd198e2f201bb612_ligand_2.pdbqt
 12 12 0 0 0
SMALL
GASTEIGER

@<TRIPOS>ATOM
      1  C          8.4350   -0.5740   -2.2100 C.3     1  UNL1        0.1270
      2  C          8.4890   -1.8780   -2.9110 C.2     1  UNL1        0.3030
      3  O          9.5790   -2.4770   -3.0880 O.2     1  UNL1       -0.2520
      4  O          7.3350   -2.4740   -3.3940 O.3     1  UNL1       -0.4810
      5  H          6.8670   -3.1890   -2.8300 H       1  UNL1        0.2960
      6  C          7.0060   -0.1250   -2.1600 C.3     1  UNL1        0.0470
      7  C          6.4850    0.0510   -0.8050 C.2     1  UNL1       -0.0470
      8  C          5.8600    1.2210   -0.4390 C.2     1  UNL1        0.0040
      9  C          6.6250   -0.9690    0.1060 C.2     1  UNL1        0.0040
     10  C          5.3860    1.3200    0.8710 C.2     1  UNL1        0.0000
     11  C          6.1560   -0.8700    1.4010 C.2     1  UNL1        0.0000
     12  C          5.5290    0.2990    1.7760 C.2     1  UNL1        0.0000
@<TRIPOS>BOND
     1     4     2    1
     2     4     5    1
     3     3     2    2
     4     2     1    1
     5     1     6    1
     6     6     7    1
     7     7     8    2
     8     7     9    1
     9     8    10    1
    10     9    11    2
    11    10    12    2
    12    11    12    1
