@<TRIPOS>MOLECULE
/home/cewinharhar/GITHUB/reincatalyze/data/processed/docking_pred/2023_Apr_20-15:07/54a2e3ceee1b2a6ac8591f20fd198e2f201bb612_ligand_2.pdbqt
 12 12 0 0 0
SMALL
GASTEIGER

@<TRIPOS>ATOM
      1  C          8.2540   -1.1550   -1.6180 C.3     1  UNL1        0.1270
      2  C          8.3620   -2.0670   -2.7810 C.2     1  UNL1        0.3030
      3  O          9.4760   -2.4970   -3.1710 O.2     1  UNL1       -0.2520
      4  O          7.2310   -2.4700   -3.4740 O.3     1  UNL1       -0.4810
      5  H          6.8710   -3.4190   -3.3350 H       1  UNL1        0.2960
      6  C          7.1170   -0.2110   -1.8630 C.3     1  UNL1        0.0470
      7  C          6.4140    0.2000   -0.6490 C.2     1  UNL1       -0.0470
      8  C          6.4040   -0.6060    0.4650 C.2     1  UNL1        0.0040
      9  C          5.7580    1.4090   -0.6300 C.2     1  UNL1        0.0040
     10  C          5.7130   -0.1500    1.5900 C.2     1  UNL1        0.0000
     11  C          5.0750    1.8590    0.4820 C.2     1  UNL1        0.0000
     12  C          5.0600    1.0570    1.6030 C.2     1  UNL1        0.0000
@<TRIPOS>BOND
     1     4     5    1
     2     4     2    1
     3     3     2    2
     4     2     1    1
     5     6     1    1
     6     6     7    1
     7     7     9    2
     8     7     8    1
     9     9    11    1
    10     8    10    2
    11    11    12    2
    12    10    12    1
