@<TRIPOS>MOLECULE
/home/cewinharhar/GITHUB/reincatalyze/data/processed/docking_pred/2023_Apr_20-15:07/54a2e3ceee1b2a6ac8591f20fd198e2f201bb612_ligand_2.pdbqt
 12 12 0 0 0
SMALL
GASTEIGER

@<TRIPOS>ATOM
      1  C          5.0070    1.7940    0.7200 C.3     1  UNL1        0.1270
      2  C          4.4770    1.1070    1.9210 C.2     1  UNL1        0.3030
      3  O          5.1230    0.1880    2.4830 O.2     1  UNL1       -0.2520
      4  O          3.2500    1.4600    2.4580 O.3     1  UNL1       -0.4810
      5  H          2.9110    0.9760    3.2940 H       1  UNL1        0.2960
      6  C          6.5040    1.7440    0.7700 C.3     1  UNL1        0.0470
      7  C          7.1110    0.9970   -0.3300 C.2     1  UNL1       -0.0470
      8  C          6.3840    0.0640   -1.0330 C.2     1  UNL1        0.0040
      9  C          8.4240    1.2390   -0.6620 C.2     1  UNL1        0.0040
     10  C          7.0270   -0.6110   -2.0720 C.2     1  UNL1        0.0000
     11  C          9.0590    0.5700   -1.6890 C.2     1  UNL1        0.0000
     12  C          8.3380   -0.3670   -2.3970 C.2     1  UNL1        0.0000
@<TRIPOS>BOND
     1    12    10    2
     2    12    11    1
     3    10     8    1
     4    11     9    2
     5     8     7    2
     6     9     7    1
     7     7     6    1
     8     1     6    1
     9     1     2    1
    10     2     4    1
    11     2     3    2
    12     4     5    1
