@<TRIPOS>MOLECULE
/home/cewinharhar/GITHUB/reincatalyze/data/processed/docking_pred/2023_Apr_20-15:07/54a2e3ceee1b2a6ac8591f20fd198e2f201bb612_ligand_2.pdbqt
 12 12 0 0 0
SMALL
GASTEIGER

@<TRIPOS>ATOM
      1  C          8.4360   -0.7240   -2.0060 C.3     1  UNL1        0.1270
      2  C          8.3740   -1.9260   -2.8710 C.2     1  UNL1        0.3030
      3  O          7.2760   -2.3810   -3.2760 O.2     1  UNL1       -0.2520
      4  O          9.5320   -2.5820   -3.2580 O.3     1  UNL1       -0.4810
      5  H         10.1600   -2.9540   -2.5410 H       1  UNL1        0.2960
      6  C          7.0900   -0.0640   -2.0210 C.3     1  UNL1        0.0470
      7  C          6.4890    0.0880   -0.6970 C.2     1  UNL1       -0.0470
      8  C          6.6070   -0.9040    0.2480 C.2     1  UNL1        0.0040
      9  C          5.8010    1.2420   -0.4020 C.2     1  UNL1        0.0040
     10  C          6.0080   -0.6900    1.4910 C.2     1  UNL1        0.0000
     11  C          5.2090    1.4530    0.8280 C.2     1  UNL1        0.0000
     12  C          5.3220    0.4630    1.7800 C.2     1  UNL1        0.0000
@<TRIPOS>BOND
     1     3     2    2
     2     4     2    1
     3     4     5    1
     4     2     1    1
     5     6     1    1
     6     6     7    1
     7     7     9    2
     8     7     8    1
     9     9    11    1
    10     8    10    2
    11    11    12    2
    12    10    12    1
