@<TRIPOS>MOLECULE
/home/cewinharhar/GITHUB/reincatalyze/data/processed/docking_pred/2023_Apr_20-15:07/54a2e3ceee1b2a6ac8591f20fd198e2f201bb612_ligand_2.pdbqt
 12 12 0 0 0
SMALL
GASTEIGER

@<TRIPOS>ATOM
      1  C          8.2090    0.2410   -2.2360 C.3     1  UNL1        0.1270
      2  C          9.3270    0.3570   -1.2710 C.2     1  UNL1        0.3030
      3  O          9.4210   -0.4170   -0.2860 O.2     1  UNL1       -0.2520
      4  O         10.3040    1.3280   -1.4290 O.3     1  UNL1       -0.4810
      5  H         11.0820    1.1550   -2.0720 H       1  UNL1        0.2960
      6  C          7.0810   -0.4820   -1.5640 C.3     1  UNL1        0.0470
      7  C          6.3100    0.3470   -0.6400 C.2     1  UNL1       -0.0470
      8  C          5.8050    1.5630   -1.0400 C.2     1  UNL1        0.0040
      9  C          6.0890   -0.1030    0.6410 C.2     1  UNL1        0.0040
     10  C          5.0770    2.3010   -0.1040 C.2     1  UNL1        0.0000
     11  C          5.3690    0.6290    1.5650 C.2     1  UNL1        0.0000
     12  C          4.8610    1.8480    1.1730 C.2     1  UNL1        0.0000
@<TRIPOS>BOND
     1     1     6    1
     2     1     2    1
     3     5     4    1
     4     6     7    1
     5     4     2    1
     6     2     3    2
     7     8     7    2
     8     8    10    1
     9     7     9    1
    10    10    12    2
    11     9    11    2
    12    12    11    1
