@<TRIPOS>MOLECULE
/home/cewinharhar/GITHUB/reincatalyze/data/processed/docking_pred/2023_Apr_20-15:07/54c3cf531f582f2d935f1daccafc2f163e83168d_ligand_2.pdbqt
 12 12 0 0 0
SMALL
GASTEIGER

@<TRIPOS>ATOM
      1  C          8.1540    0.3450   -2.0690 C.3     1  UNL1        0.1270
      2  C          9.3470    0.4010   -1.1920 C.2     1  UNL1        0.3030
      3  O          9.4720   -0.3760   -0.2130 O.2     1  UNL1       -0.2520
      4  O         10.3610    1.3150   -1.4290 O.3     1  UNL1       -0.4810
      5  H         10.1190    2.2840   -1.6520 H       1  UNL1        0.2960
      6  C          7.1220   -0.5160   -1.4070 C.3     1  UNL1        0.0470
      7  C          6.3320    0.1780   -0.3920 C.2     1  UNL1       -0.0470
      8  C          5.7840    1.4140   -0.6500 C.2     1  UNL1        0.0040
      9  C          6.1370   -0.4190    0.8320 C.2     1  UNL1        0.0040
     10  C          5.0400    2.0180    0.3660 C.2     1  UNL1        0.0000
     11  C          5.4010    0.1790    1.8350 C.2     1  UNL1        0.0000
     12  C          4.8500    1.4170    1.5850 C.2     1  UNL1        0.0000
@<TRIPOS>BOND
     1     1     6    1
     2     1     2    1
     3     5     4    1
     4     4     2    1
     5     6     7    1
     6     2     3    2
     7     8     7    2
     8     8    10    1
     9     7     9    1
    10    10    12    2
    11     9    11    2
    12    12    11    1
