@<TRIPOS>MOLECULE
/home/cewinharhar/GITHUB/reincatalyze/data/processed/docking_pred/2023_Apr_20-15:07/54c3cf531f582f2d935f1daccafc2f163e83168d_ligand_2.pdbqt
 12 12 0 0 0
SMALL
GASTEIGER

@<TRIPOS>ATOM
      1  C          5.0740    1.7320    0.7100 C.3     1  UNL1        0.1270
      2  C          4.5850    1.0360    1.9240 C.2     1  UNL1        0.3030
      3  O          5.2730    0.1500    2.4880 O.2     1  UNL1       -0.2520
      4  O          3.3490    1.3450    2.4700 O.3     1  UNL1       -0.4810
      5  H          3.2580    2.1720    3.0660 H       1  UNL1        0.2960
      6  C          6.5720    1.7390    0.7430 C.3     1  UNL1        0.0470
      7  C          7.1940    0.9950   -0.3510 C.2     1  UNL1       -0.0470
      8  C          8.5090    1.2120   -0.6910 C.2     1  UNL1        0.0040
      9  C          6.4490    0.0680   -1.0410 C.2     1  UNL1        0.0040
     10  C          9.0380    0.4660   -1.7460 C.2     1  UNL1        0.0000
     11  C          6.9730   -0.6700   -2.0840 C.2     1  UNL1        0.0000
     12  C          8.2900   -0.4570   -2.4320 C.2     1  UNL1        0.0000
@<TRIPOS>BOND
     1    12    11    2
     2    12    10    1
     3    11     9    1
     4    10     8    2
     5     9     7    2
     6     8     7    1
     7     7     6    1
     8     1     6    1
     9     1     2    1
    10     2     4    1
    11     2     3    2
    12     4     5    1
