@<TRIPOS>MOLECULE
/home/cewinharhar/GITHUB/reincatalyze/data/processed/docking_pred/2023_Apr_20-15:07/54c3cf531f582f2d935f1daccafc2f163e83168d_ligand_2.pdbqt
 12 12 0 0 0
SMALL
GASTEIGER

@<TRIPOS>ATOM
      1  C          5.3120    2.8440    0.1370 C.3     1  UNL1        0.1270
      2  C          6.1630    3.7900    0.8970 C.2     1  UNL1        0.3030
      3  O          6.2510    3.7250    2.1480 O.2     1  UNL1       -0.2520
      4  O          6.8870    4.7750    0.2450 O.3     1  UNL1       -0.4810
      5  H          6.5420    5.7390    0.2540 H       1  UNL1        0.2960
      6  C          5.3310    1.5220    0.8420 C.3     1  UNL1        0.0470
      7  C          6.0770    0.4820    0.1360 C.2     1  UNL1       -0.0470
      8  C          6.5260   -0.6360    0.7990 C.2     1  UNL1        0.0040
      9  C          6.3250    0.6310   -1.2090 C.2     1  UNL1        0.0040
     10  C          7.2310   -1.5890    0.0610 C.2     1  UNL1        0.0000
     11  C          7.0220   -0.3120   -1.9380 C.2     1  UNL1        0.0000
     12  C          7.4760   -1.4350   -1.2810 C.2     1  UNL1        0.0000
@<TRIPOS>BOND
     1    11    12    2
     2    11     9    1
     3    12    10    1
     4     9     7    2
     5    10     8    2
     6     7     8    1
     7     7     6    1
     8     1     6    1
     9     1     2    1
    10     4     5    1
    11     4     2    1
    12     2     3    2
