@<TRIPOS>MOLECULE
/home/cewinharhar/GITHUB/reincatalyze/data/processed/docking_pred/2023_Apr_20-15:07/54c3cf531f582f2d935f1daccafc2f163e83168d_ligand_2.pdbqt
 12 12 0 0 0
SMALL
GASTEIGER

@<TRIPOS>ATOM
      1  C          8.4610   -0.6270   -2.1390 C.3     1  UNL1        0.1270
      2  C          8.4880   -1.9010   -2.8960 C.2     1  UNL1        0.3030
      3  O          9.5640   -2.5180   -3.0920 O.2     1  UNL1       -0.2520
      4  O          7.3220   -2.4470   -3.4090 O.3     1  UNL1       -0.4810
      5  H          6.9010   -3.2550   -2.9430 H       1  UNL1        0.2960
      6  C          7.0510   -0.1210   -2.1190 C.3     1  UNL1        0.0470
      7  C          6.4950    0.0360   -0.7760 C.2     1  UNL1       -0.0470
      8  C          6.6180   -0.9650    0.1580 C.2     1  UNL1        0.0040
      9  C          5.8440    1.2040   -0.4520 C.2     1  UNL1        0.0040
     10  C          6.0640   -0.7460    1.4210 C.2     1  UNL1        0.0000
     11  C          5.2960    1.4190    0.7970 C.2     1  UNL1        0.0000
     12  C          5.4150    0.4200    1.7390 C.2     1  UNL1        0.0000
@<TRIPOS>BOND
     1     4     5    1
     2     4     2    1
     3     3     2    2
     4     2     1    1
     5     1     6    1
     6     6     7    1
     7     7     9    2
     8     7     8    1
     9     9    11    1
    10     8    10    2
    11    11    12    2
    12    10    12    1
