@<TRIPOS>MOLECULE
/home/cewinharhar/GITHUB/reincatalyze/data/processed/docking_pred/2023_Apr_20-15:07/54c3cf531f582f2d935f1daccafc2f163e83168d_ligand_2.pdbqt
 12 12 0 0 0
SMALL
GASTEIGER

@<TRIPOS>ATOM
      1  C          8.4770   -0.6690   -2.0910 C.3     1  UNL1        0.1270
      2  C          8.4860   -1.9170   -2.8900 C.2     1  UNL1        0.3030
      3  O          9.5520   -2.5440   -3.1060 O.2     1  UNL1       -0.2520
      4  O          7.3130   -2.4280   -3.4220 O.3     1  UNL1       -0.4810
      5  H          6.4570   -2.4050   -2.8610 H       1  UNL1        0.2960
      6  C          7.0910   -0.1010   -2.1210 C.3     1  UNL1        0.0470
      7  C          6.5010    0.0990   -0.7980 C.2     1  UNL1       -0.0470
      8  C          5.8410    1.2660   -0.4910 C.2     1  UNL1        0.0040
      9  C          6.6110   -0.8990    0.1430 C.2     1  UNL1        0.0040
     10  C          5.3020    1.3870    0.7910 C.2     1  UNL1        0.0000
     11  C          6.0770   -0.7770    1.4100 C.2     1  UNL1        0.0000
     12  C          5.4150    0.3900    1.7260 C.2     1  UNL1        0.0000
@<TRIPOS>BOND
     1     4     2    1
     2     4     5    1
     3     3     2    2
     4     2     1    1
     5     6     1    1
     6     6     7    1
     7     7     8    2
     8     7     9    1
     9     8    10    1
    10     9    11    2
    11    10    12    2
    12    11    12    1
