MODEL 1
REMARK VINA RESULT:      -7.4      0.000      0.000
REMARK SMILES O=C(O)CCc1ccccc1
REMARK SMILES IDX 4 1 2 2 1 3 3 4 5 6 6 7 7 8 11 9 8 10 10 11 9 12
REMARK H PARENT 3 5
REMARK Flexibility Score: inf
ROOT
ATOM      1  C   UNL     1       8.461  -0.627  -2.139  1.00  0.00     0.127 C 
ENDROOT
BRANCH   1   2
ATOM      2  C   UNL     1       8.488  -1.901  -2.896  1.00  0.00     0.303 C 
ATOM      3  O   UNL     1       9.564  -2.518  -3.092  1.00  0.00    -0.252 OA
BRANCH   2   4
ATOM      4  O   UNL     1       7.322  -2.447  -3.409  1.00  0.00    -0.481 OA
ATOM      5  H   UNL     1       6.901  -3.255  -2.943  1.00  0.00     0.296 HD
ENDBRANCH   2   4
ENDBRANCH   1   2
BRANCH   1   6
ATOM      6  C   UNL     1       7.051  -0.121  -2.119  1.00  0.00     0.047 C 
BRANCH   6   7
ATOM      7  C   UNL     1       6.495   0.036  -0.776  1.00  0.00    -0.047 A 
ATOM      8  C   UNL     1       6.618  -0.965   0.158  1.00  0.00     0.004 A 
ATOM      9  C   UNL     1       5.844   1.204  -0.452  1.00  0.00     0.004 A 
ATOM     10  C   UNL     1       6.064  -0.746   1.421  1.00  0.00     0.000 A 
ATOM     11  C   UNL     1       5.296   1.419   0.797  1.00  0.00     0.000 A 
ATOM     12  C   UNL     1       5.415   0.420   1.739  1.00  0.00     0.000 A 
ENDBRANCH   6   7
ENDBRANCH   1   6
TORSDOF 4
ENDMDL
MODEL 2
REMARK VINA RESULT:      -7.4      0.049      1.437
REMARK SMILES O=C(O)CCc1ccccc1
REMARK SMILES IDX 4 1 2 2 1 3 3 4 5 6 6 7 7 8 11 9 8 10 10 11 9 12
REMARK H PARENT 3 5
REMARK Flexibility Score: inf
ROOT
ATOM      1  C   UNL     1       8.477  -0.669  -2.091  1.00  0.00     0.127 C 
ENDROOT
BRANCH   1   2
ATOM      2  C   UNL     1       8.486  -1.917  -2.890  1.00  0.00     0.303 C 
ATOM      3  O   UNL     1       9.552  -2.544  -3.106  1.00  0.00    -0.252 OA
BRANCH   2   4
ATOM      4  O   UNL     1       7.313  -2.428  -3.422  1.00  0.00    -0.481 OA
ATOM      5  H   UNL     1       6.457  -2.405  -2.861  1.00  0.00     0.296 HD
ENDBRANCH   2   4
ENDBRANCH   1   2
BRANCH   1   6
ATOM      6  C   UNL     1       7.091  -0.101  -2.121  1.00  0.00     0.047 C 
BRANCH   6   7
ATOM      7  C   UNL     1       6.501   0.099  -0.798  1.00  0.00    -0.047 A 
ATOM      8  C   UNL     1       5.841   1.266  -0.491  1.00  0.00     0.004 A 
ATOM      9  C   UNL     1       6.611  -0.899   0.143  1.00  0.00     0.004 A 
ATOM     10  C   UNL     1       5.302   1.387   0.791  1.00  0.00     0.000 A 
ATOM     11  C   UNL     1       6.077  -0.777   1.410  1.00  0.00     0.000 A 
ATOM     12  C   UNL     1       5.415   0.390   1.726  1.00  0.00     0.000 A 
ENDBRANCH   6   7
ENDBRANCH   1   6
TORSDOF 4
ENDMDL
MODEL 3
REMARK VINA RESULT:      -6.7      3.339      5.049
REMARK SMILES O=C(O)CCc1ccccc1
REMARK SMILES IDX 4 1 2 2 1 3 3 4 5 6 6 7 7 8 11 9 8 10 10 11 9 12
REMARK H PARENT 3 5
REMARK Flexibility Score: inf
ROOT
ATOM      1  C   UNL     1       5.074   1.732   0.710  1.00  0.00     0.127 C 
ENDROOT
BRANCH   1   2
ATOM      2  C   UNL     1       4.585   1.036   1.924  1.00  0.00     0.303 C 
ATOM      3  O   UNL     1       5.273   0.150   2.488  1.00  0.00    -0.252 OA
BRANCH   2   4
ATOM      4  O   UNL     1       3.349   1.345   2.470  1.00  0.00    -0.481 OA
ATOM      5  H   UNL     1       3.258   2.172   3.066  1.00  0.00     0.296 HD
ENDBRANCH   2   4
ENDBRANCH   1   2
BRANCH   1   6
ATOM      6  C   UNL     1       6.572   1.739   0.743  1.00  0.00     0.047 C 
BRANCH   6   7
ATOM      7  C   UNL     1       7.194   0.995  -0.351  1.00  0.00    -0.047 A 
ATOM      8  C   UNL     1       8.509   1.212  -0.691  1.00  0.00     0.004 A 
ATOM      9  C   UNL     1       6.449   0.068  -1.041  1.00  0.00     0.004 A 
ATOM     10  C   UNL     1       9.038   0.466  -1.746  1.00  0.00     0.000 A 
ATOM     11  C   UNL     1       6.973  -0.670  -2.084  1.00  0.00     0.000 A 
ATOM     12  C   UNL     1       8.290  -0.457  -2.432  1.00  0.00     0.000 A 
ENDBRANCH   6   7
ENDBRANCH   1   6
TORSDOF 4
ENDMDL
MODEL 4
REMARK VINA RESULT:      -6.7      1.953      2.632
REMARK SMILES O=C(O)CCc1ccccc1
REMARK SMILES IDX 4 1 2 2 1 3 3 4 5 6 6 7 7 8 11 9 8 10 10 11 9 12
REMARK H PARENT 3 5
REMARK Flexibility Score: inf
ROOT
ATOM      1  C   UNL     1       8.154   0.345  -2.069  1.00  0.00     0.127 C 
ENDROOT
BRANCH   1   2
ATOM      2  C   UNL     1       9.347   0.401  -1.192  1.00  0.00     0.303 C 
ATOM      3  O   UNL     1       9.472  -0.376  -0.213  1.00  0.00    -0.252 OA
BRANCH   2   4
ATOM      4  O   UNL     1      10.361   1.315  -1.429  1.00  0.00    -0.481 OA
ATOM      5  H   UNL     1      10.119   2.284  -1.652  1.00  0.00     0.296 HD
ENDBRANCH   2   4
ENDBRANCH   1   2
BRANCH   1   6
ATOM      6  C   UNL     1       7.122  -0.516  -1.407  1.00  0.00     0.047 C 
BRANCH   6   7
ATOM      7  C   UNL     1       6.332   0.178  -0.392  1.00  0.00    -0.047 A 
ATOM      8  C   UNL     1       5.784   1.414  -0.650  1.00  0.00     0.004 A 
ATOM      9  C   UNL     1       6.137  -0.419   0.832  1.00  0.00     0.004 A 
ATOM     10  C   UNL     1       5.040   2.018   0.366  1.00  0.00     0.000 A 
ATOM     11  C   UNL     1       5.401   0.179   1.835  1.00  0.00     0.000 A 
ATOM     12  C   UNL     1       4.850   1.417   1.585  1.00  0.00     0.000 A 
ENDBRANCH   6   7
ENDBRANCH   1   6
TORSDOF 4
ENDMDL
MODEL 5
REMARK VINA RESULT:      -6.5      3.691      4.990
REMARK SMILES O=C(O)CCc1ccccc1
REMARK SMILES IDX 4 1 2 2 1 3 3 4 5 6 6 7 7 8 11 9 8 10 10 11 9 12
REMARK H PARENT 3 5
REMARK Flexibility Score: inf
ROOT
ATOM      1  C   UNL     1       5.312   2.844   0.137  1.00  0.00     0.127 C 
ENDROOT
BRANCH   1   2
ATOM      2  C   UNL     1       6.163   3.790   0.897  1.00  0.00     0.303 C 
ATOM      3  O   UNL     1       6.251   3.725   2.148  1.00  0.00    -0.252 OA
BRANCH   2   4
ATOM      4  O   UNL     1       6.887   4.775   0.245  1.00  0.00    -0.481 OA
ATOM      5  H   UNL     1       6.542   5.739   0.254  1.00  0.00     0.296 HD
ENDBRANCH   2   4
ENDBRANCH   1   2
BRANCH   1   6
ATOM      6  C   UNL     1       5.331   1.522   0.842  1.00  0.00     0.047 C 
BRANCH   6   7
ATOM      7  C   UNL     1       6.077   0.482   0.136  1.00  0.00    -0.047 A 
ATOM      8  C   UNL     1       6.526  -0.636   0.799  1.00  0.00     0.004 A 
ATOM      9  C   UNL     1       6.325   0.631  -1.209  1.00  0.00     0.004 A 
ATOM     10  C   UNL     1       7.231  -1.589   0.061  1.00  0.00     0.000 A 
ATOM     11  C   UNL     1       7.022  -0.312  -1.938  1.00  0.00     0.000 A 
ATOM     12  C   UNL     1       7.476  -1.435  -1.281  1.00  0.00     0.000 A 
ENDBRANCH   6   7
ENDBRANCH   1   6
TORSDOF 4
ENDMDL
