@<TRIPOS>MOLECULE
/home/cewinharhar/GITHUB/reincatalyze/data/processed/docking_pred/2023_Apr_20-15:07/551c5941f3bf749be32b1159c48b101be233bdbe_ligand_2.pdbqt
 12 12 0 0 0
SMALL
GASTEIGER

@<TRIPOS>ATOM
      1  C          8.2050    0.2430   -2.2070 C.3     1  UNL1        0.1270
      2  C          9.3340    0.3630   -1.2550 C.2     1  UNL1        0.3030
      3  O          9.4430   -0.4120   -0.2730 O.2     1  UNL1       -0.2520
      4  O         10.3050    1.3370   -1.4250 O.3     1  UNL1       -0.4810
      5  H         10.0300    2.3230   -1.4220 H       1  UNL1        0.2960
      6  C          7.1040   -0.5220   -1.5370 C.3     1  UNL1        0.0470
      7  C          6.3310    0.2660   -0.5780 C.2     1  UNL1       -0.0470
      8  C          6.1260   -0.1890    0.7040 C.2     1  UNL1        0.0040
      9  C          5.8080    1.4760   -0.9710 C.2     1  UNL1        0.0040
     10  C          5.3790    0.6170    1.5660 C.2     1  UNL1        0.0000
     11  C          5.0690    2.2710   -0.1180 C.2     1  UNL1        0.0000
     12  C          4.8590    1.8220    1.1680 C.2     1  UNL1        0.0000
@<TRIPOS>BOND
     1     1     6    1
     2     1     2    1
     3     6     7    1
     4     4     5    1
     5     4     2    1
     6     2     3    2
     7     9     7    2
     8     9    11    1
     9     7     8    1
    10    11    12    2
    11     8    10    2
    12    12    10    1
