@<TRIPOS>MOLECULE
/home/cewinharhar/GITHUB/reincatalyze/data/processed/docking_pred/2023_Apr_20-15:07/551c5941f3bf749be32b1159c48b101be233bdbe_ligand_2.pdbqt
 12 12 0 0 0
SMALL
GASTEIGER

@<TRIPOS>ATOM
      1  C          8.4240   -0.5400   -2.2220 C.3     1  UNL1        0.1270
      2  C          8.5080   -1.8420   -2.9250 C.2     1  UNL1        0.3030
      3  O          9.6090   -2.4210   -3.0930 O.2     1  UNL1       -0.2520
      4  O          7.3680   -2.4580   -3.4180 O.3     1  UNL1       -0.4810
      5  H          7.2870   -3.4770   -3.3640 H       1  UNL1        0.2960
      6  C          6.9860   -0.1200   -2.1800 C.3     1  UNL1        0.0470
      7  C          6.4620    0.0710   -0.8290 C.2     1  UNL1       -0.0470
      8  C          5.8300    1.2420   -0.4780 C.2     1  UNL1        0.0040
      9  C          6.6050   -0.9380    0.0960 C.2     1  UNL1        0.0040
     10  C          5.3530    1.3550    0.8290 C.2     1  UNL1        0.0000
     11  C          6.1330   -0.8240    1.3880 C.2     1  UNL1        0.0000
     12  C          5.4990    0.3450    1.7480 C.2     1  UNL1        0.0000
@<TRIPOS>BOND
     1     4     5    1
     2     4     2    1
     3     3     2    2
     4     2     1    1
     5     1     6    1
     6     6     7    1
     7     7     8    2
     8     7     9    1
     9     8    10    1
    10     9    11    2
    11    10    12    2
    12    11    12    1
