@<TRIPOS>MOLECULE
/home/cewinharhar/GITHUB/reincatalyze/data/processed/docking_pred/2023_Apr_20-15:07/551c5941f3bf749be32b1159c48b101be233bdbe_ligand_2.pdbqt
 12 12 0 0 0
SMALL
GASTEIGER

@<TRIPOS>ATOM
      1  C          5.0050    1.7860    0.7170 C.3     1  UNL1        0.1270
      2  C          4.4750    1.1080    1.9230 C.2     1  UNL1        0.3030
      3  O          5.1210    0.1940    2.4930 O.2     1  UNL1       -0.2520
      4  O          3.2470    1.4650    2.4570 O.3     1  UNL1       -0.4810
      5  H          2.7570    0.8080    3.0700 H       1  UNL1        0.2960
      6  C          6.5020    1.7380    0.7700 C.3     1  UNL1        0.0470
      7  C          7.1120    0.9920   -0.3300 C.2     1  UNL1       -0.0470
      8  C          6.3880    0.0580   -1.0330 C.2     1  UNL1        0.0040
      9  C          8.4250    1.2370   -0.6600 C.2     1  UNL1        0.0040
     10  C          7.0340   -0.6160   -2.0720 C.2     1  UNL1        0.0000
     11  C          9.0630    0.5700   -1.6870 C.2     1  UNL1        0.0000
     12  C          8.3440   -0.3680   -2.3960 C.2     1  UNL1        0.0000
@<TRIPOS>BOND
     1    12    10    2
     2    12    11    1
     3    10     8    1
     4    11     9    2
     5     8     7    2
     6     9     7    1
     7     7     6    1
     8     1     6    1
     9     1     2    1
    10     2     4    1
    11     2     3    2
    12     4     5    1
