MODEL 1
REMARK VINA RESULT:      -7.3      0.000      0.000
REMARK SMILES O=C(O)CCc1ccccc1
REMARK SMILES IDX 4 1 2 2 1 3 3 4 5 6 6 7 7 8 11 9 8 10 10 11 9 12
REMARK H PARENT 3 5
REMARK Flexibility Score: inf
ROOT
ATOM      1  C   UNL     1       8.459  -0.643  -2.108  1.00  0.00     0.127 C 
ENDROOT
BRANCH   1   2
ATOM      2  C   UNL     1       8.481  -1.913  -2.871  1.00  0.00     0.303 C 
ATOM      3  O   UNL     1       9.552  -2.541  -3.060  1.00  0.00    -0.252 OA
BRANCH   2   4
ATOM      4  O   UNL     1       7.315  -2.444  -3.400  1.00  0.00    -0.481 OA
ATOM      5  H   UNL     1       6.973  -2.101  -4.302  1.00  0.00     0.296 HD
ENDBRANCH   2   4
ENDBRANCH   1   2
BRANCH   1   6
ATOM      6  C   UNL     1       7.052  -0.129  -2.090  1.00  0.00     0.047 C 
BRANCH   6   7
ATOM      7  C   UNL     1       6.495   0.030  -0.748  1.00  0.00    -0.047 A 
ATOM      8  C   UNL     1       6.604  -0.977   0.183  1.00  0.00     0.004 A 
ATOM      9  C   UNL     1       5.857   1.204  -0.420  1.00  0.00     0.004 A 
ATOM     10  C   UNL     1       6.049  -0.756   1.445  1.00  0.00     0.000 A 
ATOM     11  C   UNL     1       5.308   1.420   0.828  1.00  0.00     0.000 A 
ATOM     12  C   UNL     1       5.413   0.416   1.766  1.00  0.00     0.000 A 
ENDBRANCH   6   7
ENDBRANCH   1   6
TORSDOF 4
ENDMDL
MODEL 2
REMARK VINA RESULT:      -7.3      0.107      1.440
REMARK SMILES O=C(O)CCc1ccccc1
REMARK SMILES IDX 4 1 2 2 1 3 3 4 5 6 6 7 7 8 11 9 8 10 10 11 9 12
REMARK H PARENT 3 5
REMARK Flexibility Score: inf
ROOT
ATOM      1  C   UNL     1       8.424  -0.540  -2.222  1.00  0.00     0.127 C 
ENDROOT
BRANCH   1   2
ATOM      2  C   UNL     1       8.508  -1.842  -2.925  1.00  0.00     0.303 C 
ATOM      3  O   UNL     1       9.609  -2.421  -3.093  1.00  0.00    -0.252 OA
BRANCH   2   4
ATOM      4  O   UNL     1       7.368  -2.458  -3.418  1.00  0.00    -0.481 OA
ATOM      5  H   UNL     1       7.287  -3.477  -3.364  1.00  0.00     0.296 HD
ENDBRANCH   2   4
ENDBRANCH   1   2
BRANCH   1   6
ATOM      6  C   UNL     1       6.986  -0.120  -2.180  1.00  0.00     0.047 C 
BRANCH   6   7
ATOM      7  C   UNL     1       6.462   0.071  -0.829  1.00  0.00    -0.047 A 
ATOM      8  C   UNL     1       5.830   1.242  -0.478  1.00  0.00     0.004 A 
ATOM      9  C   UNL     1       6.605  -0.938   0.096  1.00  0.00     0.004 A 
ATOM     10  C   UNL     1       5.353   1.355   0.829  1.00  0.00     0.000 A 
ATOM     11  C   UNL     1       6.133  -0.824   1.388  1.00  0.00     0.000 A 
ATOM     12  C   UNL     1       5.499   0.345   1.748  1.00  0.00     0.000 A 
ENDBRANCH   6   7
ENDBRANCH   1   6
TORSDOF 4
ENDMDL
MODEL 3
REMARK VINA RESULT:      -6.8      3.370      5.061
REMARK SMILES O=C(O)CCc1ccccc1
REMARK SMILES IDX 4 1 2 2 1 3 3 4 5 6 6 7 7 8 11 9 8 10 10 11 9 12
REMARK H PARENT 3 5
REMARK Flexibility Score: inf
ROOT
ATOM      1  C   UNL     1       5.005   1.786   0.717  1.00  0.00     0.127 C 
ENDROOT
BRANCH   1   2
ATOM      2  C   UNL     1       4.475   1.108   1.923  1.00  0.00     0.303 C 
ATOM      3  O   UNL     1       5.121   0.194   2.493  1.00  0.00    -0.252 OA
BRANCH   2   4
ATOM      4  O   UNL     1       3.247   1.465   2.457  1.00  0.00    -0.481 OA
ATOM      5  H   UNL     1       2.757   0.808   3.070  1.00  0.00     0.296 HD
ENDBRANCH   2   4
ENDBRANCH   1   2
BRANCH   1   6
ATOM      6  C   UNL     1       6.502   1.738   0.770  1.00  0.00     0.047 C 
BRANCH   6   7
ATOM      7  C   UNL     1       7.112   0.992  -0.330  1.00  0.00    -0.047 A 
ATOM      8  C   UNL     1       6.388   0.058  -1.033  1.00  0.00     0.004 A 
ATOM      9  C   UNL     1       8.425   1.237  -0.660  1.00  0.00     0.004 A 
ATOM     10  C   UNL     1       7.034  -0.616  -2.072  1.00  0.00     0.000 A 
ATOM     11  C   UNL     1       9.063   0.570  -1.687  1.00  0.00     0.000 A 
ATOM     12  C   UNL     1       8.344  -0.368  -2.396  1.00  0.00     0.000 A 
ENDBRANCH   6   7
ENDBRANCH   1   6
TORSDOF 4
ENDMDL
MODEL 4
REMARK VINA RESULT:      -6.6      1.914      2.288
REMARK SMILES O=C(O)CCc1ccccc1
REMARK SMILES IDX 4 1 2 2 1 3 3 4 5 6 6 7 7 8 11 9 8 10 10 11 9 12
REMARK H PARENT 3 5
REMARK Flexibility Score: inf
ROOT
ATOM      1  C   UNL     1       8.205   0.243  -2.207  1.00  0.00     0.127 C 
ENDROOT
BRANCH   1   2
ATOM      2  C   UNL     1       9.334   0.363  -1.255  1.00  0.00     0.303 C 
ATOM      3  O   UNL     1       9.443  -0.412  -0.273  1.00  0.00    -0.252 OA
BRANCH   2   4
ATOM      4  O   UNL     1      10.305   1.337  -1.425  1.00  0.00    -0.481 OA
ATOM      5  H   UNL     1      10.030   2.323  -1.422  1.00  0.00     0.296 HD
ENDBRANCH   2   4
ENDBRANCH   1   2
BRANCH   1   6
ATOM      6  C   UNL     1       7.104  -0.522  -1.537  1.00  0.00     0.047 C 
BRANCH   6   7
ATOM      7  C   UNL     1       6.331   0.266  -0.578  1.00  0.00    -0.047 A 
ATOM      8  C   UNL     1       6.126  -0.189   0.704  1.00  0.00     0.004 A 
ATOM      9  C   UNL     1       5.808   1.476  -0.971  1.00  0.00     0.004 A 
ATOM     10  C   UNL     1       5.379   0.617   1.566  1.00  0.00     0.000 A 
ATOM     11  C   UNL     1       5.069   2.271  -0.118  1.00  0.00     0.000 A 
ATOM     12  C   UNL     1       4.859   1.822   1.168  1.00  0.00     0.000 A 
ENDBRANCH   6   7
ENDBRANCH   1   6
TORSDOF 4
ENDMDL
MODEL 5
REMARK VINA RESULT:      -6.5      3.700      4.975
REMARK SMILES O=C(O)CCc1ccccc1
REMARK SMILES IDX 4 1 2 2 1 3 3 4 5 6 6 7 7 8 11 9 8 10 10 11 9 12
REMARK H PARENT 3 5
REMARK Flexibility Score: inf
ROOT
ATOM      1  C   UNL     1       5.290   2.916   0.113  1.00  0.00     0.127 C 
ENDROOT
BRANCH   1   2
ATOM      2  C   UNL     1       6.185   3.843   0.844  1.00  0.00     0.303 C 
ATOM      3  O   UNL     1       6.841   4.727   0.239  1.00  0.00    -0.252 OA
BRANCH   2   4
ATOM      4  O   UNL     1       6.324   3.760   2.220  1.00  0.00    -0.481 OA
ATOM      5  H   UNL     1       7.010   4.356   2.692  1.00  0.00     0.296 HD
ENDBRANCH   2   4
ENDBRANCH   1   2
BRANCH   1   6
ATOM      6  C   UNL     1       5.265   1.610   0.847  1.00  0.00     0.047 C 
BRANCH   6   7
ATOM      7  C   UNL     1       6.017   0.543   0.189  1.00  0.00    -0.047 A 
ATOM      8  C   UNL     1       6.436  -0.561   0.894  1.00  0.00     0.004 A 
ATOM      9  C   UNL     1       6.303   0.653  -1.152  1.00  0.00     0.004 A 
ATOM     10  C   UNL     1       7.149  -1.541   0.201  1.00  0.00     0.000 A 
ATOM     11  C   UNL     1       7.008  -0.317  -1.837  1.00  0.00     0.000 A 
ATOM     12  C   UNL     1       7.432  -1.426  -1.137  1.00  0.00     0.000 A 
ENDBRANCH   6   7
ENDBRANCH   1   6
TORSDOF 4
ENDMDL
