@<TRIPOS>MOLECULE
/home/cewinharhar/GITHUB/reincatalyze/data/processed/docking_pred/2023_Apr_20-15:07/551c5941f3bf749be32b1159c48b101be233bdbe_ligand_2.pdbqt
 12 12 0 0 0
SMALL
GASTEIGER

@<TRIPOS>ATOM
      1  C          5.2900    2.9160    0.1130 C.3     1  UNL1        0.1270
      2  C          6.1850    3.8430    0.8440 C.2     1  UNL1        0.3030
      3  O          6.8410    4.7270    0.2390 O.2     1  UNL1       -0.2520
      4  O          6.3240    3.7600    2.2200 O.3     1  UNL1       -0.4810
      5  H          7.0100    4.3560    2.6920 H       1  UNL1        0.2960
      6  C          5.2650    1.6100    0.8470 C.3     1  UNL1        0.0470
      7  C          6.0170    0.5430    0.1890 C.2     1  UNL1       -0.0470
      8  C          6.4360   -0.5610    0.8940 C.2     1  UNL1        0.0040
      9  C          6.3030    0.6530   -1.1520 C.2     1  UNL1        0.0040
     10  C          7.1490   -1.5410    0.2010 C.2     1  UNL1        0.0000
     11  C          7.0080   -0.3170   -1.8370 C.2     1  UNL1        0.0000
     12  C          7.4320   -1.4260   -1.1370 C.2     1  UNL1        0.0000
@<TRIPOS>BOND
     1    11     9    1
     2    11    12    2
     3     9     7    2
     4    12    10    1
     5     1     2    1
     6     1     6    1
     7     7     6    1
     8     7     8    1
     9    10     8    2
    10     3     2    2
    11     2     4    1
    12     4     5    1
