@<TRIPOS>MOLECULE
/home/cewinharhar/GITHUB/reincatalyze/data/processed/docking_pred/2023_Apr_20-15:07/551c5941f3bf749be32b1159c48b101be233bdbe_ligand_2.pdbqt
 12 12 0 0 0
SMALL
GASTEIGER

@<TRIPOS>ATOM
      1  C          8.4590   -0.6430   -2.1080 C.3     1  UNL1        0.1270
      2  C          8.4810   -1.9130   -2.8710 C.2     1  UNL1        0.3030
      3  O          9.5520   -2.5410   -3.0600 O.2     1  UNL1       -0.2520
      4  O          7.3150   -2.4440   -3.4000 O.3     1  UNL1       -0.4810
      5  H          6.9730   -2.1010   -4.3020 H       1  UNL1        0.2960
      6  C          7.0520   -0.1290   -2.0900 C.3     1  UNL1        0.0470
      7  C          6.4950    0.0300   -0.7480 C.2     1  UNL1       -0.0470
      8  C          6.6040   -0.9770    0.1830 C.2     1  UNL1        0.0040
      9  C          5.8570    1.2040   -0.4200 C.2     1  UNL1        0.0040
     10  C          6.0490   -0.7560    1.4450 C.2     1  UNL1        0.0000
     11  C          5.3080    1.4200    0.8280 C.2     1  UNL1        0.0000
     12  C          5.4130    0.4160    1.7660 C.2     1  UNL1        0.0000
@<TRIPOS>BOND
     1     5     4    1
     2     4     2    1
     3     3     2    2
     4     2     1    1
     5     1     6    1
     6     6     7    1
     7     7     9    2
     8     7     8    1
     9     9    11    1
    10     8    10    2
    11    11    12    2
    12    10    12    1
