@<TRIPOS>MOLECULE
/home/cewinharhar/GITHUB/reincatalyze/data/processed/docking_pred/2023_Apr_20-15:07/551e6d8a024554ec32308953f7464105b503c37a_ligand_2.pdbqt
 12 12 0 0 0
SMALL
GASTEIGER

@<TRIPOS>ATOM
      1  C          8.4100   -0.5430   -2.2600 C.3     1  UNL1        0.1270
      2  C          8.4680   -1.8680   -2.9210 C.2     1  UNL1        0.3030
      3  O          9.5550   -2.4810   -3.0580 O.2     1  UNL1       -0.2520
      4  O          7.3180   -2.4690   -3.4080 O.3     1  UNL1       -0.4810
      5  H          7.3850   -3.3830   -3.8650 H       1  UNL1        0.2960
      6  C          6.9770   -0.1130   -2.1910 C.3     1  UNL1        0.0470
      7  C          6.4700    0.0510   -0.8290 C.2     1  UNL1       -0.0470
      8  C          6.6120   -0.9540    0.0990 C.2     1  UNL1        0.0040
      9  C          5.8480    1.2270   -0.4810 C.2     1  UNL1        0.0040
     10  C          6.1050   -0.7290    1.3810 C.2     1  UNL1        0.0000
     11  C          5.3470    1.4490    0.7860 C.2     1  UNL1        0.0000
     12  C          5.4840    0.4470    1.7220 C.2     1  UNL1        0.0000
@<TRIPOS>BOND
     1     5     4    1
     2     4     2    1
     3     3     2    2
     4     2     1    1
     5     1     6    1
     6     6     7    1
     7     7     9    2
     8     7     8    1
     9     9    11    1
    10     8    10    2
    11    11    12    2
    12    10    12    1
