@<TRIPOS>MOLECULE
/home/cewinharhar/GITHUB/reincatalyze/data/processed/docking_pred/2023_Apr_20-15:07/551e6d8a024554ec32308953f7464105b503c37a_ligand_2.pdbqt
 12 12 0 0 0
SMALL
GASTEIGER

@<TRIPOS>ATOM
      1  C          5.3600    2.9640    0.0240 C.3     1  UNL1        0.1270
      2  C          6.2100    3.8980    0.7990 C.2     1  UNL1        0.3030
      3  O          6.9040    4.7750    0.2270 O.2     1  UNL1       -0.2520
      4  O          6.2630    3.8290    2.1820 O.3     1  UNL1       -0.4810
      5  H          5.5100    4.2480    2.7340 H       1  UNL1        0.2960
      6  C          5.0120    1.8040    0.9050 C.3     1  UNL1        0.0470
      7  C          5.8210    0.6100    0.6640 C.2     1  UNL1       -0.0470
      8  C          6.3420    0.3540   -0.5830 C.2     1  UNL1        0.0040
      9  C          6.0600   -0.2590    1.7030 C.2     1  UNL1        0.0040
     10  C          7.1060   -0.8050   -0.7400 C.2     1  UNL1        0.0000
     11  C          6.8160   -1.4040    1.5460 C.2     1  UNL1        0.0000
     12  C          7.3410   -1.6690    0.3000 C.2     1  UNL1        0.0000
@<TRIPOS>BOND
     1    10     8    1
     2    10    12    2
     3     8     7    2
     4     1     2    1
     5     1     6    1
     6     3     2    2
     7    12    11    1
     8     7     6    1
     9     7     9    1
    10     2     4    1
    11    11     9    2
    12     4     5    1
