@<TRIPOS>MOLECULE
/home/cewinharhar/GITHUB/reincatalyze/data/processed/docking_pred/2023_Apr_20-15:07/551e6d8a024554ec32308953f7464105b503c37a_ligand_2.pdbqt
 12 12 0 0 0
SMALL
GASTEIGER

@<TRIPOS>ATOM
      1  C          5.0140    1.8020    0.7230 C.3     1  UNL1        0.1270
      2  C          4.4850    1.1110    1.9220 C.2     1  UNL1        0.3030
      3  O          5.1340    0.1950    2.4850 O.2     1  UNL1       -0.2520
      4  O          3.2550    1.4590    2.4570 O.3     1  UNL1       -0.4810
      5  H          2.7660    0.7940    3.0630 H       1  UNL1        0.2960
      6  C          6.5110    1.7560    0.7750 C.3     1  UNL1        0.0470
      7  C          7.1220    1.0130   -0.3250 C.2     1  UNL1       -0.0470
      8  C          6.3900    0.1000   -1.0490 C.2     1  UNL1        0.0040
      9  C          8.4440    1.2360   -0.6340 C.2     1  UNL1        0.0040
     10  C          7.0380   -0.5730   -2.0870 C.2     1  UNL1        0.0000
     11  C          9.0830    0.5690   -1.6600 C.2     1  UNL1        0.0000
     12  C          8.3570   -0.3470   -2.3900 C.2     1  UNL1        0.0000
@<TRIPOS>BOND
     1    12    10    2
     2    12    11    1
     3    10     8    1
     4    11     9    2
     5     8     7    2
     6     9     7    1
     7     7     6    1
     8     1     6    1
     9     1     2    1
    10     2     4    1
    11     2     3    2
    12     4     5    1
