MODEL 1
REMARK VINA RESULT:      -7.4      0.000      0.000
REMARK SMILES O=C(O)CCc1ccccc1
REMARK SMILES IDX 4 1 2 2 1 3 3 4 5 6 6 7 7 8 11 9 8 10 10 11 9 12
REMARK H PARENT 3 5
REMARK Flexibility Score: inf
ROOT
ATOM      1  C   UNL     1       8.471  -0.640  -2.111  1.00  0.00     0.127 C 
ENDROOT
BRANCH   1   2
ATOM      2  C   UNL     1       8.498  -1.897  -2.896  1.00  0.00     0.303 C 
ATOM      3  O   UNL     1       9.576  -2.501  -3.119  1.00  0.00    -0.252 OA
BRANCH   2   4
ATOM      4  O   UNL     1       7.331  -2.441  -3.406  1.00  0.00    -0.481 OA
ATOM      5  H   UNL     1       7.369  -3.339  -3.896  1.00  0.00     0.296 HD
ENDBRANCH   2   4
ENDBRANCH   1   2
BRANCH   1   6
ATOM      6  C   UNL     1       7.071  -0.106  -2.126  1.00  0.00     0.047 C 
BRANCH   6   7
ATOM      7  C   UNL     1       6.494   0.085  -0.796  1.00  0.00    -0.047 A 
ATOM      8  C   UNL     1       5.816   1.241  -0.483  1.00  0.00     0.004 A 
ATOM      9  C   UNL     1       6.634  -0.908   0.146  1.00  0.00     0.004 A 
ATOM     10  C   UNL     1       5.290   1.355   0.805  1.00  0.00     0.000 A 
ATOM     11  C   UNL     1       6.113  -0.793   1.420  1.00  0.00     0.000 A 
ATOM     12  C   UNL     1       5.434   0.362   1.741  1.00  0.00     0.000 A 
ENDBRANCH   6   7
ENDBRANCH   1   6
TORSDOF 4
ENDMDL
MODEL 2
REMARK VINA RESULT:      -7.3      0.092      1.439
REMARK SMILES O=C(O)CCc1ccccc1
REMARK SMILES IDX 4 1 2 2 1 3 3 4 5 6 6 7 7 8 11 9 8 10 10 11 9 12
REMARK H PARENT 3 5
REMARK Flexibility Score: inf
ROOT
ATOM      1  C   UNL     1       8.410  -0.543  -2.260  1.00  0.00     0.127 C 
ENDROOT
BRANCH   1   2
ATOM      2  C   UNL     1       8.468  -1.868  -2.921  1.00  0.00     0.303 C 
ATOM      3  O   UNL     1       9.555  -2.481  -3.058  1.00  0.00    -0.252 OA
BRANCH   2   4
ATOM      4  O   UNL     1       7.318  -2.469  -3.408  1.00  0.00    -0.481 OA
ATOM      5  H   UNL     1       7.385  -3.383  -3.865  1.00  0.00     0.296 HD
ENDBRANCH   2   4
ENDBRANCH   1   2
BRANCH   1   6
ATOM      6  C   UNL     1       6.977  -0.113  -2.191  1.00  0.00     0.047 C 
BRANCH   6   7
ATOM      7  C   UNL     1       6.470   0.051  -0.829  1.00  0.00    -0.047 A 
ATOM      8  C   UNL     1       6.612  -0.954   0.099  1.00  0.00     0.004 A 
ATOM      9  C   UNL     1       5.848   1.227  -0.481  1.00  0.00     0.004 A 
ATOM     10  C   UNL     1       6.105  -0.729   1.381  1.00  0.00     0.000 A 
ATOM     11  C   UNL     1       5.347   1.449   0.786  1.00  0.00     0.000 A 
ATOM     12  C   UNL     1       5.484   0.447   1.722  1.00  0.00     0.000 A 
ENDBRANCH   6   7
ENDBRANCH   1   6
TORSDOF 4
ENDMDL
MODEL 3
REMARK VINA RESULT:      -6.8      3.374      5.085
REMARK SMILES O=C(O)CCc1ccccc1
REMARK SMILES IDX 4 1 2 2 1 3 3 4 5 6 6 7 7 8 11 9 8 10 10 11 9 12
REMARK H PARENT 3 5
REMARK Flexibility Score: inf
ROOT
ATOM      1  C   UNL     1       5.014   1.802   0.723  1.00  0.00     0.127 C 
ENDROOT
BRANCH   1   2
ATOM      2  C   UNL     1       4.485   1.111   1.922  1.00  0.00     0.303 C 
ATOM      3  O   UNL     1       5.134   0.195   2.485  1.00  0.00    -0.252 OA
BRANCH   2   4
ATOM      4  O   UNL     1       3.255   1.459   2.457  1.00  0.00    -0.481 OA
ATOM      5  H   UNL     1       2.766   0.794   3.063  1.00  0.00     0.296 HD
ENDBRANCH   2   4
ENDBRANCH   1   2
BRANCH   1   6
ATOM      6  C   UNL     1       6.511   1.756   0.775  1.00  0.00     0.047 C 
BRANCH   6   7
ATOM      7  C   UNL     1       7.122   1.013  -0.325  1.00  0.00    -0.047 A 
ATOM      8  C   UNL     1       6.390   0.100  -1.049  1.00  0.00     0.004 A 
ATOM      9  C   UNL     1       8.444   1.236  -0.634  1.00  0.00     0.004 A 
ATOM     10  C   UNL     1       7.038  -0.573  -2.087  1.00  0.00     0.000 A 
ATOM     11  C   UNL     1       9.083   0.569  -1.660  1.00  0.00     0.000 A 
ATOM     12  C   UNL     1       8.357  -0.347  -2.390  1.00  0.00     0.000 A 
ENDBRANCH   6   7
ENDBRANCH   1   6
TORSDOF 4
ENDMDL
MODEL 4
REMARK VINA RESULT:      -6.6      1.912      2.650
REMARK SMILES O=C(O)CCc1ccccc1
REMARK SMILES IDX 4 1 2 2 1 3 3 4 5 6 6 7 7 8 11 9 8 10 10 11 9 12
REMARK H PARENT 3 5
REMARK Flexibility Score: inf
ROOT
ATOM      1  C   UNL     1       8.208   0.222  -2.228  1.00  0.00     0.127 C 
ENDROOT
BRANCH   1   2
ATOM      2  C   UNL     1       9.330   0.335  -1.267  1.00  0.00     0.303 C 
ATOM      3  O   UNL     1       9.412  -0.424  -0.270  1.00  0.00    -0.252 OA
BRANCH   2   4
ATOM      4  O   UNL     1      10.322   1.286  -1.442  1.00  0.00    -0.481 OA
ATOM      5  H   UNL     1      11.057   1.121  -2.136  1.00  0.00     0.296 HD
ENDBRANCH   2   4
ENDBRANCH   1   2
BRANCH   1   6
ATOM      6  C   UNL     1       7.090  -0.521  -1.562  1.00  0.00     0.047 C 
BRANCH   6   7
ATOM      7  C   UNL     1       6.325   0.283  -0.611  1.00  0.00    -0.047 A 
ATOM      8  C   UNL     1       6.102  -0.166   0.670  1.00  0.00     0.004 A 
ATOM      9  C   UNL     1       5.829   1.503  -1.010  1.00  0.00     0.004 A 
ATOM     10  C   UNL     1       5.363   0.656   1.525  1.00  0.00     0.000 A 
ATOM     11  C   UNL     1       5.099   2.313  -0.163  1.00  0.00     0.000 A 
ATOM     12  C   UNL     1       4.870   1.871   1.122  1.00  0.00     0.000 A 
ENDBRANCH   6   7
ENDBRANCH   1   6
TORSDOF 4
ENDMDL
MODEL 5
REMARK VINA RESULT:      -6.6      3.746      4.935
REMARK SMILES O=C(O)CCc1ccccc1
REMARK SMILES IDX 4 1 2 2 1 3 3 4 5 6 6 7 7 8 11 9 8 10 10 11 9 12
REMARK H PARENT 3 5
REMARK Flexibility Score: inf
ROOT
ATOM      1  C   UNL     1       5.360   2.964   0.024  1.00  0.00     0.127 C 
ENDROOT
BRANCH   1   2
ATOM      2  C   UNL     1       6.210   3.898   0.799  1.00  0.00     0.303 C 
ATOM      3  O   UNL     1       6.904   4.775   0.227  1.00  0.00    -0.252 OA
BRANCH   2   4
ATOM      4  O   UNL     1       6.263   3.829   2.182  1.00  0.00    -0.481 OA
ATOM      5  H   UNL     1       5.510   4.248   2.734  1.00  0.00     0.296 HD
ENDBRANCH   2   4
ENDBRANCH   1   2
BRANCH   1   6
ATOM      6  C   UNL     1       5.012   1.804   0.905  1.00  0.00     0.047 C 
BRANCH   6   7
ATOM      7  C   UNL     1       5.821   0.610   0.664  1.00  0.00    -0.047 A 
ATOM      8  C   UNL     1       6.342   0.354  -0.583  1.00  0.00     0.004 A 
ATOM      9  C   UNL     1       6.060  -0.259   1.703  1.00  0.00     0.004 A 
ATOM     10  C   UNL     1       7.106  -0.805  -0.740  1.00  0.00     0.000 A 
ATOM     11  C   UNL     1       6.816  -1.404   1.546  1.00  0.00     0.000 A 
ATOM     12  C   UNL     1       7.341  -1.669   0.300  1.00  0.00     0.000 A 
ENDBRANCH   6   7
ENDBRANCH   1   6
TORSDOF 4
ENDMDL
