@<TRIPOS>MOLECULE
/home/cewinharhar/GITHUB/reincatalyze/data/processed/docking_pred/2023_Apr_20-15:07/551e6d8a024554ec32308953f7464105b503c37a_ligand_2.pdbqt
 12 12 0 0 0
SMALL
GASTEIGER

@<TRIPOS>ATOM
      1  C          8.4710   -0.6400   -2.1110 C.3     1  UNL1        0.1270
      2  C          8.4980   -1.8970   -2.8960 C.2     1  UNL1        0.3030
      3  O          9.5760   -2.5010   -3.1190 O.2     1  UNL1       -0.2520
      4  O          7.3310   -2.4410   -3.4060 O.3     1  UNL1       -0.4810
      5  H          7.3690   -3.3390   -3.8960 H       1  UNL1        0.2960
      6  C          7.0710   -0.1060   -2.1260 C.3     1  UNL1        0.0470
      7  C          6.4940    0.0850   -0.7960 C.2     1  UNL1       -0.0470
      8  C          5.8160    1.2410   -0.4830 C.2     1  UNL1        0.0040
      9  C          6.6340   -0.9080    0.1460 C.2     1  UNL1        0.0040
     10  C          5.2900    1.3550    0.8050 C.2     1  UNL1        0.0000
     11  C          6.1130   -0.7930    1.4200 C.2     1  UNL1        0.0000
     12  C          5.4340    0.3620    1.7410 C.2     1  UNL1        0.0000
@<TRIPOS>BOND
     1     5     4    1
     2     4     2    1
     3     3     2    2
     4     2     1    1
     5     6     1    1
     6     6     7    1
     7     7     8    2
     8     7     9    1
     9     8    10    1
    10     9    11    2
    11    10    12    2
    12    11    12    1
