@<TRIPOS>MOLECULE
/home/cewinharhar/GITHUB/reincatalyze/data/processed/docking_pred/2023_Apr_20-15:07/551e6d8a024554ec32308953f7464105b503c37a_ligand_2.pdbqt
 12 12 0 0 0
SMALL
GASTEIGER

@<TRIPOS>ATOM
      1  C          8.2080    0.2220   -2.2280 C.3     1  UNL1        0.1270
      2  C          9.3300    0.3350   -1.2670 C.2     1  UNL1        0.3030
      3  O          9.4120   -0.4240   -0.2700 O.2     1  UNL1       -0.2520
      4  O         10.3220    1.2860   -1.4420 O.3     1  UNL1       -0.4810
      5  H         11.0570    1.1210   -2.1360 H       1  UNL1        0.2960
      6  C          7.0900   -0.5210   -1.5620 C.3     1  UNL1        0.0470
      7  C          6.3250    0.2830   -0.6110 C.2     1  UNL1       -0.0470
      8  C          6.1020   -0.1660    0.6700 C.2     1  UNL1        0.0040
      9  C          5.8290    1.5030   -1.0100 C.2     1  UNL1        0.0040
     10  C          5.3630    0.6560    1.5250 C.2     1  UNL1        0.0000
     11  C          5.0990    2.3130   -0.1630 C.2     1  UNL1        0.0000
     12  C          4.8700    1.8710    1.1220 C.2     1  UNL1        0.0000
@<TRIPOS>BOND
     1     1     6    1
     2     1     2    1
     3     5     4    1
     4     6     7    1
     5     4     2    1
     6     2     3    2
     7     9     7    2
     8     9    11    1
     9     7     8    1
    10    11    12    2
    11     8    10    2
    12    12    10    1
