@<TRIPOS>MOLECULE
/home/cewinharhar/GITHUB/reincatalyze/data/processed/docking_pred/2023_Apr_20-15:07/55f9a48c22e019202c812c896c561d7470c53219_ligand_2.pdbqt
 12 12 0 0 0
SMALL
GASTEIGER

@<TRIPOS>ATOM
      1  C          5.0410    1.7200    0.7040 C.3     1  UNL1        0.1270
      2  C          4.5850    1.0270    1.9320 C.2     1  UNL1        0.3030
      3  O          5.2990    0.1600    2.4930 O.2     1  UNL1       -0.2520
      4  O          3.3520    1.3170    2.4940 O.3     1  UNL1       -0.4810
      5  H          2.5470    0.7260    2.2690 H       1  UNL1        0.2960
      6  C          6.5390    1.7530    0.7120 C.3     1  UNL1        0.0470
      7  C          7.1560    0.9850   -0.3690 C.2     1  UNL1       -0.0470
      8  C          6.4260    0.0640   -1.0830 C.2     1  UNL1        0.0040
      9  C          8.4820    1.1960   -0.6700 C.2     1  UNL1        0.0040
     10  C          7.0800   -0.6320   -2.1020 C.2     1  UNL1        0.0000
     11  C          9.1270    0.5060   -1.6770 C.2     1  UNL1        0.0000
     12  C          8.4030   -0.4190   -2.3970 C.2     1  UNL1        0.0000
@<TRIPOS>BOND
     1    12    10    2
     2    12    11    1
     3    10     8    1
     4    11     9    2
     5     8     7    2
     6     9     7    1
     7     7     6    1
     8     1     6    1
     9     1     2    1
    10     2     3    2
    11     2     4    1
    12     5     4    1
