@<TRIPOS>MOLECULE
/home/cewinharhar/GITHUB/reincatalyze/data/processed/docking_pred/2023_Apr_20-15:07/55f9a48c22e019202c812c896c561d7470c53219_ligand_2.pdbqt
 12 12 0 0 0
SMALL
GASTEIGER

@<TRIPOS>ATOM
      1  C          5.4590    2.8700    0.0560 C.3     1  UNL1        0.1270
      2  C          6.2480    3.8580    0.8290 C.2     1  UNL1        0.3030
      3  O          6.8870    4.7740    0.2540 O.2     1  UNL1       -0.2520
      4  O          6.3020    3.7980    2.2120 O.3     1  UNL1       -0.4810
      5  H          6.9980    4.3590    2.7110 H       1  UNL1        0.2960
      6  C          4.9400    1.8360    1.0070 C.3     1  UNL1        0.0470
      7  C          5.7220    0.6010    1.0280 C.2     1  UNL1       -0.0470
      8  C          5.7160   -0.2170    2.1350 C.2     1  UNL1        0.0040
      9  C          6.4680    0.2600   -0.0760 C.2     1  UNL1        0.0040
     10  C          6.4870   -1.3810    2.0840 C.2     1  UNL1        0.0000
     11  C          7.2290   -0.8910   -0.1240 C.2     1  UNL1        0.0000
     12  C          7.2300   -1.7150    0.9800 C.2     1  UNL1        0.0000
@<TRIPOS>BOND
     1    11     9    1
     2    11    12    2
     3     9     7    2
     4     1     2    1
     5     1     6    1
     6     3     2    2
     7     2     4    1
     8    12    10    1
     9     6     7    1
    10     7     8    1
    11    10     8    2
    12     4     5    1
