@<TRIPOS>MOLECULE
/home/cewinharhar/GITHUB/reincatalyze/data/processed/docking_pred/2023_Apr_20-15:07/55f9a48c22e019202c812c896c561d7470c53219_ligand_2.pdbqt
 12 12 0 0 0
SMALL
GASTEIGER

@<TRIPOS>ATOM
      1  C          8.4500   -0.6260   -2.1380 C.3     1  UNL1        0.1270
      2  C          8.4740   -1.8970   -2.8990 C.2     1  UNL1        0.3030
      3  O          9.5450   -2.5260   -3.0810 O.2     1  UNL1       -0.2520
      4  O          7.3100   -2.4280   -3.4330 O.3     1  UNL1       -0.4810
      5  H          6.4720   -1.8420   -3.4880 H       1  UNL1        0.2960
      6  C          7.0400   -0.1170   -2.1160 C.3     1  UNL1        0.0470
      7  C          6.4890    0.0490   -0.7720 C.2     1  UNL1       -0.0470
      8  C          5.8500    1.2120   -0.4130 C.2     1  UNL1        0.0040
      9  C          6.6150   -0.9770    0.1360 C.2     1  UNL1        0.0040
     10  C          5.3470    1.3010    0.8870 C.2     1  UNL1        0.0000
     11  C          6.1180   -0.8870    1.4210 C.2     1  UNL1        0.0000
     12  C          5.4760    0.2750    1.7890 C.2     1  UNL1        0.0000
@<TRIPOS>BOND
     1     5     4    1
     2     4     2    1
     3     3     2    2
     4     2     1    1
     5     1     6    1
     6     6     7    1
     7     7     8    2
     8     7     9    1
     9     8    10    1
    10     9    11    2
    11    10    12    2
    12    11    12    1
