MODEL 1
REMARK VINA RESULT:      -7.4      0.000      0.000
REMARK SMILES O=C(O)CCc1ccccc1
REMARK SMILES IDX 4 1 2 2 1 3 3 4 5 6 6 7 7 8 11 9 8 10 10 11 9 12
REMARK H PARENT 3 5
REMARK Flexibility Score: inf
ROOT
ATOM      1  C   UNL     1       8.450  -0.626  -2.138  1.00  0.00     0.127 C 
ENDROOT
BRANCH   1   2
ATOM      2  C   UNL     1       8.474  -1.897  -2.899  1.00  0.00     0.303 C 
ATOM      3  O   UNL     1       9.545  -2.526  -3.081  1.00  0.00    -0.252 OA
BRANCH   2   4
ATOM      4  O   UNL     1       7.310  -2.428  -3.433  1.00  0.00    -0.481 OA
ATOM      5  H   UNL     1       6.472  -1.842  -3.488  1.00  0.00     0.296 HD
ENDBRANCH   2   4
ENDBRANCH   1   2
BRANCH   1   6
ATOM      6  C   UNL     1       7.040  -0.117  -2.116  1.00  0.00     0.047 C 
BRANCH   6   7
ATOM      7  C   UNL     1       6.489   0.049  -0.772  1.00  0.00    -0.047 A 
ATOM      8  C   UNL     1       5.850   1.212  -0.413  1.00  0.00     0.004 A 
ATOM      9  C   UNL     1       6.615  -0.977   0.136  1.00  0.00     0.004 A 
ATOM     10  C   UNL     1       5.347   1.301   0.887  1.00  0.00     0.000 A 
ATOM     11  C   UNL     1       6.118  -0.887   1.421  1.00  0.00     0.000 A 
ATOM     12  C   UNL     1       5.476   0.275   1.789  1.00  0.00     0.000 A 
ENDBRANCH   6   7
ENDBRANCH   1   6
TORSDOF 4
ENDMDL
MODEL 2
REMARK VINA RESULT:      -7.3      0.224      1.450
REMARK SMILES O=C(O)CCc1ccccc1
REMARK SMILES IDX 4 1 2 2 1 3 3 4 5 6 6 7 7 8 11 9 8 10 10 11 9 12
REMARK H PARENT 3 5
REMARK Flexibility Score: inf
ROOT
ATOM      1  C   UNL     1       8.428  -0.792  -1.930  1.00  0.00     0.127 C 
ENDROOT
BRANCH   1   2
ATOM      2  C   UNL     1       8.459  -1.961  -2.841  1.00  0.00     0.303 C 
ATOM      3  O   UNL     1       9.537  -2.543  -3.118  1.00  0.00    -0.252 OA
BRANCH   2   4
ATOM      4  O   UNL     1       7.293  -2.445  -3.414  1.00  0.00    -0.481 OA
ATOM      5  H   UNL     1       6.390  -2.184  -3.009  1.00  0.00     0.296 HD
ENDBRANCH   2   4
ENDBRANCH   1   2
BRANCH   1   6
ATOM      6  C   UNL     1       7.063  -0.178  -1.998  1.00  0.00     0.047 C 
BRANCH   6   7
ATOM      7  C   UNL     1       6.455   0.063  -0.691  1.00  0.00    -0.047 A 
ATOM      8  C   UNL     1       6.532  -0.881   0.306  1.00  0.00     0.004 A 
ATOM      9  C   UNL     1       5.801   1.252  -0.464  1.00  0.00     0.004 A 
ATOM     10  C   UNL     1       5.929  -0.583   1.530  1.00  0.00     0.000 A 
ATOM     11  C   UNL     1       5.204   1.545   0.746  1.00  0.00     0.000 A 
ATOM     12  C   UNL     1       5.277   0.604   1.750  1.00  0.00     0.000 A 
ENDBRANCH   6   7
ENDBRANCH   1   6
TORSDOF 4
ENDMDL
MODEL 3
REMARK VINA RESULT:      -6.8      3.347      5.049
REMARK SMILES O=C(O)CCc1ccccc1
REMARK SMILES IDX 4 1 2 2 1 3 3 4 5 6 6 7 7 8 11 9 8 10 10 11 9 12
REMARK H PARENT 3 5
REMARK Flexibility Score: inf
ROOT
ATOM      1  C   UNL     1       5.041   1.720   0.704  1.00  0.00     0.127 C 
ENDROOT
BRANCH   1   2
ATOM      2  C   UNL     1       4.585   1.027   1.932  1.00  0.00     0.303 C 
ATOM      3  O   UNL     1       5.299   0.160   2.493  1.00  0.00    -0.252 OA
BRANCH   2   4
ATOM      4  O   UNL     1       3.352   1.317   2.494  1.00  0.00    -0.481 OA
ATOM      5  H   UNL     1       2.547   0.726   2.269  1.00  0.00     0.296 HD
ENDBRANCH   2   4
ENDBRANCH   1   2
BRANCH   1   6
ATOM      6  C   UNL     1       6.539   1.753   0.712  1.00  0.00     0.047 C 
BRANCH   6   7
ATOM      7  C   UNL     1       7.156   0.985  -0.369  1.00  0.00    -0.047 A 
ATOM      8  C   UNL     1       6.426   0.064  -1.083  1.00  0.00     0.004 A 
ATOM      9  C   UNL     1       8.482   1.196  -0.670  1.00  0.00     0.004 A 
ATOM     10  C   UNL     1       7.080  -0.632  -2.102  1.00  0.00     0.000 A 
ATOM     11  C   UNL     1       9.127   0.506  -1.677  1.00  0.00     0.000 A 
ATOM     12  C   UNL     1       8.403  -0.419  -2.397  1.00  0.00     0.000 A 
ENDBRANCH   6   7
ENDBRANCH   1   6
TORSDOF 4
ENDMDL
MODEL 4
REMARK VINA RESULT:      -6.7      3.834      4.996
REMARK SMILES O=C(O)CCc1ccccc1
REMARK SMILES IDX 4 1 2 2 1 3 3 4 5 6 6 7 7 8 11 9 8 10 10 11 9 12
REMARK H PARENT 3 5
REMARK Flexibility Score: inf
ROOT
ATOM      1  C   UNL     1       5.459   2.870   0.056  1.00  0.00     0.127 C 
ENDROOT
BRANCH   1   2
ATOM      2  C   UNL     1       6.248   3.858   0.829  1.00  0.00     0.303 C 
ATOM      3  O   UNL     1       6.887   4.774   0.254  1.00  0.00    -0.252 OA
BRANCH   2   4
ATOM      4  O   UNL     1       6.302   3.798   2.212  1.00  0.00    -0.481 OA
ATOM      5  H   UNL     1       6.998   4.359   2.711  1.00  0.00     0.296 HD
ENDBRANCH   2   4
ENDBRANCH   1   2
BRANCH   1   6
ATOM      6  C   UNL     1       4.940   1.836   1.007  1.00  0.00     0.047 C 
BRANCH   6   7
ATOM      7  C   UNL     1       5.722   0.601   1.028  1.00  0.00    -0.047 A 
ATOM      8  C   UNL     1       5.716  -0.217   2.135  1.00  0.00     0.004 A 
ATOM      9  C   UNL     1       6.468   0.260  -0.076  1.00  0.00     0.004 A 
ATOM     10  C   UNL     1       6.487  -1.381   2.084  1.00  0.00     0.000 A 
ATOM     11  C   UNL     1       7.229  -0.891  -0.124  1.00  0.00     0.000 A 
ATOM     12  C   UNL     1       7.230  -1.715   0.980  1.00  0.00     0.000 A 
ENDBRANCH   6   7
ENDBRANCH   1   6
TORSDOF 4
ENDMDL
MODEL 5
REMARK VINA RESULT:      -6.7      1.938      2.662
REMARK SMILES O=C(O)CCc1ccccc1
REMARK SMILES IDX 4 1 2 2 1 3 3 4 5 6 6 7 7 8 11 9 8 10 10 11 9 12
REMARK H PARENT 3 5
REMARK Flexibility Score: inf
ROOT
ATOM      1  C   UNL     1       8.215   0.189  -2.174  1.00  0.00     0.127 C 
ENDROOT
BRANCH   1   2
ATOM      2  C   UNL     1       9.354   0.334  -1.237  1.00  0.00     0.303 C 
ATOM      3  O   UNL     1       9.462  -0.401  -0.224  1.00  0.00    -0.252 OA
BRANCH   2   4
ATOM      4  O   UNL     1      10.335   1.288  -1.453  1.00  0.00    -0.481 OA
ATOM      5  H   UNL     1      10.234   1.942  -2.235  1.00  0.00     0.296 HD
ENDBRANCH   2   4
ENDBRANCH   1   2
BRANCH   1   6
ATOM      6  C   UNL     1       7.128  -0.571  -1.478  1.00  0.00     0.047 C 
BRANCH   6   7
ATOM      7  C   UNL     1       6.347   0.233  -0.539  1.00  0.00    -0.047 A 
ATOM      8  C   UNL     1       6.120  -0.208   0.744  1.00  0.00     0.004 A 
ATOM      9  C   UNL     1       5.840   1.443  -0.952  1.00  0.00     0.004 A 
ATOM     10  C   UNL     1       5.367   0.612   1.587  1.00  0.00     0.000 A 
ATOM     11  C   UNL     1       5.095   2.253  -0.117  1.00  0.00     0.000 A 
ATOM     12  C   UNL     1       4.863   1.818   1.170  1.00  0.00     0.000 A 
ENDBRANCH   6   7
ENDBRANCH   1   6
TORSDOF 4
ENDMDL
