@<TRIPOS>MOLECULE
/home/cewinharhar/GITHUB/reincatalyze/data/processed/docking_pred/2023_Apr_20-15:07/55f9a48c22e019202c812c896c561d7470c53219_ligand_2.pdbqt
 12 12 0 0 0
SMALL
GASTEIGER

@<TRIPOS>ATOM
      1  C          8.2150    0.1890   -2.1740 C.3     1  UNL1        0.1270
      2  C          9.3540    0.3340   -1.2370 C.2     1  UNL1        0.3030
      3  O          9.4620   -0.4010   -0.2240 O.2     1  UNL1       -0.2520
      4  O         10.3350    1.2880   -1.4530 O.3     1  UNL1       -0.4810
      5  H         10.2340    1.9420   -2.2350 H       1  UNL1        0.2960
      6  C          7.1280   -0.5710   -1.4780 C.3     1  UNL1        0.0470
      7  C          6.3470    0.2330   -0.5390 C.2     1  UNL1       -0.0470
      8  C          6.1200   -0.2080    0.7440 C.2     1  UNL1        0.0040
      9  C          5.8400    1.4430   -0.9520 C.2     1  UNL1        0.0040
     10  C          5.3670    0.6120    1.5870 C.2     1  UNL1        0.0000
     11  C          5.0950    2.2530   -0.1170 C.2     1  UNL1        0.0000
     12  C          4.8630    1.8180    1.1700 C.2     1  UNL1        0.0000
@<TRIPOS>BOND
     1     5     4    1
     2     1     6    1
     3     1     2    1
     4     6     7    1
     5     4     2    1
     6     2     3    2
     7     9     7    2
     8     9    11    1
     9     7     8    1
    10    11    12    2
    11     8    10    2
    12    12    10    1
