@<TRIPOS>MOLECULE
/home/cewinharhar/GITHUB/reincatalyze/data/processed/docking_pred/2023_Apr_20-15:07/55f9a48c22e019202c812c896c561d7470c53219_ligand_2.pdbqt
 12 12 0 0 0
SMALL
GASTEIGER

@<TRIPOS>ATOM
      1  C          8.4280   -0.7920   -1.9300 C.3     1  UNL1        0.1270
      2  C          8.4590   -1.9610   -2.8410 C.2     1  UNL1        0.3030
      3  O          9.5370   -2.5430   -3.1180 O.2     1  UNL1       -0.2520
      4  O          7.2930   -2.4450   -3.4140 O.3     1  UNL1       -0.4810
      5  H          6.3900   -2.1840   -3.0090 H       1  UNL1        0.2960
      6  C          7.0630   -0.1780   -1.9980 C.3     1  UNL1        0.0470
      7  C          6.4550    0.0630   -0.6910 C.2     1  UNL1       -0.0470
      8  C          6.5320   -0.8810    0.3060 C.2     1  UNL1        0.0040
      9  C          5.8010    1.2520   -0.4640 C.2     1  UNL1        0.0040
     10  C          5.9290   -0.5830    1.5300 C.2     1  UNL1        0.0000
     11  C          5.2040    1.5450    0.7460 C.2     1  UNL1        0.0000
     12  C          5.2770    0.6040    1.7500 C.2     1  UNL1        0.0000
@<TRIPOS>BOND
     1     4     5    1
     2     4     2    1
     3     3     2    2
     4     2     1    1
     5     6     1    1
     6     6     7    1
     7     7     9    2
     8     7     8    1
     9     9    11    1
    10     8    10    2
    11    11    12    2
    12    10    12    1
