@<TRIPOS>MOLECULE
/home/cewinharhar/GITHUB/reincatalyze/data/processed/docking_pred/2023_Apr_20-15:07/57f45ec83c8c38489066d898ddae0638f0802b8b_ligand_2.pdbqt
 12 12 0 0 0
SMALL
GASTEIGER

@<TRIPOS>ATOM
      1  C          8.4250   -0.5150   -2.0780 C.3     1  UNL1        0.1270
      2  C          8.4710   -1.7980   -2.8190 C.2     1  UNL1        0.3030
      3  O          9.5570   -2.3970   -3.0150 O.2     1  UNL1       -0.2520
      4  O          7.3130   -2.3720   -3.3180 O.3     1  UNL1       -0.4810
      5  H          7.2350   -3.3920   -3.3550 H       1  UNL1        0.2960
      6  C          7.0050   -0.0390   -2.0500 C.3     1  UNL1        0.0470
      7  C          6.4460    0.0870   -0.7050 C.2     1  UNL1       -0.0470
      8  C          6.5700   -0.9350    0.2060 C.2     1  UNL1        0.0040
      9  C          5.7920    1.2460   -0.3560 C.2     1  UNL1        0.0040
     10  C          6.0130   -0.7460    1.4730 C.2     1  UNL1        0.0000
     11  C          5.2410    1.4310    0.8970 C.2     1  UNL1        0.0000
     12  C          5.3600    0.4110    1.8160 C.2     1  UNL1        0.0000
@<TRIPOS>BOND
     1     5     4    1
     2     4     2    1
     3     3     2    2
     4     2     1    1
     5     1     6    1
     6     6     7    1
     7     7     9    2
     8     7     8    1
     9     9    11    1
    10     8    10    2
    11    11    12    2
    12    10    12    1
