@<TRIPOS>MOLECULE
/home/cewinharhar/GITHUB/reincatalyze/data/processed/docking_pred/2023_Apr_20-15:07/57f45ec83c8c38489066d898ddae0638f0802b8b_ligand_2.pdbqt
 12 12 0 0 0
SMALL
GASTEIGER

@<TRIPOS>ATOM
      1  C          8.4440   -0.5930   -2.0050 C.3     1  UNL1        0.1270
      2  C          8.4310   -1.8430   -2.8020 C.2     1  UNL1        0.3030
      3  O          7.3560   -2.3300   -3.2320 O.2     1  UNL1       -0.2520
      4  O          9.6100   -2.5100   -3.0960 O.3     1  UNL1       -0.4810
      5  H          9.7530   -3.4570   -2.7340 H       1  UNL1        0.2960
      6  C          7.0650   -0.0090   -2.0230 C.3     1  UNL1        0.0470
      7  C          6.4650    0.1420   -0.6980 C.2     1  UNL1       -0.0470
      8  C          5.7970    1.2940   -0.3560 C.2     1  UNL1        0.0040
      9  C          6.5750   -0.8860    0.2090 C.2     1  UNL1        0.0040
     10  C          5.2490    1.3690    0.9270 C.2     1  UNL1        0.0000
     11  C          6.0320   -0.8110    1.4770 C.2     1  UNL1        0.0000
     12  C          5.3620    0.3410    1.8280 C.2     1  UNL1        0.0000
@<TRIPOS>BOND
     1     3     2    2
     2     4     2    1
     3     4     5    1
     4     2     1    1
     5     6     1    1
     6     6     7    1
     7     7     8    2
     8     7     9    1
     9     8    10    1
    10     9    11    2
    11    10    12    2
    12    11    12    1
