@<TRIPOS>MOLECULE
/home/cewinharhar/GITHUB/reincatalyze/data/processed/docking_pred/2023_Apr_20-15:07/57f45ec83c8c38489066d898ddae0638f0802b8b_ligand_2.pdbqt
 12 12 0 0 0
SMALL
GASTEIGER

@<TRIPOS>ATOM
      1  C          5.3070    2.8570    0.0870 C.3     1  UNL1        0.1270
      2  C          6.1770    3.7580    0.8790 C.2     1  UNL1        0.3030
      3  O          6.2900    3.6260    2.1230 O.2     1  UNL1       -0.2520
      4  O          6.8910    4.7750    0.2660 O.3     1  UNL1       -0.4810
      5  H          7.6400    4.5360   -0.3900 H       1  UNL1        0.2960
      6  C          5.2170    1.5420    0.8000 C.3     1  UNL1        0.0470
      7  C          6.0240    0.4830    0.1970 C.2     1  UNL1       -0.0470
      8  C          6.4530   -0.5880    0.9460 C.2     1  UNL1        0.0040
      9  C          6.3520    0.5650   -1.1370 C.2     1  UNL1        0.0040
     10  C          7.2190   -1.5640    0.3040 C.2     1  UNL1        0.0000
     11  C          7.1090   -0.4000   -1.7700 C.2     1  UNL1        0.0000
     12  C          7.5430   -1.4750   -1.0270 C.2     1  UNL1        0.0000
@<TRIPOS>BOND
     1    11     9    1
     2    11    12    2
     3     9     7    2
     4    12    10    1
     5     5     4    1
     6     1     6    1
     7     1     2    1
     8     7     6    1
     9     7     8    1
    10     4     2    1
    11    10     8    2
    12     2     3    2
