@<TRIPOS>MOLECULE
/home/cewinharhar/GITHUB/reincatalyze/data/processed/docking_pred/2023_Apr_20-15:07/57f45ec83c8c38489066d898ddae0638f0802b8b_ligand_2.pdbqt
 12 12 0 0 0
SMALL
GASTEIGER

@<TRIPOS>ATOM
      1  C          8.1860    0.2850   -2.0680 C.3     1  UNL1        0.1270
      2  C          9.3690    0.3680   -1.1800 C.2     1  UNL1        0.3030
      3  O          9.4870   -0.3850   -0.1810 O.2     1  UNL1       -0.2520
      4  O         10.3800    1.2810   -1.4280 O.3     1  UNL1       -0.4810
      5  H         11.3120    0.9410   -1.6810 H       1  UNL1        0.2960
      6  C          7.1520   -0.5670   -1.3970 C.3     1  UNL1        0.0470
      7  C          6.3560    0.1410   -0.3960 C.2     1  UNL1       -0.0470
      8  C          5.8130    1.3740   -0.6730 C.2     1  UNL1        0.0040
      9  C          6.1520   -0.4410    0.8340 C.2     1  UNL1        0.0040
     10  C          5.0630    1.9920    0.3300 C.2     1  UNL1        0.0000
     11  C          5.4110    0.1720    1.8250 C.2     1  UNL1        0.0000
     12  C          4.8640    1.4070    1.5560 C.2     1  UNL1        0.0000
@<TRIPOS>BOND
     1     1     6    1
     2     1     2    1
     3     5     4    1
     4     4     2    1
     5     6     7    1
     6     2     3    2
     7     8     7    2
     8     8    10    1
     9     7     9    1
    10    10    12    2
    11     9    11    2
    12    12    11    1
