@<TRIPOS>MOLECULE
/home/cewinharhar/GITHUB/reincatalyze/data/processed/docking_pred/2023_Apr_20-15:07/5ba5439e64352188cd964ddb86dd28d806e95272_ligand_2.pdbqt
 12 12 0 0 0
SMALL
GASTEIGER

@<TRIPOS>ATOM
      1  C          8.3930   -0.6210   -2.1140 C.3     1  UNL1        0.1270
      2  C          8.3660   -1.8830   -2.8900 C.2     1  UNL1        0.3030
      3  O          7.2810   -2.4060   -3.2470 O.2     1  UNL1       -0.2520
      4  O          9.5430   -2.5240   -3.2450 O.3     1  UNL1       -0.4810
      5  H         10.2150   -2.0390   -3.8460 H       1  UNL1        0.2960
      6  C          7.0050   -0.0560   -2.0870 C.3     1  UNL1        0.0470
      7  C          6.4530    0.1010   -0.7430 C.2     1  UNL1       -0.0470
      8  C          5.8140    1.2620   -0.3760 C.2     1  UNL1        0.0040
      9  C          6.5760   -0.9310    0.1580 C.2     1  UNL1        0.0040
     10  C          5.3110    1.3420    0.9240 C.2     1  UNL1        0.0000
     11  C          6.0780   -0.8510    1.4430 C.2     1  UNL1        0.0000
     12  C          5.4380    0.3100    1.8190 C.2     1  UNL1        0.0000
@<TRIPOS>BOND
     1     5     4    1
     2     3     2    2
     3     4     2    1
     4     2     1    1
     5     1     6    1
     6     6     7    1
     7     7     8    2
     8     7     9    1
     9     8    10    1
    10     9    11    2
    11    10    12    2
    12    11    12    1
