@<TRIPOS>MOLECULE
/home/cewinharhar/GITHUB/reincatalyze/data/processed/docking_pred/2023_Apr_20-15:07/5ba5439e64352188cd964ddb86dd28d806e95272_ligand_2.pdbqt
 12 12 0 0 0
SMALL
GASTEIGER

@<TRIPOS>ATOM
      1  C          5.3830    2.9440    0.0170 C.3     1  UNL1        0.1270
      2  C          6.2480    3.8320    0.8280 C.2     1  UNL1        0.3030
      3  O          6.8910    4.7730    0.3010 O.2     1  UNL1       -0.2520
      4  O          6.3710    3.6470    2.1960 O.3     1  UNL1       -0.4810
      5  H          6.1700    4.4270    2.8270 H       1  UNL1        0.2960
      6  C          5.1860    1.6630    0.7690 C.3     1  UNL1        0.0470
      7  C          5.9960    0.5520    0.2730 C.2     1  UNL1       -0.0470
      8  C          6.3980    0.5060   -1.0420 C.2     1  UNL1        0.0040
      9  C          6.3580   -0.4540    1.1390 C.2     1  UNL1        0.0040
     10  C          7.1710   -0.5850   -1.4460 C.2     1  UNL1        0.0000
     11  C          7.1220   -1.5320    0.7380 C.2     1  UNL1        0.0000
     12  C          7.5280   -1.5860   -0.5780 C.2     1  UNL1        0.0000
@<TRIPOS>BOND
     1    10     8    1
     2    10    12    2
     3     8     7    2
     4    12    11    1
     5     1     6    1
     6     1     2    1
     7     7     6    1
     8     7     9    1
     9     3     2    2
    10    11     9    2
    11     2     4    1
    12     4     5    1
