@<TRIPOS>MOLECULE
/home/cewinharhar/GITHUB/reincatalyze/data/processed/docking_pred/2023_Apr_20-15:07/5ba5439e64352188cd964ddb86dd28d806e95272_ligand_2.pdbqt
 12 12 0 0 0
SMALL
GASTEIGER

@<TRIPOS>ATOM
      1  C          8.4110   -0.5280   -2.3160 C.3     1  UNL1        0.1270
      2  C          8.4760   -1.8670   -2.9500 C.2     1  UNL1        0.3030
      3  O          9.5630   -2.4860   -3.0530 O.2     1  UNL1       -0.2520
      4  O          7.3330   -2.4730   -3.4470 O.3     1  UNL1       -0.4810
      5  H          7.0350   -2.2690   -4.4050 H       1  UNL1        0.2960
      6  C          6.9730   -0.1180   -2.2280 C.3     1  UNL1        0.0470
      7  C          6.4800    0.0300   -0.8600 C.2     1  UNL1       -0.0470
      8  C          6.6290   -0.9870    0.0550 C.2     1  UNL1        0.0040
      9  C          5.8630    1.2030   -0.4910 C.2     1  UNL1        0.0040
     10  C          6.1350   -0.7760    1.3450 C.2     1  UNL1        0.0000
     11  C          5.3750    1.4100    0.7840 C.2     1  UNL1        0.0000
     12  C          5.5200    0.3970    1.7060 C.2     1  UNL1        0.0000
@<TRIPOS>BOND
     1     5     4    1
     2     4     2    1
     3     3     2    2
     4     2     1    1
     5     1     6    1
     6     6     7    1
     7     7     9    2
     8     7     8    1
     9     9    11    1
    10     8    10    2
    11    11    12    2
    12    10    12    1
