@<TRIPOS>MOLECULE
/home/cewinharhar/GITHUB/reincatalyze/data/processed/docking_pred/2023_Apr_20-15:07/5ba5439e64352188cd964ddb86dd28d806e95272_ligand_2.pdbqt
 12 12 0 0 0
SMALL
GASTEIGER

@<TRIPOS>ATOM
      1  C          8.4530    0.6340   -1.7180 C.3     1  UNL1        0.1270
      2  C          9.6040    0.2800   -0.8550 C.2     1  UNL1        0.3030
      3  O          9.4760   -0.5180    0.1070 O.2     1  UNL1       -0.2520
      4  O         10.8580    0.8210   -1.0870 O.3     1  UNL1       -0.4810
      5  H         11.6560    0.1950   -1.2260 H       1  UNL1        0.2960
      6  C          7.2990   -0.2480   -1.3490 C.3     1  UNL1        0.0470
      7  C          6.4090    0.3280   -0.3420 C.2     1  UNL1       -0.0470
      8  C          5.7940    1.5390   -0.5580 C.2     1  UNL1        0.0040
      9  C          6.1880   -0.3580    0.8300 C.2     1  UNL1        0.0040
     10  C          4.9560    2.0290    0.4470 C.2     1  UNL1        0.0000
     11  C          5.3590    0.1270    1.8220 C.2     1  UNL1        0.0000
     12  C          4.7400    1.3410    1.6140 C.2     1  UNL1        0.0000
@<TRIPOS>BOND
     1     1     6    1
     2     1     2    1
     3     6     7    1
     4     5     4    1
     5     4     2    1
     6     2     3    2
     7     8     7    2
     8     8    10    1
     9     7     9    1
    10    10    12    2
    11     9    11    2
    12    12    11    1
