MODEL 1
REMARK VINA RESULT:      -7.3      0.000      0.000
REMARK SMILES O=C(O)CCc1ccccc1
REMARK SMILES IDX 4 1 2 2 1 3 3 4 5 6 6 7 7 8 11 9 8 10 10 11 9 12
REMARK H PARENT 3 5
REMARK Flexibility Score: inf
ROOT
ATOM      1  C   UNL     1       8.411  -0.528  -2.316  1.00  0.00     0.127 C 
ENDROOT
BRANCH   1   2
ATOM      2  C   UNL     1       8.476  -1.867  -2.950  1.00  0.00     0.303 C 
ATOM      3  O   UNL     1       9.563  -2.486  -3.053  1.00  0.00    -0.252 OA
BRANCH   2   4
ATOM      4  O   UNL     1       7.333  -2.473  -3.447  1.00  0.00    -0.481 OA
ATOM      5  H   UNL     1       7.035  -2.269  -4.405  1.00  0.00     0.296 HD
ENDBRANCH   2   4
ENDBRANCH   1   2
BRANCH   1   6
ATOM      6  C   UNL     1       6.973  -0.118  -2.228  1.00  0.00     0.047 C 
BRANCH   6   7
ATOM      7  C   UNL     1       6.480   0.030  -0.860  1.00  0.00    -0.047 A 
ATOM      8  C   UNL     1       6.629  -0.987   0.055  1.00  0.00     0.004 A 
ATOM      9  C   UNL     1       5.863   1.203  -0.491  1.00  0.00     0.004 A 
ATOM     10  C   UNL     1       6.135  -0.776   1.345  1.00  0.00     0.000 A 
ATOM     11  C   UNL     1       5.375   1.410   0.784  1.00  0.00     0.000 A 
ATOM     12  C   UNL     1       5.520   0.397   1.706  1.00  0.00     0.000 A 
ENDBRANCH   6   7
ENDBRANCH   1   6
TORSDOF 4
ENDMDL
MODEL 2
REMARK VINA RESULT:      -7.3      0.166      1.734
REMARK SMILES O=C(O)CCc1ccccc1
REMARK SMILES IDX 4 1 2 2 1 3 3 4 5 6 6 7 7 8 11 9 8 10 10 11 9 12
REMARK H PARENT 3 5
REMARK Flexibility Score: inf
ROOT
ATOM      1  C   UNL     1       8.393  -0.621  -2.114  1.00  0.00     0.127 C 
ENDROOT
BRANCH   1   2
ATOM      2  C   UNL     1       8.366  -1.883  -2.890  1.00  0.00     0.303 C 
ATOM      3  O   UNL     1       7.281  -2.406  -3.247  1.00  0.00    -0.252 OA
BRANCH   2   4
ATOM      4  O   UNL     1       9.543  -2.524  -3.245  1.00  0.00    -0.481 OA
ATOM      5  H   UNL     1      10.215  -2.039  -3.846  1.00  0.00     0.296 HD
ENDBRANCH   2   4
ENDBRANCH   1   2
BRANCH   1   6
ATOM      6  C   UNL     1       7.005  -0.056  -2.087  1.00  0.00     0.047 C 
BRANCH   6   7
ATOM      7  C   UNL     1       6.453   0.101  -0.743  1.00  0.00    -0.047 A 
ATOM      8  C   UNL     1       5.814   1.262  -0.376  1.00  0.00     0.004 A 
ATOM      9  C   UNL     1       6.576  -0.931   0.158  1.00  0.00     0.004 A 
ATOM     10  C   UNL     1       5.311   1.342   0.924  1.00  0.00     0.000 A 
ATOM     11  C   UNL     1       6.078  -0.851   1.443  1.00  0.00     0.000 A 
ATOM     12  C   UNL     1       5.438   0.310   1.819  1.00  0.00     0.000 A 
ENDBRANCH   6   7
ENDBRANCH   1   6
TORSDOF 4
ENDMDL
MODEL 3
REMARK VINA RESULT:      -6.8      3.396      5.060
REMARK SMILES O=C(O)CCc1ccccc1
REMARK SMILES IDX 4 1 2 2 1 3 3 4 5 6 6 7 7 8 11 9 8 10 10 11 9 12
REMARK H PARENT 3 5
REMARK Flexibility Score: inf
ROOT
ATOM      1  C   UNL     1       4.999   1.809   0.716  1.00  0.00     0.127 C 
ENDROOT
BRANCH   1   2
ATOM      2  C   UNL     1       4.481   1.114   1.918  1.00  0.00     0.303 C 
ATOM      3  O   UNL     1       5.137   0.199   2.474  1.00  0.00    -0.252 OA
BRANCH   2   4
ATOM      4  O   UNL     1       3.253   1.456   2.462  1.00  0.00    -0.481 OA
ATOM      5  H   UNL     1       2.922   0.966   3.298  1.00  0.00     0.296 HD
ENDBRANCH   2   4
ENDBRANCH   1   2
BRANCH   1   6
ATOM      6  C   UNL     1       6.496   1.784   0.767  1.00  0.00     0.047 C 
BRANCH   6   7
ATOM      7  C   UNL     1       7.116   1.042  -0.329  1.00  0.00    -0.047 A 
ATOM      8  C   UNL     1       6.381   0.158  -1.084  1.00  0.00     0.004 A 
ATOM      9  C   UNL     1       8.450   1.239  -0.603  1.00  0.00     0.004 A 
ATOM     10  C   UNL     1       7.038  -0.516  -2.116  1.00  0.00     0.000 A 
ATOM     11  C   UNL     1       9.098   0.572  -1.624  1.00  0.00     0.000 A 
ATOM     12  C   UNL     1       8.369  -0.316  -2.384  1.00  0.00     0.000 A 
ENDBRANCH   6   7
ENDBRANCH   1   6
TORSDOF 4
ENDMDL
MODEL 4
REMARK VINA RESULT:      -6.6      3.712      5.043
REMARK SMILES O=C(O)CCc1ccccc1
REMARK SMILES IDX 4 1 2 2 1 3 3 4 5 6 6 7 7 8 11 9 8 10 10 11 9 12
REMARK H PARENT 3 5
REMARK Flexibility Score: inf
ROOT
ATOM      1  C   UNL     1       5.383   2.944   0.017  1.00  0.00     0.127 C 
ENDROOT
BRANCH   1   2
ATOM      2  C   UNL     1       6.248   3.832   0.828  1.00  0.00     0.303 C 
ATOM      3  O   UNL     1       6.891   4.773   0.301  1.00  0.00    -0.252 OA
BRANCH   2   4
ATOM      4  O   UNL     1       6.371   3.647   2.196  1.00  0.00    -0.481 OA
ATOM      5  H   UNL     1       6.170   4.427   2.827  1.00  0.00     0.296 HD
ENDBRANCH   2   4
ENDBRANCH   1   2
BRANCH   1   6
ATOM      6  C   UNL     1       5.186   1.663   0.769  1.00  0.00     0.047 C 
BRANCH   6   7
ATOM      7  C   UNL     1       5.996   0.552   0.273  1.00  0.00    -0.047 A 
ATOM      8  C   UNL     1       6.398   0.506  -1.042  1.00  0.00     0.004 A 
ATOM      9  C   UNL     1       6.358  -0.454   1.139  1.00  0.00     0.004 A 
ATOM     10  C   UNL     1       7.171  -0.585  -1.446  1.00  0.00     0.000 A 
ATOM     11  C   UNL     1       7.122  -1.532   0.738  1.00  0.00     0.000 A 
ATOM     12  C   UNL     1       7.528  -1.586  -0.578  1.00  0.00     0.000 A 
ENDBRANCH   6   7
ENDBRANCH   1   6
TORSDOF 4
ENDMDL
MODEL 5
REMARK VINA RESULT:      -6.6      2.067      2.730
REMARK SMILES O=C(O)CCc1ccccc1
REMARK SMILES IDX 4 1 2 2 1 3 3 4 5 6 6 7 7 8 11 9 8 10 10 11 9 12
REMARK H PARENT 3 5
REMARK Flexibility Score: inf
ROOT
ATOM      1  C   UNL     1       8.453   0.634  -1.718  1.00  0.00     0.127 C 
ENDROOT
BRANCH   1   2
ATOM      2  C   UNL     1       9.604   0.280  -0.855  1.00  0.00     0.303 C 
ATOM      3  O   UNL     1       9.476  -0.518   0.107  1.00  0.00    -0.252 OA
BRANCH   2   4
ATOM      4  O   UNL     1      10.858   0.821  -1.087  1.00  0.00    -0.481 OA
ATOM      5  H   UNL     1      11.656   0.195  -1.226  1.00  0.00     0.296 HD
ENDBRANCH   2   4
ENDBRANCH   1   2
BRANCH   1   6
ATOM      6  C   UNL     1       7.299  -0.248  -1.349  1.00  0.00     0.047 C 
BRANCH   6   7
ATOM      7  C   UNL     1       6.409   0.328  -0.342  1.00  0.00    -0.047 A 
ATOM      8  C   UNL     1       5.794   1.539  -0.558  1.00  0.00     0.004 A 
ATOM      9  C   UNL     1       6.188  -0.358   0.830  1.00  0.00     0.004 A 
ATOM     10  C   UNL     1       4.956   2.029   0.447  1.00  0.00     0.000 A 
ATOM     11  C   UNL     1       5.359   0.127   1.822  1.00  0.00     0.000 A 
ATOM     12  C   UNL     1       4.740   1.341   1.614  1.00  0.00     0.000 A 
ENDBRANCH   6   7
ENDBRANCH   1   6
TORSDOF 4
ENDMDL
