@<TRIPOS>MOLECULE
/home/cewinharhar/GITHUB/reincatalyze/data/processed/docking_pred/2023_Apr_20-15:07/5ba5439e64352188cd964ddb86dd28d806e95272_ligand_2.pdbqt
 12 12 0 0 0
SMALL
GASTEIGER

@<TRIPOS>ATOM
      1  C          4.9990    1.8090    0.7160 C.3     1  UNL1        0.1270
      2  C          4.4810    1.1140    1.9180 C.2     1  UNL1        0.3030
      3  O          5.1370    0.1990    2.4740 O.2     1  UNL1       -0.2520
      4  O          3.2530    1.4560    2.4620 O.3     1  UNL1       -0.4810
      5  H          2.9220    0.9660    3.2980 H       1  UNL1        0.2960
      6  C          6.4960    1.7840    0.7670 C.3     1  UNL1        0.0470
      7  C          7.1160    1.0420   -0.3290 C.2     1  UNL1       -0.0470
      8  C          6.3810    0.1580   -1.0840 C.2     1  UNL1        0.0040
      9  C          8.4500    1.2390   -0.6030 C.2     1  UNL1        0.0040
     10  C          7.0380   -0.5160   -2.1160 C.2     1  UNL1        0.0000
     11  C          9.0980    0.5720   -1.6240 C.2     1  UNL1        0.0000
     12  C          8.3690   -0.3160   -2.3840 C.2     1  UNL1        0.0000
@<TRIPOS>BOND
     1    12    10    2
     2    12    11    1
     3    10     8    1
     4    11     9    2
     5     8     7    2
     6     9     7    1
     7     7     6    1
     8     1     6    1
     9     1     2    1
    10     2     4    1
    11     2     3    2
    12     4     5    1
