@<TRIPOS>MOLECULE
/home/cewinharhar/GITHUB/reincatalyze/data/processed/docking_pred/2023_Apr_20-15:07/5bd4159c0713ad18fb2d2a846002564f6b7df27c_ligand_2.pdbqt
 12 12 0 0 0
SMALL
GASTEIGER

@<TRIPOS>ATOM
      1  C          8.4150   -0.6440   -2.0840 C.3     1  UNL1        0.1270
      2  C          8.3840   -1.8940   -2.8790 C.2     1  UNL1        0.3030
      3  O          7.2970   -2.4140   -3.2310 O.2     1  UNL1       -0.2520
      4  O          9.5590   -2.5240   -3.2570 O.3     1  UNL1       -0.4810
      5  H          9.8580   -2.4820   -4.2350 H       1  UNL1        0.2960
      6  C          7.0380   -0.0550   -2.0790 C.3     1  UNL1        0.0470
      7  C          6.4660    0.1100   -0.7430 C.2     1  UNL1       -0.0470
      8  C          5.8080    1.2680   -0.3980 C.2     1  UNL1        0.0040
      9  C          6.5920   -0.9100    0.1720 C.2     1  UNL1        0.0040
     10  C          5.2870    1.3560    0.8950 C.2     1  UNL1        0.0000
     11  C          6.0760   -0.8200    1.4490 C.2     1  UNL1        0.0000
     12  C          5.4160    0.3360    1.8030 C.2     1  UNL1        0.0000
@<TRIPOS>BOND
     1     5     4    1
     2     4     2    1
     3     3     2    2
     4     2     1    1
     5     1     6    1
     6     6     7    1
     7     7     8    2
     8     7     9    1
     9     8    10    1
    10     9    11    2
    11    10    12    2
    12    11    12    1
