@<TRIPOS>MOLECULE
/home/cewinharhar/GITHUB/reincatalyze/data/processed/docking_pred/2023_Apr_20-15:07/5bd4159c0713ad18fb2d2a846002564f6b7df27c_ligand_2.pdbqt
 12 12 0 0 0
SMALL
GASTEIGER

@<TRIPOS>ATOM
      1  C          7.2000   -1.2700   -2.3620 C.3     1  UNL1        0.1270
      2  C          8.2720   -2.2910   -2.2920 C.2     1  UNL1        0.3030
      3  O          9.1970   -2.3220   -3.1410 O.2     1  UNL1       -0.2520
      4  O          8.2820   -3.2430   -1.2860 O.3     1  UNL1       -0.4810
      5  H          7.9930   -4.2010   -1.5000 H       1  UNL1        0.2960
      6  C          7.6140   -0.0950   -1.5290 C.3     1  UNL1        0.0470
      7  C          6.7480    0.1530   -0.3780 C.2     1  UNL1       -0.0470
      8  C          6.6980   -0.7370    0.6690 C.2     1  UNL1        0.0040
      9  C          5.9800    1.2940   -0.3490 C.2     1  UNL1        0.0040
     10  C          5.8490   -0.4360    1.7370 C.2     1  UNL1        0.0000
     11  C          5.1410    1.5900    0.7070 C.2     1  UNL1        0.0000
     12  C          5.0840    0.7030    1.7590 C.2     1  UNL1        0.0000
@<TRIPOS>BOND
     1     3     2    2
     2     1     2    1
     3     1     6    1
     4     2     4    1
     5     6     7    1
     6     5     4    1
     7     7     9    2
     8     7     8    1
     9     9    11    1
    10     8    10    2
    11    11    12    2
    12    10    12    1
