@<TRIPOS>MOLECULE
/home/cewinharhar/GITHUB/reincatalyze/data/processed/docking_pred/2023_Apr_20-15:07/5bd4159c0713ad18fb2d2a846002564f6b7df27c_ligand_2.pdbqt
 12 12 0 0 0
SMALL
GASTEIGER

@<TRIPOS>ATOM
      1  C          8.2360   -0.9130   -1.8670 C.3     1  UNL1        0.1270
      2  C          8.3860   -2.0140   -2.8480 C.2     1  UNL1        0.3030
      3  O          9.5110   -2.5080   -3.1040 O.2     1  UNL1       -0.2520
      4  O          7.2830   -2.5300   -3.5100 O.3     1  UNL1       -0.4810
      5  H          6.7810   -3.3240   -3.1030 H       1  UNL1        0.2960
      6  C          7.3860   -1.4030   -0.7350 C.3     1  UNL1        0.0470
      7  C          6.5640   -0.3640   -0.1160 C.2     1  UNL1       -0.0470
      8  C          6.1190   -0.4980    1.1790 C.2     1  UNL1        0.0040
      9  C          6.2400    0.7580   -0.8430 C.2     1  UNL1        0.0040
     10  C          5.3390    0.5340    1.7060 C.2     1  UNL1        0.0000
     11  C          5.4680    1.7770   -0.3210 C.2     1  UNL1        0.0000
     12  C          5.0180    1.6500    0.9750 C.2     1  UNL1        0.0000
@<TRIPOS>BOND
     1     4     5    1
     2     4     2    1
     3     3     2    2
     4     2     1    1
     5     1     6    1
     6     9    11    1
     7     9     7    2
     8     6     7    1
     9    11    12    2
    10     7     8    1
    11    12    10    1
    12     8    10    2
