@<TRIPOS>MOLECULE
/home/cewinharhar/GITHUB/reincatalyze/data/processed/docking_pred/2023_Apr_20-15:07/5bd4159c0713ad18fb2d2a846002564f6b7df27c_ligand_2.pdbqt
 12 12 0 0 0
SMALL
GASTEIGER

@<TRIPOS>ATOM
      1  C          8.4840   -0.6600   -2.0450 C.3     1  UNL1        0.1270
      2  C          8.4140   -1.8960   -2.8600 C.2     1  UNL1        0.3030
      3  O          7.3100   -2.3900   -3.1980 O.2     1  UNL1       -0.2520
      4  O          9.5680   -2.5410   -3.2720 O.3     1  UNL1       -0.4810
      5  H         10.3090   -2.7260   -2.5900 H       1  UNL1        0.2960
      6  C          7.1310   -0.0170   -2.0480 C.3     1  UNL1        0.0470
      7  C          6.5250    0.1000   -0.7220 C.2     1  UNL1       -0.0470
      8  C          6.6450   -0.9160    0.1970 C.2     1  UNL1        0.0040
      9  C          5.8310    1.2420   -0.3990 C.2     1  UNL1        0.0040
     10  C          6.0410   -0.7370    1.4440 C.2     1  UNL1        0.0000
     11  C          5.2340    1.4180    0.8330 C.2     1  UNL1        0.0000
     12  C          5.3490    0.4050    1.7600 C.2     1  UNL1        0.0000
@<TRIPOS>BOND
     1     4     2    1
     2     4     5    1
     3     3     2    2
     4     2     1    1
     5     6     1    1
     6     6     7    1
     7     7     9    2
     8     7     8    1
     9     9    11    1
    10     8    10    2
    11    11    12    2
    12    10    12    1
