MODEL 1
REMARK VINA RESULT:      -7.3      0.000      0.000
REMARK SMILES O=C(O)CCc1ccccc1
REMARK SMILES IDX 4 1 2 2 1 3 3 4 5 6 6 7 7 8 11 9 8 10 10 11 9 12
REMARK H PARENT 3 5
REMARK Flexibility Score: inf
ROOT
ATOM      1  C   UNL     1       8.415  -0.644  -2.084  1.00  0.00     0.127 C 
ENDROOT
BRANCH   1   2
ATOM      2  C   UNL     1       8.384  -1.894  -2.879  1.00  0.00     0.303 C 
ATOM      3  O   UNL     1       7.297  -2.414  -3.231  1.00  0.00    -0.252 OA
BRANCH   2   4
ATOM      4  O   UNL     1       9.559  -2.524  -3.257  1.00  0.00    -0.481 OA
ATOM      5  H   UNL     1       9.858  -2.482  -4.235  1.00  0.00     0.296 HD
ENDBRANCH   2   4
ENDBRANCH   1   2
BRANCH   1   6
ATOM      6  C   UNL     1       7.038  -0.055  -2.079  1.00  0.00     0.047 C 
BRANCH   6   7
ATOM      7  C   UNL     1       6.466   0.110  -0.743  1.00  0.00    -0.047 A 
ATOM      8  C   UNL     1       5.808   1.268  -0.398  1.00  0.00     0.004 A 
ATOM      9  C   UNL     1       6.592  -0.910   0.172  1.00  0.00     0.004 A 
ATOM     10  C   UNL     1       5.287   1.356   0.895  1.00  0.00     0.000 A 
ATOM     11  C   UNL     1       6.076  -0.820   1.449  1.00  0.00     0.000 A 
ATOM     12  C   UNL     1       5.416   0.336   1.803  1.00  0.00     0.000 A 
ENDBRANCH   6   7
ENDBRANCH   1   6
TORSDOF 4
ENDMDL
MODEL 2
REMARK VINA RESULT:      -7.3      0.074      1.438
REMARK SMILES O=C(O)CCc1ccccc1
REMARK SMILES IDX 4 1 2 2 1 3 3 4 5 6 6 7 7 8 11 9 8 10 10 11 9 12
REMARK H PARENT 3 5
REMARK Flexibility Score: inf
ROOT
ATOM      1  C   UNL     1       8.484  -0.660  -2.045  1.00  0.00     0.127 C 
ENDROOT
BRANCH   1   2
ATOM      2  C   UNL     1       8.414  -1.896  -2.860  1.00  0.00     0.303 C 
ATOM      3  O   UNL     1       7.310  -2.390  -3.198  1.00  0.00    -0.252 OA
BRANCH   2   4
ATOM      4  O   UNL     1       9.568  -2.541  -3.272  1.00  0.00    -0.481 OA
ATOM      5  H   UNL     1      10.309  -2.726  -2.590  1.00  0.00     0.296 HD
ENDBRANCH   2   4
ENDBRANCH   1   2
BRANCH   1   6
ATOM      6  C   UNL     1       7.131  -0.017  -2.048  1.00  0.00     0.047 C 
BRANCH   6   7
ATOM      7  C   UNL     1       6.525   0.100  -0.722  1.00  0.00    -0.047 A 
ATOM      8  C   UNL     1       6.645  -0.916   0.197  1.00  0.00     0.004 A 
ATOM      9  C   UNL     1       5.831   1.242  -0.399  1.00  0.00     0.004 A 
ATOM     10  C   UNL     1       6.041  -0.737   1.444  1.00  0.00     0.000 A 
ATOM     11  C   UNL     1       5.234   1.418   0.833  1.00  0.00     0.000 A 
ATOM     12  C   UNL     1       5.349   0.405   1.760  1.00  0.00     0.000 A 
ENDBRANCH   6   7
ENDBRANCH   1   6
TORSDOF 4
ENDMDL
MODEL 3
REMARK VINA RESULT:      -7.3      0.614      1.871
REMARK SMILES O=C(O)CCc1ccccc1
REMARK SMILES IDX 4 1 2 2 1 3 3 4 5 6 6 7 7 8 11 9 8 10 10 11 9 12
REMARK H PARENT 3 5
REMARK Flexibility Score: inf
ROOT
ATOM      1  C   UNL     1       8.236  -0.913  -1.867  1.00  0.00     0.127 C 
ENDROOT
BRANCH   1   2
ATOM      2  C   UNL     1       8.386  -2.014  -2.848  1.00  0.00     0.303 C 
ATOM      3  O   UNL     1       9.511  -2.508  -3.104  1.00  0.00    -0.252 OA
BRANCH   2   4
ATOM      4  O   UNL     1       7.283  -2.530  -3.510  1.00  0.00    -0.481 OA
ATOM      5  H   UNL     1       6.781  -3.324  -3.103  1.00  0.00     0.296 HD
ENDBRANCH   2   4
ENDBRANCH   1   2
BRANCH   1   6
ATOM      6  C   UNL     1       7.386  -1.403  -0.735  1.00  0.00     0.047 C 
BRANCH   6   7
ATOM      7  C   UNL     1       6.564  -0.364  -0.116  1.00  0.00    -0.047 A 
ATOM      8  C   UNL     1       6.119  -0.498   1.179  1.00  0.00     0.004 A 
ATOM      9  C   UNL     1       6.240   0.758  -0.843  1.00  0.00     0.004 A 
ATOM     10  C   UNL     1       5.339   0.534   1.706  1.00  0.00     0.000 A 
ATOM     11  C   UNL     1       5.468   1.777  -0.321  1.00  0.00     0.000 A 
ATOM     12  C   UNL     1       5.018   1.650   0.975  1.00  0.00     0.000 A 
ENDBRANCH   6   7
ENDBRANCH   1   6
TORSDOF 4
ENDMDL
MODEL 4
REMARK VINA RESULT:      -6.8      0.931      1.813
REMARK SMILES O=C(O)CCc1ccccc1
REMARK SMILES IDX 4 1 2 2 1 3 3 4 5 6 6 7 7 8 11 9 8 10 10 11 9 12
REMARK H PARENT 3 5
REMARK Flexibility Score: inf
ROOT
ATOM      1  C   UNL     1       7.200  -1.270  -2.362  1.00  0.00     0.127 C 
ENDROOT
BRANCH   1   2
ATOM      2  C   UNL     1       8.272  -2.291  -2.292  1.00  0.00     0.303 C 
ATOM      3  O   UNL     1       9.197  -2.322  -3.141  1.00  0.00    -0.252 OA
BRANCH   2   4
ATOM      4  O   UNL     1       8.282  -3.243  -1.286  1.00  0.00    -0.481 OA
ATOM      5  H   UNL     1       7.993  -4.201  -1.500  1.00  0.00     0.296 HD
ENDBRANCH   2   4
ENDBRANCH   1   2
BRANCH   1   6
ATOM      6  C   UNL     1       7.614  -0.095  -1.529  1.00  0.00     0.047 C 
BRANCH   6   7
ATOM      7  C   UNL     1       6.748   0.153  -0.378  1.00  0.00    -0.047 A 
ATOM      8  C   UNL     1       6.698  -0.737   0.669  1.00  0.00     0.004 A 
ATOM      9  C   UNL     1       5.980   1.294  -0.349  1.00  0.00     0.004 A 
ATOM     10  C   UNL     1       5.849  -0.436   1.737  1.00  0.00     0.000 A 
ATOM     11  C   UNL     1       5.141   1.590   0.707  1.00  0.00     0.000 A 
ATOM     12  C   UNL     1       5.084   0.703   1.759  1.00  0.00     0.000 A 
ENDBRANCH   6   7
ENDBRANCH   1   6
TORSDOF 4
ENDMDL
MODEL 5
REMARK VINA RESULT:      -6.7      1.943      2.574
REMARK SMILES O=C(O)CCc1ccccc1
REMARK SMILES IDX 4 1 2 2 1 3 3 4 5 6 6 7 7 8 11 9 8 10 10 11 9 12
REMARK H PARENT 3 5
REMARK Flexibility Score: inf
ROOT
ATOM      1  C   UNL     1       8.153   0.268  -2.055  1.00  0.00     0.127 C 
ENDROOT
BRANCH   1   2
ATOM      2  C   UNL     1       9.346   0.360  -1.181  1.00  0.00     0.303 C 
ATOM      3  O   UNL     1       9.478  -0.387  -0.180  1.00  0.00    -0.252 OA
BRANCH   2   4
ATOM      4  O   UNL     1      10.352   1.275  -1.447  1.00  0.00    -0.481 OA
ATOM      5  H   UNL     1      10.103   2.216  -1.763  1.00  0.00     0.296 HD
ENDBRANCH   2   4
ENDBRANCH   1   2
BRANCH   1   6
ATOM      6  C   UNL     1       7.134  -0.594  -1.373  1.00  0.00     0.047 C 
BRANCH   6   7
ATOM      7  C   UNL     1       6.343   0.107  -0.363  1.00  0.00    -0.047 A 
ATOM      8  C   UNL     1       6.129  -0.452   0.875  1.00  0.00     0.004 A 
ATOM      9  C   UNL     1       5.812   1.340  -0.663  1.00  0.00     0.004 A 
ATOM     10  C   UNL     1       5.364   0.274   1.791  1.00  0.00     0.000 A 
ATOM     11  C   UNL     1       5.056   2.057   0.243  1.00  0.00     0.000 A 
ATOM     12  C   UNL     1       4.836   1.503   1.486  1.00  0.00     0.000 A 
ENDBRANCH   6   7
ENDBRANCH   1   6
TORSDOF 4
ENDMDL
