@<TRIPOS>MOLECULE
/home/cewinharhar/GITHUB/reincatalyze/data/processed/docking_pred/2023_Apr_20-15:07/5bd4159c0713ad18fb2d2a846002564f6b7df27c_ligand_2.pdbqt
 12 12 0 0 0
SMALL
GASTEIGER

@<TRIPOS>ATOM
      1  C          8.1530    0.2680   -2.0550 C.3     1  UNL1        0.1270
      2  C          9.3460    0.3600   -1.1810 C.2     1  UNL1        0.3030
      3  O          9.4780   -0.3870   -0.1800 O.2     1  UNL1       -0.2520
      4  O         10.3520    1.2750   -1.4470 O.3     1  UNL1       -0.4810
      5  H         10.1030    2.2160   -1.7630 H       1  UNL1        0.2960
      6  C          7.1340   -0.5940   -1.3730 C.3     1  UNL1        0.0470
      7  C          6.3430    0.1070   -0.3630 C.2     1  UNL1       -0.0470
      8  C          6.1290   -0.4520    0.8750 C.2     1  UNL1        0.0040
      9  C          5.8120    1.3400   -0.6630 C.2     1  UNL1        0.0040
     10  C          5.3640    0.2740    1.7910 C.2     1  UNL1        0.0000
     11  C          5.0560    2.0570    0.2430 C.2     1  UNL1        0.0000
     12  C          4.8360    1.5030    1.4860 C.2     1  UNL1        0.0000
@<TRIPOS>BOND
     1     1     6    1
     2     1     2    1
     3     5     4    1
     4     4     2    1
     5     6     7    1
     6     2     3    2
     7     9     7    2
     8     9    11    1
     9     7     8    1
    10    11    12    2
    11     8    10    2
    12    12    10    1
