@<TRIPOS>MOLECULE
/home/cewinharhar/GITHUB/reincatalyze/data/processed/docking_pred/2023_Apr_20-15:07/5be73a077ea639c014f12358d863af943f9e92ef_ligand_2.pdbqt
 12 12 0 0 0
SMALL
GASTEIGER

@<TRIPOS>ATOM
      1  C          5.0500    1.7180    0.6640 C.3     1  UNL1        0.1270
      2  C          4.6010    1.0510    1.9080 C.2     1  UNL1        0.3030
      3  O          5.3250    0.2070    2.4920 O.2     1  UNL1       -0.2520
      4  O          3.3650    1.3400    2.4620 O.3     1  UNL1       -0.4810
      5  H          2.7600    0.5720    2.7680 H       1  UNL1        0.2960
      6  C          6.5470    1.7840    0.6780 C.3     1  UNL1        0.0470
      7  C          7.1860    1.0130   -0.3870 C.2     1  UNL1       -0.0470
      8  C          8.5150    1.2000   -0.6900 C.2     1  UNL1        0.0040
      9  C          6.4430    0.0920   -1.0880 C.2     1  UNL1        0.0040
     10  C          9.0600    0.4280   -1.7190 C.2     1  UNL1        0.0000
     11  C          6.9830   -0.6690   -2.1050 C.2     1  UNL1        0.0000
     12  C          8.3140   -0.4880   -2.4150 C.2     1  UNL1        0.0000
@<TRIPOS>BOND
     1    12    11    2
     2    12    10    1
     3    11     9    1
     4    10     8    2
     5     9     7    2
     6     8     7    1
     7     7     6    1
     8     1     6    1
     9     1     2    1
    10     2     4    1
    11     2     3    2
    12     4     5    1
