MODEL 1
REMARK VINA RESULT:      -7.4      0.000      0.000
REMARK SMILES O=C(O)CCc1ccccc1
REMARK SMILES IDX 4 1 2 2 1 3 3 4 5 6 6 7 7 8 11 9 8 10 10 11 9 12
REMARK H PARENT 3 5
REMARK Flexibility Score: inf
ROOT
ATOM      1  C   UNL     1       8.438  -0.598  -2.179  1.00  0.00     0.127 C 
ENDROOT
BRANCH   1   2
ATOM      2  C   UNL     1       8.502  -1.888  -2.904  1.00  0.00     0.303 C 
ATOM      3  O   UNL     1       9.594  -2.483  -3.078  1.00  0.00    -0.252 OA
BRANCH   2   4
ATOM      4  O   UNL     1       7.355  -2.475  -3.413  1.00  0.00    -0.481 OA
ATOM      5  H   UNL     1       6.461  -2.321  -2.939  1.00  0.00     0.296 HD
ENDBRANCH   2   4
ENDBRANCH   1   2
BRANCH   1   6
ATOM      6  C   UNL     1       7.010  -0.142  -2.155  1.00  0.00     0.047 C 
BRANCH   6   7
ATOM      7  C   UNL     1       6.472   0.056  -0.810  1.00  0.00    -0.047 A 
ATOM      8  C   UNL     1       5.833   1.226  -0.474  1.00  0.00     0.004 A 
ATOM      9  C   UNL     1       6.609  -0.947   0.122  1.00  0.00     0.004 A 
ATOM     10  C   UNL     1       5.342   1.346   0.829  1.00  0.00     0.000 A 
ATOM     11  C   UNL     1       6.124  -0.827   1.409  1.00  0.00     0.000 A 
ATOM     12  C   UNL     1       5.483   0.343   1.755  1.00  0.00     0.000 A 
ENDBRANCH   6   7
ENDBRANCH   1   6
TORSDOF 4
ENDMDL
MODEL 2
REMARK VINA RESULT:      -7.4      0.064      1.438
REMARK SMILES O=C(O)CCc1ccccc1
REMARK SMILES IDX 4 1 2 2 1 3 3 4 5 6 6 7 7 8 11 9 8 10 10 11 9 12
REMARK H PARENT 3 5
REMARK Flexibility Score: inf
ROOT
ATOM      1  C   UNL     1       8.428  -0.549  -2.231  1.00  0.00     0.127 C 
ENDROOT
BRANCH   1   2
ATOM      2  C   UNL     1       8.477  -1.858  -2.924  1.00  0.00     0.303 C 
ATOM      3  O   UNL     1       9.562  -2.471  -3.080  1.00  0.00    -0.252 OA
BRANCH   2   4
ATOM      4  O   UNL     1       7.323  -2.442  -3.421  1.00  0.00    -0.481 OA
ATOM      5  H   UNL     1       6.749  -3.021  -2.803  1.00  0.00     0.296 HD
ENDBRANCH   2   4
ENDBRANCH   1   2
BRANCH   1   6
ATOM      6  C   UNL     1       7.001  -0.095  -2.182  1.00  0.00     0.047 C 
BRANCH   6   7
ATOM      7  C   UNL     1       6.470   0.053  -0.828  1.00  0.00    -0.047 A 
ATOM      8  C   UNL     1       6.601  -0.960   0.093  1.00  0.00     0.004 A 
ATOM      9  C   UNL     1       5.837   1.223  -0.480  1.00  0.00     0.004 A 
ATOM     10  C   UNL     1       6.071  -0.749   1.368  1.00  0.00     0.000 A 
ATOM     11  C   UNL     1       5.313   1.430   0.781  1.00  0.00     0.000 A 
ATOM     12  C   UNL     1       5.439   0.420   1.710  1.00  0.00     0.000 A 
ENDBRANCH   6   7
ENDBRANCH   1   6
TORSDOF 4
ENDMDL
MODEL 3
REMARK VINA RESULT:      -7.1      0.691      1.495
REMARK SMILES O=C(O)CCc1ccccc1
REMARK SMILES IDX 4 1 2 2 1 3 3 4 5 6 6 7 7 8 11 9 8 10 10 11 9 12
REMARK H PARENT 3 5
REMARK Flexibility Score: inf
ROOT
ATOM      1  C   UNL     1       8.383  -0.905  -1.774  1.00  0.00     0.127 C 
ENDROOT
BRANCH   1   2
ATOM      2  C   UNL     1       8.346  -1.959  -2.815  1.00  0.00     0.303 C 
ATOM      3  O   UNL     1       7.256  -2.380  -3.276  1.00  0.00    -0.252 OA
BRANCH   2   4
ATOM      4  O   UNL     1       9.517  -2.511  -3.308  1.00  0.00    -0.481 OA
ATOM      5  H   UNL     1      10.090  -1.970  -3.961  1.00  0.00     0.296 HD
ENDBRANCH   2   4
ENDBRANCH   1   2
BRANCH   1   6
ATOM      6  C   UNL     1       7.495  -1.328  -0.643  1.00  0.00     0.047 C 
BRANCH   6   7
ATOM      7  C   UNL     1       6.622  -0.267  -0.144  1.00  0.00    -0.047 A 
ATOM      8  C   UNL     1       6.296   0.808  -0.938  1.00  0.00     0.004 A 
ATOM      9  C   UNL     1       6.123  -0.355   1.135  1.00  0.00     0.004 A 
ATOM     10  C   UNL     1       5.456   1.783  -0.396  1.00  0.00     0.000 A 
ATOM     11  C   UNL     1       5.293   0.610   1.670  1.00  0.00     0.000 A 
ATOM     12  C   UNL     1       4.963   1.691   0.881  1.00  0.00     0.000 A 
ENDBRANCH   6   7
ENDBRANCH   1   6
TORSDOF 4
ENDMDL
MODEL 4
REMARK VINA RESULT:      -6.7      3.351      5.019
REMARK SMILES O=C(O)CCc1ccccc1
REMARK SMILES IDX 4 1 2 2 1 3 3 4 5 6 6 7 7 8 11 9 8 10 10 11 9 12
REMARK H PARENT 3 5
REMARK Flexibility Score: inf
ROOT
ATOM      1  C   UNL     1       5.050   1.718   0.664  1.00  0.00     0.127 C 
ENDROOT
BRANCH   1   2
ATOM      2  C   UNL     1       4.601   1.051   1.908  1.00  0.00     0.303 C 
ATOM      3  O   UNL     1       5.325   0.207   2.492  1.00  0.00    -0.252 OA
BRANCH   2   4
ATOM      4  O   UNL     1       3.365   1.340   2.462  1.00  0.00    -0.481 OA
ATOM      5  H   UNL     1       2.760   0.572   2.768  1.00  0.00     0.296 HD
ENDBRANCH   2   4
ENDBRANCH   1   2
BRANCH   1   6
ATOM      6  C   UNL     1       6.547   1.784   0.678  1.00  0.00     0.047 C 
BRANCH   6   7
ATOM      7  C   UNL     1       7.186   1.013  -0.387  1.00  0.00    -0.047 A 
ATOM      8  C   UNL     1       8.515   1.200  -0.690  1.00  0.00     0.004 A 
ATOM      9  C   UNL     1       6.443   0.092  -1.088  1.00  0.00     0.004 A 
ATOM     10  C   UNL     1       9.060   0.428  -1.719  1.00  0.00     0.000 A 
ATOM     11  C   UNL     1       6.983  -0.669  -2.105  1.00  0.00     0.000 A 
ATOM     12  C   UNL     1       8.314  -0.488  -2.415  1.00  0.00     0.000 A 
ENDBRANCH   6   7
ENDBRANCH   1   6
TORSDOF 4
ENDMDL
MODEL 5
REMARK VINA RESULT:      -6.7      1.914      2.658
REMARK SMILES O=C(O)CCc1ccccc1
REMARK SMILES IDX 4 1 2 2 1 3 3 4 5 6 6 7 7 8 11 9 8 10 10 11 9 12
REMARK H PARENT 3 5
REMARK Flexibility Score: inf
ROOT
ATOM      1  C   UNL     1       8.237   0.247  -2.218  1.00  0.00     0.127 C 
ENDROOT
BRANCH   1   2
ATOM      2  C   UNL     1       9.357   0.343  -1.252  1.00  0.00     0.303 C 
ATOM      3  O   UNL     1       9.429  -0.425  -0.261  1.00  0.00    -0.252 OA
BRANCH   2   4
ATOM      4  O   UNL     1      10.358   1.287  -1.416  1.00  0.00    -0.481 OA
ATOM      5  H   UNL     1      10.113   2.281  -1.427  1.00  0.00     0.296 HD
ENDBRANCH   2   4
ENDBRANCH   1   2
BRANCH   1   6
ATOM      6  C   UNL     1       7.116  -0.503  -1.566  1.00  0.00     0.047 C 
BRANCH   6   7
ATOM      7  C   UNL     1       6.344   0.291  -0.612  1.00  0.00    -0.047 A 
ATOM      8  C   UNL     1       6.124  -0.165   0.667  1.00  0.00     0.004 A 
ATOM      9  C   UNL     1       5.838   1.508  -1.006  1.00  0.00     0.004 A 
ATOM     10  C   UNL     1       5.379   0.647   1.525  1.00  0.00     0.000 A 
ATOM     11  C   UNL     1       5.102   2.310  -0.157  1.00  0.00     0.000 A 
ATOM     12  C   UNL     1       4.876   1.860   1.126  1.00  0.00     0.000 A 
ENDBRANCH   6   7
ENDBRANCH   1   6
TORSDOF 4
ENDMDL
