@<TRIPOS>MOLECULE
/home/cewinharhar/GITHUB/reincatalyze/data/processed/docking_pred/2023_Apr_20-15:07/5be73a077ea639c014f12358d863af943f9e92ef_ligand_2.pdbqt
 12 12 0 0 0
SMALL
GASTEIGER

@<TRIPOS>ATOM
      1  C          8.2370    0.2470   -2.2180 C.3     1  UNL1        0.1270
      2  C          9.3570    0.3430   -1.2520 C.2     1  UNL1        0.3030
      3  O          9.4290   -0.4250   -0.2610 O.2     1  UNL1       -0.2520
      4  O         10.3580    1.2870   -1.4160 O.3     1  UNL1       -0.4810
      5  H         10.1130    2.2810   -1.4270 H       1  UNL1        0.2960
      6  C          7.1160   -0.5030   -1.5660 C.3     1  UNL1        0.0470
      7  C          6.3440    0.2910   -0.6120 C.2     1  UNL1       -0.0470
      8  C          6.1240   -0.1650    0.6670 C.2     1  UNL1        0.0040
      9  C          5.8380    1.5080   -1.0060 C.2     1  UNL1        0.0040
     10  C          5.3790    0.6470    1.5250 C.2     1  UNL1        0.0000
     11  C          5.1020    2.3100   -0.1570 C.2     1  UNL1        0.0000
     12  C          4.8760    1.8600    1.1260 C.2     1  UNL1        0.0000
@<TRIPOS>BOND
     1     1     6    1
     2     1     2    1
     3     6     7    1
     4     5     4    1
     5     4     2    1
     6     2     3    2
     7     9     7    2
     8     9    11    1
     9     7     8    1
    10    11    12    2
    11     8    10    2
    12    12    10    1
