@<TRIPOS>MOLECULE
/home/cewinharhar/GITHUB/reincatalyze/data/processed/docking_pred/2023_Apr_20-15:07/5be73a077ea639c014f12358d863af943f9e92ef_ligand_2.pdbqt
 12 12 0 0 0
SMALL
GASTEIGER

@<TRIPOS>ATOM
      1  C          8.4280   -0.5490   -2.2310 C.3     1  UNL1        0.1270
      2  C          8.4770   -1.8580   -2.9240 C.2     1  UNL1        0.3030
      3  O          9.5620   -2.4710   -3.0800 O.2     1  UNL1       -0.2520
      4  O          7.3230   -2.4420   -3.4210 O.3     1  UNL1       -0.4810
      5  H          6.7490   -3.0210   -2.8030 H       1  UNL1        0.2960
      6  C          7.0010   -0.0950   -2.1820 C.3     1  UNL1        0.0470
      7  C          6.4700    0.0530   -0.8280 C.2     1  UNL1       -0.0470
      8  C          6.6010   -0.9600    0.0930 C.2     1  UNL1        0.0040
      9  C          5.8370    1.2230   -0.4800 C.2     1  UNL1        0.0040
     10  C          6.0710   -0.7490    1.3680 C.2     1  UNL1        0.0000
     11  C          5.3130    1.4300    0.7810 C.2     1  UNL1        0.0000
     12  C          5.4390    0.4200    1.7100 C.2     1  UNL1        0.0000
@<TRIPOS>BOND
     1     4     2    1
     2     4     5    1
     3     3     2    2
     4     2     1    1
     5     1     6    1
     6     6     7    1
     7     7     9    2
     8     7     8    1
     9     9    11    1
    10     8    10    2
    11    11    12    2
    12    10    12    1
