@<TRIPOS>MOLECULE
/home/cewinharhar/GITHUB/reincatalyze/data/processed/docking_pred/2023_Apr_20-15:07/5be73a077ea639c014f12358d863af943f9e92ef_ligand_2.pdbqt
 12 12 0 0 0
SMALL
GASTEIGER

@<TRIPOS>ATOM
      1  C          8.3830   -0.9050   -1.7740 C.3     1  UNL1        0.1270
      2  C          8.3460   -1.9590   -2.8150 C.2     1  UNL1        0.3030
      3  O          7.2560   -2.3800   -3.2760 O.2     1  UNL1       -0.2520
      4  O          9.5170   -2.5110   -3.3080 O.3     1  UNL1       -0.4810
      5  H         10.0900   -1.9700   -3.9610 H       1  UNL1        0.2960
      6  C          7.4950   -1.3280   -0.6430 C.3     1  UNL1        0.0470
      7  C          6.6220   -0.2670   -0.1440 C.2     1  UNL1       -0.0470
      8  C          6.2960    0.8080   -0.9380 C.2     1  UNL1        0.0040
      9  C          6.1230   -0.3550    1.1350 C.2     1  UNL1        0.0040
     10  C          5.4560    1.7830   -0.3960 C.2     1  UNL1        0.0000
     11  C          5.2930    0.6100    1.6700 C.2     1  UNL1        0.0000
     12  C          4.9630    1.6910    0.8810 C.2     1  UNL1        0.0000
@<TRIPOS>BOND
     1     5     4    1
     2     4     2    1
     3     3     2    2
     4     2     1    1
     5     1     6    1
     6     8    10    1
     7     8     7    2
     8     6     7    1
     9    10    12    2
    10     7     9    1
    11    12    11    1
    12     9    11    2
