@<TRIPOS>MOLECULE
/home/cewinharhar/GITHUB/reincatalyze/data/processed/docking_pred/2023_Apr_20-15:07/5c54d156b22251270ecdcbd3d684e6dc7dd5ede7_ligand_2.pdbqt
 12 12 0 0 0
SMALL
GASTEIGER

@<TRIPOS>ATOM
      1  C          8.2010   -1.5080    1.0890 C.3     1  UNL1        0.1270
      2  C          8.4840   -2.7470    0.3260 C.2     1  UNL1        0.3030
      3  O          9.0980   -3.7080    0.8510 O.2     1  UNL1       -0.2520
      4  O          8.0760   -2.8790   -0.9910 O.3     1  UNL1       -0.4810
      5  H          8.7540   -2.7270   -1.7430 H       1  UNL1        0.2960
      6  C          6.7200   -1.4040    1.2860 C.3     1  UNL1        0.0470
      7  C          6.1430   -0.1500    0.8060 C.2     1  UNL1       -0.0470
      8  C          5.3650    0.6280    1.6320 C.2     1  UNL1        0.0040
      9  C          6.3880    0.2510   -0.4870 C.2     1  UNL1        0.0040
     10  C          4.8470    1.8150    1.1070 C.2     1  UNL1        0.0000
     11  C          5.8760    1.4240   -1.0050 C.2     1  UNL1        0.0000
     12  C          5.0940    2.2080   -0.1840 C.2     1  UNL1        0.0000
@<TRIPOS>BOND
     1     5     4    1
     2    11     9    1
     3    11    12    2
     4     4     2    1
     5     9     7    2
     6    12    10    1
     7     2     3    2
     8     2     1    1
     9     7     6    1
    10     7     8    1
    11     1     6    1
    12    10     8    2
