@<TRIPOS>MOLECULE
/home/cewinharhar/GITHUB/reincatalyze/data/processed/docking_pred/2023_Apr_20-15:07/5c54d156b22251270ecdcbd3d684e6dc7dd5ede7_ligand_2.pdbqt
 12 12 0 0 0
SMALL
GASTEIGER

@<TRIPOS>ATOM
      1  C          4.9790    1.7730    0.6730 C.3     1  UNL1        0.1270
      2  C          4.4860    1.1070    1.9010 C.2     1  UNL1        0.3030
      3  O          5.1590    0.2140    2.4720 O.2     1  UNL1       -0.2520
      4  O          3.2640    1.4540    2.4550 O.3     1  UNL1       -0.4810
      5  H          2.4420    0.8780    2.2530 H       1  UNL1        0.2960
      6  C          6.4770    1.7960    0.7180 C.3     1  UNL1        0.0470
      7  C          7.1160    1.0380   -0.3550 C.2     1  UNL1       -0.0470
      8  C          6.3970    0.1350   -1.1030 C.2     1  UNL1        0.0040
      9  C          8.4520    1.2370   -0.6150 C.2     1  UNL1        0.0040
     10  C          7.0720   -0.5540   -2.1140 C.2     1  UNL1        0.0000
     11  C          9.1180    0.5560   -1.6140 C.2     1  UNL1        0.0000
     12  C          8.4050   -0.3510   -2.3680 C.2     1  UNL1        0.0000
@<TRIPOS>BOND
     1    12    10    2
     2    12    11    1
     3    10     8    1
     4    11     9    2
     5     8     7    2
     6     9     7    1
     7     7     6    1
     8     1     6    1
     9     1     2    1
    10     2     4    1
    11     2     3    2
    12     5     4    1
