@<TRIPOS>MOLECULE
/home/cewinharhar/GITHUB/reincatalyze/data/processed/docking_pred/2023_Apr_20-15:07/5c54d156b22251270ecdcbd3d684e6dc7dd5ede7_ligand_2.pdbqt
 12 12 0 0 0
SMALL
GASTEIGER

@<TRIPOS>ATOM
      1  C          8.4280   -0.5910   -2.1940 C.3     1  UNL1        0.1270
      2  C          8.4800   -1.8880   -2.9100 C.2     1  UNL1        0.3030
      3  O          9.5660   -2.4950   -3.0790 O.2     1  UNL1       -0.2520
      4  O          7.3260   -2.4680   -3.4130 O.3     1  UNL1       -0.4810
      5  H          6.6380   -2.8590   -2.7640 H       1  UNL1        0.2960
      6  C          7.0020   -0.1330   -2.1530 C.3     1  UNL1        0.0470
      7  C          6.4730    0.0420   -0.8010 C.2     1  UNL1       -0.0470
      8  C          6.5990   -0.9540    0.1380 C.2     1  UNL1        0.0040
      9  C          5.8460    1.2220   -0.4740 C.2     1  UNL1        0.0040
     10  C          6.0710   -0.7170    1.4090 C.2     1  UNL1        0.0000
     11  C          5.3240    1.4550    0.7830 C.2     1  UNL1        0.0000
     12  C          5.4460    0.4610    1.7300 C.2     1  UNL1        0.0000
@<TRIPOS>BOND
     1     4     2    1
     2     4     5    1
     3     3     2    2
     4     2     1    1
     5     1     6    1
     6     6     7    1
     7     7     9    2
     8     7     8    1
     9     9    11    1
    10     8    10    2
    11    11    12    2
    12    10    12    1
