MODEL 1
REMARK VINA RESULT:      -7.4      0.000      0.000
REMARK SMILES O=C(O)CCc1ccccc1
REMARK SMILES IDX 4 1 2 2 1 3 3 4 5 6 6 7 7 8 11 9 8 10 10 11 9 12
REMARK H PARENT 3 5
REMARK Flexibility Score: inf
ROOT
ATOM      1  C   UNL     1       8.428  -0.591  -2.194  1.00  0.00     0.127 C 
ENDROOT
BRANCH   1   2
ATOM      2  C   UNL     1       8.480  -1.888  -2.910  1.00  0.00     0.303 C 
ATOM      3  O   UNL     1       9.566  -2.495  -3.079  1.00  0.00    -0.252 OA
BRANCH   2   4
ATOM      4  O   UNL     1       7.326  -2.468  -3.413  1.00  0.00    -0.481 OA
ATOM      5  H   UNL     1       6.638  -2.859  -2.764  1.00  0.00     0.296 HD
ENDBRANCH   2   4
ENDBRANCH   1   2
BRANCH   1   6
ATOM      6  C   UNL     1       7.002  -0.133  -2.153  1.00  0.00     0.047 C 
BRANCH   6   7
ATOM      7  C   UNL     1       6.473   0.042  -0.801  1.00  0.00    -0.047 A 
ATOM      8  C   UNL     1       6.599  -0.954   0.138  1.00  0.00     0.004 A 
ATOM      9  C   UNL     1       5.846   1.222  -0.474  1.00  0.00     0.004 A 
ATOM     10  C   UNL     1       6.071  -0.717   1.409  1.00  0.00     0.000 A 
ATOM     11  C   UNL     1       5.324   1.455   0.783  1.00  0.00     0.000 A 
ATOM     12  C   UNL     1       5.446   0.461   1.730  1.00  0.00     0.000 A 
ENDBRANCH   6   7
ENDBRANCH   1   6
TORSDOF 4
ENDMDL
MODEL 2
REMARK VINA RESULT:      -7.3      0.079      1.438
REMARK SMILES O=C(O)CCc1ccccc1
REMARK SMILES IDX 4 1 2 2 1 3 3 4 5 6 6 7 7 8 11 9 8 10 10 11 9 12
REMARK H PARENT 3 5
REMARK Flexibility Score: inf
ROOT
ATOM      1  C   UNL     1       8.389  -0.557  -2.196  1.00  0.00     0.127 C 
ENDROOT
BRANCH   1   2
ATOM      2  C   UNL     1       8.456  -1.853  -2.913  1.00  0.00     0.303 C 
ATOM      3  O   UNL     1       9.551  -2.440  -3.094  1.00  0.00    -0.252 OA
BRANCH   2   4
ATOM      4  O   UNL     1       7.308  -2.453  -3.404  1.00  0.00    -0.481 OA
ATOM      5  H   UNL     1       6.442  -1.909  -3.458  1.00  0.00     0.296 HD
ENDBRANCH   2   4
ENDBRANCH   1   2
BRANCH   1   6
ATOM      6  C   UNL     1       6.956  -0.122  -2.145  1.00  0.00     0.047 C 
BRANCH   6   7
ATOM      7  C   UNL     1       6.441   0.071  -0.791  1.00  0.00    -0.047 A 
ATOM      8  C   UNL     1       5.828   1.249  -0.432  1.00  0.00     0.004 A 
ATOM      9  C   UNL     1       6.573  -0.945   0.128  1.00  0.00     0.004 A 
ATOM     10  C   UNL     1       5.359   1.363   0.879  1.00  0.00     0.000 A 
ATOM     11  C   UNL     1       6.109  -0.830   1.423  1.00  0.00     0.000 A 
ATOM     12  C   UNL     1       5.495   0.347   1.791  1.00  0.00     0.000 A 
ENDBRANCH   6   7
ENDBRANCH   1   6
TORSDOF 4
ENDMDL
MODEL 3
REMARK VINA RESULT:      -6.7      3.376      5.060
REMARK SMILES O=C(O)CCc1ccccc1
REMARK SMILES IDX 4 1 2 2 1 3 3 4 5 6 6 7 7 8 11 9 8 10 10 11 9 12
REMARK H PARENT 3 5
REMARK Flexibility Score: inf
ROOT
ATOM      1  C   UNL     1       4.979   1.773   0.673  1.00  0.00     0.127 C 
ENDROOT
BRANCH   1   2
ATOM      2  C   UNL     1       4.486   1.107   1.901  1.00  0.00     0.303 C 
ATOM      3  O   UNL     1       5.159   0.214   2.472  1.00  0.00    -0.252 OA
BRANCH   2   4
ATOM      4  O   UNL     1       3.264   1.454   2.455  1.00  0.00    -0.481 OA
ATOM      5  H   UNL     1       2.442   0.878   2.253  1.00  0.00     0.296 HD
ENDBRANCH   2   4
ENDBRANCH   1   2
BRANCH   1   6
ATOM      6  C   UNL     1       6.477   1.796   0.718  1.00  0.00     0.047 C 
BRANCH   6   7
ATOM      7  C   UNL     1       7.116   1.038  -0.355  1.00  0.00    -0.047 A 
ATOM      8  C   UNL     1       6.397   0.135  -1.103  1.00  0.00     0.004 A 
ATOM      9  C   UNL     1       8.452   1.237  -0.615  1.00  0.00     0.004 A 
ATOM     10  C   UNL     1       7.072  -0.554  -2.114  1.00  0.00     0.000 A 
ATOM     11  C   UNL     1       9.118   0.556  -1.614  1.00  0.00     0.000 A 
ATOM     12  C   UNL     1       8.405  -0.351  -2.368  1.00  0.00     0.000 A 
ENDBRANCH   6   7
ENDBRANCH   1   6
TORSDOF 4
ENDMDL
MODEL 4
REMARK VINA RESULT:      -6.6      1.976      2.652
REMARK SMILES O=C(O)CCc1ccccc1
REMARK SMILES IDX 4 1 2 2 1 3 3 4 5 6 6 7 7 8 11 9 8 10 10 11 9 12
REMARK H PARENT 3 5
REMARK Flexibility Score: inf
ROOT
ATOM      1  C   UNL     1       8.247   0.350  -2.022  1.00  0.00     0.127 C 
ENDROOT
BRANCH   1   2
ATOM      2  C   UNL     1       9.428   0.403  -1.128  1.00  0.00     0.303 C 
ATOM      3  O   UNL     1       9.528  -0.362  -0.137  1.00  0.00    -0.252 OA
BRANCH   2   4
ATOM      4  O   UNL     1      10.457   1.301  -1.362  1.00  0.00    -0.481 OA
ATOM      5  H   UNL     1      11.000   1.658  -0.571  1.00  0.00     0.296 HD
ENDBRANCH   2   4
ENDBRANCH   1   2
BRANCH   1   6
ATOM      6  C   UNL     1       7.213  -0.527  -1.385  1.00  0.00     0.047 C 
BRANCH   6   7
ATOM      7  C   UNL     1       6.393   0.152  -0.382  1.00  0.00    -0.047 A 
ATOM      8  C   UNL     1       5.836   1.382  -0.646  1.00  0.00     0.004 A 
ATOM      9  C   UNL     1       6.181  -0.454   0.834  1.00  0.00     0.004 A 
ATOM     10  C   UNL     1       5.064   1.972   0.358  1.00  0.00     0.000 A 
ATOM     11  C   UNL     1       5.418   0.131   1.825  1.00  0.00     0.000 A 
ATOM     12  C   UNL     1       4.856   1.363   1.570  1.00  0.00     0.000 A 
ENDBRANCH   6   7
ENDBRANCH   1   6
TORSDOF 4
ENDMDL
MODEL 5
REMARK VINA RESULT:      -6.6      1.873      2.840
REMARK SMILES O=C(O)CCc1ccccc1
REMARK SMILES IDX 4 1 2 2 1 3 3 4 5 6 6 7 7 8 11 9 8 10 10 11 9 12
REMARK H PARENT 3 5
REMARK Flexibility Score: inf
ROOT
ATOM      1  C   UNL     1       8.201  -1.508   1.089  1.00  0.00     0.127 C 
ENDROOT
BRANCH   1   2
ATOM      2  C   UNL     1       8.484  -2.747   0.326  1.00  0.00     0.303 C 
ATOM      3  O   UNL     1       9.098  -3.708   0.851  1.00  0.00    -0.252 OA
BRANCH   2   4
ATOM      4  O   UNL     1       8.076  -2.879  -0.991  1.00  0.00    -0.481 OA
ATOM      5  H   UNL     1       8.754  -2.727  -1.743  1.00  0.00     0.296 HD
ENDBRANCH   2   4
ENDBRANCH   1   2
BRANCH   1   6
ATOM      6  C   UNL     1       6.720  -1.404   1.286  1.00  0.00     0.047 C 
BRANCH   6   7
ATOM      7  C   UNL     1       6.143  -0.150   0.806  1.00  0.00    -0.047 A 
ATOM      8  C   UNL     1       5.365   0.628   1.632  1.00  0.00     0.004 A 
ATOM      9  C   UNL     1       6.388   0.251  -0.487  1.00  0.00     0.004 A 
ATOM     10  C   UNL     1       4.847   1.815   1.107  1.00  0.00     0.000 A 
ATOM     11  C   UNL     1       5.876   1.424  -1.005  1.00  0.00     0.000 A 
ATOM     12  C   UNL     1       5.094   2.208  -0.184  1.00  0.00     0.000 A 
ENDBRANCH   6   7
ENDBRANCH   1   6
TORSDOF 4
ENDMDL
