@<TRIPOS>MOLECULE
/home/cewinharhar/GITHUB/reincatalyze/data/processed/docking_pred/2023_Apr_20-15:07/5e677739909452415bd62a3bb65a8cc9d063ea2f_ligand_2.pdbqt
 12 12 0 0 0
SMALL
GASTEIGER

@<TRIPOS>ATOM
      1  C          7.3200   -1.2760   -2.2570 C.3     1  UNL1        0.1270
      2  C          8.7750   -1.3750   -2.5220 C.2     1  UNL1        0.3030
      3  O          9.2540   -2.3390   -3.1680 O.2     1  UNL1       -0.2520
      4  O          9.6480   -0.4030   -2.0610 O.3     1  UNL1       -0.4810
      5  H         10.2540   -0.6110   -1.2620 H       1  UNL1        0.2960
      6  C          7.1010   -1.3920   -0.7790 C.3     1  UNL1        0.0470
      7  C          6.3790   -0.2630   -0.1940 C.2     1  UNL1       -0.0470
      8  C          6.1180    0.8650   -0.9360 C.2     1  UNL1        0.0040
      9  C          5.9580   -0.3410    1.1130 C.2     1  UNL1        0.0040
     10  C          5.4230    1.9040   -0.3130 C.2     1  UNL1        0.0000
     11  C          5.2710    0.6870    1.7280 C.2     1  UNL1        0.0000
     12  C          5.0060    1.8220    0.9920 C.2     1  UNL1        0.0000
@<TRIPOS>BOND
     1     3     2    2
     2     2     1    1
     3     2     4    1
     4     1     6    1
     5     4     5    1
     6     8    10    1
     7     8     7    2
     8     6     7    1
     9    10    12    2
    10     7     9    1
    11    12    11    1
    12     9    11    2
