MODEL 1
REMARK VINA RESULT:      -7.4      0.000      0.000
REMARK SMILES O=C(O)CCc1ccccc1
REMARK SMILES IDX 4 1 2 2 1 3 3 4 5 6 6 7 7 8 11 9 8 10 10 11 9 12
REMARK H PARENT 3 5
REMARK Flexibility Score: inf
ROOT
ATOM      1  C   UNL     1       8.437  -0.609  -2.174  1.00  0.00     0.127 C 
ENDROOT
BRANCH   1   2
ATOM      2  C   UNL     1       8.476  -1.891  -2.916  1.00  0.00     0.303 C 
ATOM      3  O   UNL     1       9.554  -2.511  -3.089  1.00  0.00    -0.252 OA
BRANCH   2   4
ATOM      4  O   UNL     1       7.318  -2.443  -3.440  1.00  0.00    -0.481 OA
ATOM      5  H   UNL     1       7.356  -3.371  -3.871  1.00  0.00     0.296 HD
ENDBRANCH   2   4
ENDBRANCH   1   2
BRANCH   1   6
ATOM      6  C   UNL     1       7.019  -0.128  -2.138  1.00  0.00     0.047 C 
BRANCH   6   7
ATOM      7  C   UNL     1       6.480   0.037  -0.789  1.00  0.00    -0.047 A 
ATOM      8  C   UNL     1       6.610  -0.963   0.147  1.00  0.00     0.004 A 
ATOM      9  C   UNL     1       5.840   1.210  -0.461  1.00  0.00     0.004 A 
ATOM     10  C   UNL     1       6.072  -0.736   1.416  1.00  0.00     0.000 A 
ATOM     11  C   UNL     1       5.309   1.432   0.794  1.00  0.00     0.000 A 
ATOM     12  C   UNL     1       5.434   0.435   1.737  1.00  0.00     0.000 A 
ENDBRANCH   6   7
ENDBRANCH   1   6
TORSDOF 4
ENDMDL
MODEL 2
REMARK VINA RESULT:      -7.3      0.118      1.731
REMARK SMILES O=C(O)CCc1ccccc1
REMARK SMILES IDX 4 1 2 2 1 3 3 4 5 6 6 7 7 8 11 9 8 10 10 11 9 12
REMARK H PARENT 3 5
REMARK Flexibility Score: inf
ROOT
ATOM      1  C   UNL     1       8.425  -0.650  -2.076  1.00  0.00     0.127 C 
ENDROOT
BRANCH   1   2
ATOM      2  C   UNL     1       8.385  -1.899  -2.873  1.00  0.00     0.303 C 
ATOM      3  O   UNL     1       7.295  -2.411  -3.227  1.00  0.00    -0.252 OA
BRANCH   2   4
ATOM      4  O   UNL     1       9.556  -2.538  -3.251  1.00  0.00    -0.481 OA
ATOM      5  H   UNL     1      10.449  -2.214  -2.869  1.00  0.00     0.296 HD
ENDBRANCH   2   4
ENDBRANCH   1   2
BRANCH   1   6
ATOM      6  C   UNL     1       7.055  -0.042  -2.086  1.00  0.00     0.047 C 
BRANCH   6   7
ATOM      7  C   UNL     1       6.472   0.128  -0.756  1.00  0.00    -0.047 A 
ATOM      8  C   UNL     1       5.796   1.281  -0.427  1.00  0.00     0.004 A 
ATOM      9  C   UNL     1       6.603  -0.881   0.169  1.00  0.00     0.004 A 
ATOM     10  C   UNL     1       5.264   1.375   0.861  1.00  0.00     0.000 A 
ATOM     11  C   UNL     1       6.077  -0.786   1.442  1.00  0.00     0.000 A 
ATOM     12  C   UNL     1       5.399   0.365   1.780  1.00  0.00     0.000 A 
ENDBRANCH   6   7
ENDBRANCH   1   6
TORSDOF 4
ENDMDL
MODEL 3
REMARK VINA RESULT:      -6.9      1.002      1.951
REMARK SMILES O=C(O)CCc1ccccc1
REMARK SMILES IDX 4 1 2 2 1 3 3 4 5 6 6 7 7 8 11 9 8 10 10 11 9 12
REMARK H PARENT 3 5
REMARK Flexibility Score: inf
ROOT
ATOM      1  C   UNL     1       7.320  -1.276  -2.257  1.00  0.00     0.127 C 
ENDROOT
BRANCH   1   2
ATOM      2  C   UNL     1       8.775  -1.375  -2.522  1.00  0.00     0.303 C 
ATOM      3  O   UNL     1       9.254  -2.339  -3.168  1.00  0.00    -0.252 OA
BRANCH   2   4
ATOM      4  O   UNL     1       9.648  -0.403  -2.061  1.00  0.00    -0.481 OA
ATOM      5  H   UNL     1      10.254  -0.611  -1.262  1.00  0.00     0.296 HD
ENDBRANCH   2   4
ENDBRANCH   1   2
BRANCH   1   6
ATOM      6  C   UNL     1       7.101  -1.392  -0.779  1.00  0.00     0.047 C 
BRANCH   6   7
ATOM      7  C   UNL     1       6.379  -0.263  -0.194  1.00  0.00    -0.047 A 
ATOM      8  C   UNL     1       6.118   0.865  -0.936  1.00  0.00     0.004 A 
ATOM      9  C   UNL     1       5.958  -0.341   1.113  1.00  0.00     0.004 A 
ATOM     10  C   UNL     1       5.423   1.904  -0.313  1.00  0.00     0.000 A 
ATOM     11  C   UNL     1       5.271   0.687   1.728  1.00  0.00     0.000 A 
ATOM     12  C   UNL     1       5.006   1.822   0.992  1.00  0.00     0.000 A 
ENDBRANCH   6   7
ENDBRANCH   1   6
TORSDOF 4
ENDMDL
MODEL 4
REMARK VINA RESULT:      -6.8      3.384      5.071
REMARK SMILES O=C(O)CCc1ccccc1
REMARK SMILES IDX 4 1 2 2 1 3 3 4 5 6 6 7 7 8 11 9 8 10 10 11 9 12
REMARK H PARENT 3 5
REMARK Flexibility Score: inf
ROOT
ATOM      1  C   UNL     1       4.980   1.786   0.689  1.00  0.00     0.127 C 
ENDROOT
BRANCH   1   2
ATOM      2  C   UNL     1       4.476   1.112   1.909  1.00  0.00     0.303 C 
ATOM      3  O   UNL     1       5.144   0.215   2.480  1.00  0.00    -0.252 OA
BRANCH   2   4
ATOM      4  O   UNL     1       3.250   1.456   2.454  1.00  0.00    -0.481 OA
ATOM      5  H   UNL     1       2.549   0.727   2.612  1.00  0.00     0.296 HD
ENDBRANCH   2   4
ENDBRANCH   1   2
BRANCH   1   6
ATOM      6  C   UNL     1       6.478   1.791   0.739  1.00  0.00     0.047 C 
BRANCH   6   7
ATOM      7  C   UNL     1       7.111   1.040  -0.345  1.00  0.00    -0.047 A 
ATOM      8  C   UNL     1       6.384   0.153  -1.104  1.00  0.00     0.004 A 
ATOM      9  C   UNL     1       8.449   1.232  -0.601  1.00  0.00     0.004 A 
ATOM     10  C   UNL     1       7.054  -0.528  -2.123  1.00  0.00     0.000 A 
ATOM     11  C   UNL     1       9.109   0.557  -1.609  1.00  0.00     0.000 A 
ATOM     12  C   UNL     1       8.389  -0.334  -2.374  1.00  0.00     0.000 A 
ENDBRANCH   6   7
ENDBRANCH   1   6
TORSDOF 4
ENDMDL
MODEL 5
REMARK VINA RESULT:      -6.7      3.829      4.992
REMARK SMILES O=C(O)CCc1ccccc1
REMARK SMILES IDX 4 1 2 2 1 3 3 4 5 6 6 7 7 8 11 9 8 10 10 11 9 12
REMARK H PARENT 3 5
REMARK Flexibility Score: inf
ROOT
ATOM      1  C   UNL     1       5.442   2.900  -0.014  1.00  0.00     0.127 C 
ENDROOT
BRANCH   1   2
ATOM      2  C   UNL     1       6.234   3.862   0.788  1.00  0.00     0.303 C 
ATOM      3  O   UNL     1       6.899   4.775   0.239  1.00  0.00    -0.252 OA
BRANCH   2   4
ATOM      4  O   UNL     1       6.262   3.779   2.171  1.00  0.00    -0.481 OA
ATOM      5  H   UNL     1       6.642   4.561   2.712  1.00  0.00     0.296 HD
ENDBRANCH   2   4
ENDBRANCH   1   2
BRANCH   1   6
ATOM      6  C   UNL     1       4.923   1.836   0.904  1.00  0.00     0.047 C 
BRANCH   6   7
ATOM      7  C   UNL     1       5.724   0.613   0.909  1.00  0.00    -0.047 A 
ATOM      8  C   UNL     1       6.423   0.225  -0.210  1.00  0.00     0.004 A 
ATOM      9  C   UNL     1       5.775  -0.151   2.052  1.00  0.00     0.004 A 
ATOM     10  C   UNL     1       7.168  -0.954  -0.133  1.00  0.00     0.000 A 
ATOM     11  C   UNL     1       6.512  -1.316   2.127  1.00  0.00     0.000 A 
ATOM     12  C   UNL     1       7.215  -1.712   1.010  1.00  0.00     0.000 A 
ENDBRANCH   6   7
ENDBRANCH   1   6
TORSDOF 4
ENDMDL
