@<TRIPOS>MOLECULE
/home/cewinharhar/GITHUB/reincatalyze/data/processed/docking_pred/2023_Apr_20-15:07/5e677739909452415bd62a3bb65a8cc9d063ea2f_ligand_2.pdbqt
 12 12 0 0 0
SMALL
GASTEIGER

@<TRIPOS>ATOM
      1  C          5.4420    2.9000   -0.0140 C.3     1  UNL1        0.1270
      2  C          6.2340    3.8620    0.7880 C.2     1  UNL1        0.3030
      3  O          6.8990    4.7750    0.2390 O.2     1  UNL1       -0.2520
      4  O          6.2620    3.7790    2.1710 O.3     1  UNL1       -0.4810
      5  H          6.6420    4.5610    2.7120 H       1  UNL1        0.2960
      6  C          4.9230    1.8360    0.9040 C.3     1  UNL1        0.0470
      7  C          5.7240    0.6130    0.9090 C.2     1  UNL1       -0.0470
      8  C          6.4230    0.2250   -0.2100 C.2     1  UNL1        0.0040
      9  C          5.7750   -0.1510    2.0520 C.2     1  UNL1        0.0040
     10  C          7.1680   -0.9540   -0.1330 C.2     1  UNL1        0.0000
     11  C          6.5120   -1.3160    2.1270 C.2     1  UNL1        0.0000
     12  C          7.2150   -1.7120    1.0100 C.2     1  UNL1        0.0000
@<TRIPOS>BOND
     1     8    10    1
     2     8     7    2
     3    10    12    2
     4     1     2    1
     5     1     6    1
     6     3     2    2
     7     2     4    1
     8     6     7    1
     9     7     9    1
    10    12    11    1
    11     9    11    2
    12     4     5    1
