@<TRIPOS>MOLECULE
/home/cewinharhar/GITHUB/reincatalyze/data/processed/docking_pred/2023_Apr_20-15:07/5e677739909452415bd62a3bb65a8cc9d063ea2f_ligand_2.pdbqt
 12 12 0 0 0
SMALL
GASTEIGER

@<TRIPOS>ATOM
      1  C          4.9800    1.7860    0.6890 C.3     1  UNL1        0.1270
      2  C          4.4760    1.1120    1.9090 C.2     1  UNL1        0.3030
      3  O          5.1440    0.2150    2.4800 O.2     1  UNL1       -0.2520
      4  O          3.2500    1.4560    2.4540 O.3     1  UNL1       -0.4810
      5  H          2.5490    0.7270    2.6120 H       1  UNL1        0.2960
      6  C          6.4780    1.7910    0.7390 C.3     1  UNL1        0.0470
      7  C          7.1110    1.0400   -0.3450 C.2     1  UNL1       -0.0470
      8  C          6.3840    0.1530   -1.1040 C.2     1  UNL1        0.0040
      9  C          8.4490    1.2320   -0.6010 C.2     1  UNL1        0.0040
     10  C          7.0540   -0.5280   -2.1230 C.2     1  UNL1        0.0000
     11  C          9.1090    0.5570   -1.6090 C.2     1  UNL1        0.0000
     12  C          8.3890   -0.3340   -2.3740 C.2     1  UNL1        0.0000
@<TRIPOS>BOND
     1    12    10    2
     2    12    11    1
     3    10     8    1
     4    11     9    2
     5     8     7    2
     6     9     7    1
     7     7     6    1
     8     1     6    1
     9     1     2    1
    10     2     4    1
    11     2     3    2
    12     4     5    1
