@<TRIPOS>MOLECULE
/home/cewinharhar/GITHUB/reincatalyze/data/processed/docking_pred/2023_Apr_20-15:07/5e677739909452415bd62a3bb65a8cc9d063ea2f_ligand_2.pdbqt
 12 12 0 0 0
SMALL
GASTEIGER

@<TRIPOS>ATOM
      1  C          8.4370   -0.6090   -2.1740 C.3     1  UNL1        0.1270
      2  C          8.4760   -1.8910   -2.9160 C.2     1  UNL1        0.3030
      3  O          9.5540   -2.5110   -3.0890 O.2     1  UNL1       -0.2520
      4  O          7.3180   -2.4430   -3.4400 O.3     1  UNL1       -0.4810
      5  H          7.3560   -3.3710   -3.8710 H       1  UNL1        0.2960
      6  C          7.0190   -0.1280   -2.1380 C.3     1  UNL1        0.0470
      7  C          6.4800    0.0370   -0.7890 C.2     1  UNL1       -0.0470
      8  C          6.6100   -0.9630    0.1470 C.2     1  UNL1        0.0040
      9  C          5.8400    1.2100   -0.4610 C.2     1  UNL1        0.0040
     10  C          6.0720   -0.7360    1.4160 C.2     1  UNL1        0.0000
     11  C          5.3090    1.4320    0.7940 C.2     1  UNL1        0.0000
     12  C          5.4340    0.4350    1.7370 C.2     1  UNL1        0.0000
@<TRIPOS>BOND
     1     5     4    1
     2     4     2    1
     3     3     2    2
     4     2     1    1
     5     1     6    1
     6     6     7    1
     7     7     9    2
     8     7     8    1
     9     9    11    1
    10     8    10    2
    11    11    12    2
    12    10    12    1
