@<TRIPOS>MOLECULE
/home/cewinharhar/GITHUB/reincatalyze/data/processed/docking_pred/2023_Apr_20-15:07/5e677739909452415bd62a3bb65a8cc9d063ea2f_ligand_2.pdbqt
 12 12 0 0 0
SMALL
GASTEIGER

@<TRIPOS>ATOM
      1  C          8.4250   -0.6500   -2.0760 C.3     1  UNL1        0.1270
      2  C          8.3850   -1.8990   -2.8730 C.2     1  UNL1        0.3030
      3  O          7.2950   -2.4110   -3.2270 O.2     1  UNL1       -0.2520
      4  O          9.5560   -2.5380   -3.2510 O.3     1  UNL1       -0.4810
      5  H         10.4490   -2.2140   -2.8690 H       1  UNL1        0.2960
      6  C          7.0550   -0.0420   -2.0860 C.3     1  UNL1        0.0470
      7  C          6.4720    0.1280   -0.7560 C.2     1  UNL1       -0.0470
      8  C          5.7960    1.2810   -0.4270 C.2     1  UNL1        0.0040
      9  C          6.6030   -0.8810    0.1690 C.2     1  UNL1        0.0040
     10  C          5.2640    1.3750    0.8610 C.2     1  UNL1        0.0000
     11  C          6.0770   -0.7860    1.4420 C.2     1  UNL1        0.0000
     12  C          5.3990    0.3650    1.7800 C.2     1  UNL1        0.0000
@<TRIPOS>BOND
     1     4     2    1
     2     4     5    1
     3     3     2    2
     4     2     1    1
     5     6     1    1
     6     6     7    1
     7     7     8    2
     8     7     9    1
     9     8    10    1
    10     9    11    2
    11    10    12    2
    12    11    12    1
