@<TRIPOS>MOLECULE
/home/cewinharhar/GITHUB/reincatalyze/data/processed/docking_pred/2023_Apr_20-15:07/5f00cdda1ab61f28c1ea6d7129614616e9231d70_ligand_2.pdbqt
 12 12 0 0 0
SMALL
GASTEIGER

@<TRIPOS>ATOM
      1  C          5.5340    2.8980   -0.0810 C.3     1  UNL1        0.1270
      2  C          6.2640    3.8770    0.7590 C.2     1  UNL1        0.3030
      3  O          6.9790    4.7710    0.2420 O.2     1  UNL1       -0.2520
      4  O          6.1760    3.8320    2.1410 O.3     1  UNL1       -0.4810
      5  H          5.6790    3.0560    2.5860 H       1  UNL1        0.2960
      6  C          4.9190    1.8710    0.8210 C.3     1  UNL1        0.0470
      7  C          5.6870    0.6320    0.9210 C.2     1  UNL1       -0.0470
      8  C          5.7670   -0.0520    2.1120 C.2     1  UNL1        0.0040
      9  C          6.3330    0.1500   -0.1940 C.2     1  UNL1        0.0040
     10  C          6.5170   -1.2300    2.1350 C.2     1  UNL1        0.0000
     11  C          7.0750   -1.0140   -0.1700 C.2     1  UNL1        0.0000
     12  C          7.1600   -1.7050    1.0190 C.2     1  UNL1        0.0000
@<TRIPOS>BOND
     1     9    11    1
     2     9     7    2
     3    11    12    2
     4     1     2    1
     5     1     6    1
     6     3     2    2
     7     2     4    1
     8     6     7    1
     9     7     8    1
    10    12    10    1
    11     8    10    2
    12     4     5    1
