@<TRIPOS>MOLECULE
/home/cewinharhar/GITHUB/reincatalyze/data/processed/docking_pred/2023_Apr_20-15:07/5f00cdda1ab61f28c1ea6d7129614616e9231d70_ligand_2.pdbqt
 12 12 0 0 0
SMALL
GASTEIGER

@<TRIPOS>ATOM
      1  C          8.4530   -0.7150   -1.9700 C.3     1  UNL1        0.1270
      2  C          8.3880   -1.9140   -2.8390 C.2     1  UNL1        0.3030
      3  O          7.2860   -2.3910   -3.2070 O.2     1  UNL1       -0.2520
      4  O          9.5450   -2.5420   -3.2700 O.3     1  UNL1       -0.4810
      5  H         10.4400   -2.0520   -3.1920 H       1  UNL1        0.2960
      6  C          7.1240   -0.0260   -2.0170 C.3     1  UNL1        0.0470
      7  C          6.4980    0.1500   -0.7070 C.2     1  UNL1       -0.0470
      8  C          5.8140    1.3040   -0.4040 C.2     1  UNL1        0.0040
      9  C          6.5990   -0.8560    0.2260 C.2     1  UNL1        0.0040
     10  C          5.2410    1.4030    0.8660 C.2     1  UNL1        0.0000
     11  C          6.0330   -0.7560    1.4810 C.2     1  UNL1        0.0000
     12  C          5.3460    0.3970    1.7930 C.2     1  UNL1        0.0000
@<TRIPOS>BOND
     1     4     5    1
     2     4     2    1
     3     3     2    2
     4     2     1    1
     5     6     1    1
     6     6     7    1
     7     7     8    2
     8     7     9    1
     9     8    10    1
    10     9    11    2
    11    10    12    2
    12    11    12    1
