MODEL 1
REMARK VINA RESULT:      -7.4      0.000      0.000
REMARK SMILES O=C(O)CCc1ccccc1
REMARK SMILES IDX 4 1 2 2 1 3 3 4 5 6 6 7 7 8 11 9 8 10 10 11 9 12
REMARK H PARENT 3 5
REMARK Flexibility Score: inf
ROOT
ATOM      1  C   UNL     1       8.439  -0.582  -2.200  1.00  0.00     0.127 C 
ENDROOT
BRANCH   1   2
ATOM      2  C   UNL     1       8.489  -1.876  -2.921  1.00  0.00     0.303 C 
ATOM      3  O   UNL     1       9.576  -2.479  -3.101  1.00  0.00    -0.252 OA
BRANCH   2   4
ATOM      4  O   UNL     1       7.334  -2.457  -3.417  1.00  0.00    -0.481 OA
ATOM      5  H   UNL     1       6.805  -1.975  -4.149  1.00  0.00     0.296 HD
ENDBRANCH   2   4
ENDBRANCH   1   2
BRANCH   1   6
ATOM      6  C   UNL     1       7.013  -0.124  -2.153  1.00  0.00     0.047 C 
BRANCH   6   7
ATOM      7  C   UNL     1       6.483   0.032  -0.800  1.00  0.00    -0.047 A 
ATOM      8  C   UNL     1       6.618  -0.974   0.129  1.00  0.00     0.004 A 
ATOM      9  C   UNL     1       5.844   1.202  -0.460  1.00  0.00     0.004 A 
ATOM     10  C   UNL     1       6.088  -0.755   1.402  1.00  0.00     0.000 A 
ATOM     11  C   UNL     1       5.320   1.416   0.799  1.00  0.00     0.000 A 
ATOM     12  C   UNL     1       5.451   0.413   1.735  1.00  0.00     0.000 A 
ENDBRANCH   6   7
ENDBRANCH   1   6
TORSDOF 4
ENDMDL
MODEL 2
REMARK VINA RESULT:      -7.3      0.168      1.735
REMARK SMILES O=C(O)CCc1ccccc1
REMARK SMILES IDX 4 1 2 2 1 3 3 4 5 6 6 7 7 8 11 9 8 10 10 11 9 12
REMARK H PARENT 3 5
REMARK Flexibility Score: inf
ROOT
ATOM      1  C   UNL     1       8.453  -0.715  -1.970  1.00  0.00     0.127 C 
ENDROOT
BRANCH   1   2
ATOM      2  C   UNL     1       8.388  -1.914  -2.839  1.00  0.00     0.303 C 
ATOM      3  O   UNL     1       7.286  -2.391  -3.207  1.00  0.00    -0.252 OA
BRANCH   2   4
ATOM      4  O   UNL     1       9.545  -2.542  -3.270  1.00  0.00    -0.481 OA
ATOM      5  H   UNL     1      10.440  -2.052  -3.192  1.00  0.00     0.296 HD
ENDBRANCH   2   4
ENDBRANCH   1   2
BRANCH   1   6
ATOM      6  C   UNL     1       7.124  -0.026  -2.017  1.00  0.00     0.047 C 
BRANCH   6   7
ATOM      7  C   UNL     1       6.498   0.150  -0.707  1.00  0.00    -0.047 A 
ATOM      8  C   UNL     1       5.814   1.304  -0.404  1.00  0.00     0.004 A 
ATOM      9  C   UNL     1       6.599  -0.856   0.226  1.00  0.00     0.004 A 
ATOM     10  C   UNL     1       5.241   1.403   0.866  1.00  0.00     0.000 A 
ATOM     11  C   UNL     1       6.033  -0.756   1.481  1.00  0.00     0.000 A 
ATOM     12  C   UNL     1       5.346   0.397   1.793  1.00  0.00     0.000 A 
ENDBRANCH   6   7
ENDBRANCH   1   6
TORSDOF 4
ENDMDL
MODEL 3
REMARK VINA RESULT:      -6.8      3.382      5.059
REMARK SMILES O=C(O)CCc1ccccc1
REMARK SMILES IDX 4 1 2 2 1 3 3 4 5 6 6 7 7 8 11 9 8 10 10 11 9 12
REMARK H PARENT 3 5
REMARK Flexibility Score: inf
ROOT
ATOM      1  C   UNL     1       5.033   1.768   0.729  1.00  0.00     0.127 C 
ENDROOT
BRANCH   1   2
ATOM      2  C   UNL     1       4.484   1.098   1.932  1.00  0.00     0.303 C 
ATOM      3  O   UNL     1       5.116   0.180   2.511  1.00  0.00    -0.252 OA
BRANCH   2   4
ATOM      4  O   UNL     1       3.253   1.468   2.451  1.00  0.00    -0.481 OA
ATOM      5  H   UNL     1       2.901   0.996   3.288  1.00  0.00     0.296 HD
ENDBRANCH   2   4
ENDBRANCH   1   2
BRANCH   1   6
ATOM      6  C   UNL     1       6.528   1.692   0.789  1.00  0.00     0.047 C 
BRANCH   6   7
ATOM      7  C   UNL     1       7.130   0.948  -0.316  1.00  0.00    -0.047 A 
ATOM      8  C   UNL     1       6.418  -0.023  -0.981  1.00  0.00     0.004 A 
ATOM      9  C   UNL     1       8.423   1.231  -0.690  1.00  0.00     0.004 A 
ATOM     10  C   UNL     1       7.056  -0.693  -2.027  1.00  0.00     0.000 A 
ATOM     11  C   UNL     1       9.052   0.568  -1.725  1.00  0.00     0.000 A 
ATOM     12  C   UNL     1       8.346  -0.407  -2.395  1.00  0.00     0.000 A 
ENDBRANCH   6   7
ENDBRANCH   1   6
TORSDOF 4
ENDMDL
MODEL 4
REMARK VINA RESULT:      -6.7      3.826      4.916
REMARK SMILES O=C(O)CCc1ccccc1
REMARK SMILES IDX 4 1 2 2 1 3 3 4 5 6 6 7 7 8 11 9 8 10 10 11 9 12
REMARK H PARENT 3 5
REMARK Flexibility Score: inf
ROOT
ATOM      1  C   UNL     1       5.534   2.898  -0.081  1.00  0.00     0.127 C 
ENDROOT
BRANCH   1   2
ATOM      2  C   UNL     1       6.264   3.877   0.759  1.00  0.00     0.303 C 
ATOM      3  O   UNL     1       6.979   4.771   0.242  1.00  0.00    -0.252 OA
BRANCH   2   4
ATOM      4  O   UNL     1       6.176   3.832   2.141  1.00  0.00    -0.481 OA
ATOM      5  H   UNL     1       5.679   3.056   2.586  1.00  0.00     0.296 HD
ENDBRANCH   2   4
ENDBRANCH   1   2
BRANCH   1   6
ATOM      6  C   UNL     1       4.919   1.871   0.821  1.00  0.00     0.047 C 
BRANCH   6   7
ATOM      7  C   UNL     1       5.687   0.632   0.921  1.00  0.00    -0.047 A 
ATOM      8  C   UNL     1       5.767  -0.052   2.112  1.00  0.00     0.004 A 
ATOM      9  C   UNL     1       6.333   0.150  -0.194  1.00  0.00     0.004 A 
ATOM     10  C   UNL     1       6.517  -1.230   2.135  1.00  0.00     0.000 A 
ATOM     11  C   UNL     1       7.075  -1.014  -0.170  1.00  0.00     0.000 A 
ATOM     12  C   UNL     1       7.160  -1.705   1.019  1.00  0.00     0.000 A 
ENDBRANCH   6   7
ENDBRANCH   1   6
TORSDOF 4
ENDMDL
MODEL 5
REMARK VINA RESULT:      -6.6      1.938      2.615
REMARK SMILES O=C(O)CCc1ccccc1
REMARK SMILES IDX 4 1 2 2 1 3 3 4 5 6 6 7 7 8 11 9 8 10 10 11 9 12
REMARK H PARENT 3 5
REMARK Flexibility Score: inf
ROOT
ATOM      1  C   UNL     1       8.173   0.279  -2.085  1.00  0.00     0.127 C 
ENDROOT
BRANCH   1   2
ATOM      2  C   UNL     1       9.357   0.369  -1.198  1.00  0.00     0.303 C 
ATOM      3  O   UNL     1       9.482  -0.386  -0.202  1.00  0.00    -0.252 OA
BRANCH   2   4
ATOM      4  O   UNL     1      10.360   1.293  -1.444  1.00  0.00    -0.481 OA
ATOM      5  H   UNL     1      10.799   1.777  -0.656  1.00  0.00     0.296 HD
ENDBRANCH   2   4
ENDBRANCH   1   2
BRANCH   1   6
ATOM      6  C   UNL     1       7.145  -0.580  -1.413  1.00  0.00     0.047 C 
BRANCH   6   7
ATOM      7  C   UNL     1       6.359   0.118  -0.398  1.00  0.00    -0.047 A 
ATOM      8  C   UNL     1       5.801   1.347  -0.662  1.00  0.00     0.004 A 
ATOM      9  C   UNL     1       6.178  -0.470   0.833  1.00  0.00     0.004 A 
ATOM     10  C   UNL     1       5.062   1.956   0.354  1.00  0.00     0.000 A 
ATOM     11  C   UNL     1       5.447   0.134   1.837  1.00  0.00     0.000 A 
ATOM     12  C   UNL     1       4.886   1.366   1.580  1.00  0.00     0.000 A 
ENDBRANCH   6   7
ENDBRANCH   1   6
TORSDOF 4
ENDMDL
