@<TRIPOS>MOLECULE
/home/cewinharhar/GITHUB/reincatalyze/data/processed/docking_pred/2023_Apr_20-15:07/5f00cdda1ab61f28c1ea6d7129614616e9231d70_ligand_2.pdbqt
 12 12 0 0 0
SMALL
GASTEIGER

@<TRIPOS>ATOM
      1  C          8.1730    0.2790   -2.0850 C.3     1  UNL1        0.1270
      2  C          9.3570    0.3690   -1.1980 C.2     1  UNL1        0.3030
      3  O          9.4820   -0.3860   -0.2020 O.2     1  UNL1       -0.2520
      4  O         10.3600    1.2930   -1.4440 O.3     1  UNL1       -0.4810
      5  H         10.7990    1.7770   -0.6560 H       1  UNL1        0.2960
      6  C          7.1450   -0.5800   -1.4130 C.3     1  UNL1        0.0470
      7  C          6.3590    0.1180   -0.3980 C.2     1  UNL1       -0.0470
      8  C          5.8010    1.3470   -0.6620 C.2     1  UNL1        0.0040
      9  C          6.1780   -0.4700    0.8330 C.2     1  UNL1        0.0040
     10  C          5.0620    1.9560    0.3540 C.2     1  UNL1        0.0000
     11  C          5.4470    0.1340    1.8370 C.2     1  UNL1        0.0000
     12  C          4.8860    1.3660    1.5800 C.2     1  UNL1        0.0000
@<TRIPOS>BOND
     1     1     6    1
     2     1     2    1
     3     4     2    1
     4     4     5    1
     5     6     7    1
     6     2     3    2
     7     8     7    2
     8     8    10    1
     9     7     9    1
    10    10    12    2
    11     9    11    2
    12    12    11    1
