@<TRIPOS>MOLECULE
/home/cewinharhar/GITHUB/reincatalyze/data/processed/docking_pred/2023_Apr_20-15:07/5f00cdda1ab61f28c1ea6d7129614616e9231d70_ligand_2.pdbqt
 12 12 0 0 0
SMALL
GASTEIGER

@<TRIPOS>ATOM
      1  C          8.4390   -0.5820   -2.2000 C.3     1  UNL1        0.1270
      2  C          8.4890   -1.8760   -2.9210 C.2     1  UNL1        0.3030
      3  O          9.5760   -2.4790   -3.1010 O.2     1  UNL1       -0.2520
      4  O          7.3340   -2.4570   -3.4170 O.3     1  UNL1       -0.4810
      5  H          6.8050   -1.9750   -4.1490 H       1  UNL1        0.2960
      6  C          7.0130   -0.1240   -2.1530 C.3     1  UNL1        0.0470
      7  C          6.4830    0.0320   -0.8000 C.2     1  UNL1       -0.0470
      8  C          6.6180   -0.9740    0.1290 C.2     1  UNL1        0.0040
      9  C          5.8440    1.2020   -0.4600 C.2     1  UNL1        0.0040
     10  C          6.0880   -0.7550    1.4020 C.2     1  UNL1        0.0000
     11  C          5.3200    1.4160    0.7990 C.2     1  UNL1        0.0000
     12  C          5.4510    0.4130    1.7350 C.2     1  UNL1        0.0000
@<TRIPOS>BOND
     1     5     4    1
     2     4     2    1
     3     3     2    2
     4     2     1    1
     5     1     6    1
     6     6     7    1
     7     7     9    2
     8     7     8    1
     9     9    11    1
    10     8    10    2
    11    11    12    2
    12    10    12    1
