@<TRIPOS>MOLECULE
/home/cewinharhar/GITHUB/reincatalyze/data/processed/docking_pred/2023_Apr_20-15:07/6047b5c71b47d2a809e14c46b0582b8ae3076bc9_ligand_2.pdbqt
 12 12 0 0 0
SMALL
GASTEIGER

@<TRIPOS>ATOM
      1  C          8.4250   -0.5590   -2.2280 C.3     1  UNL1        0.1270
      2  C          8.4640   -1.8670   -2.9240 C.2     1  UNL1        0.3030
      3  O          9.5440   -2.4860   -3.0880 O.2     1  UNL1       -0.2520
      4  O          7.3040   -2.4450   -3.4150 O.3     1  UNL1       -0.4810
      5  H          7.0430   -2.2910   -4.3930 H       1  UNL1        0.2960
      6  C          6.9990   -0.1050   -2.1580 C.3     1  UNL1        0.0470
      7  C          6.4840    0.0280   -0.7970 C.2     1  UNL1       -0.0470
      8  C          6.6160   -0.9990    0.1090 C.2     1  UNL1        0.0040
      9  C          5.8620    1.1980   -0.4260 C.2     1  UNL1        0.0040
     10  C          6.1010   -0.8020    1.3920 C.2     1  UNL1        0.0000
     11  C          5.3530    1.3910    0.8430 C.2     1  UNL1        0.0000
     12  C          5.4820    0.3670    1.7570 C.2     1  UNL1        0.0000
@<TRIPOS>BOND
     1     5     4    1
     2     4     2    1
     3     3     2    2
     4     2     1    1
     5     1     6    1
     6     6     7    1
     7     7     9    2
     8     7     8    1
     9     9    11    1
    10     8    10    2
    11    11    12    2
    12    10    12    1
