@<TRIPOS>MOLECULE
/home/cewinharhar/GITHUB/reincatalyze/data/processed/docking_pred/2023_Apr_20-15:07/6047b5c71b47d2a809e14c46b0582b8ae3076bc9_ligand_2.pdbqt
 12 12 0 0 0
SMALL
GASTEIGER

@<TRIPOS>ATOM
      1  C          5.4330    2.8170    0.0230 C.3     1  UNL1        0.1270
      2  C          6.1820    3.8060    0.8330 C.2     1  UNL1        0.3030
      3  O          6.1280    3.7950    2.0880 O.2     1  UNL1       -0.2520
      4  O          6.9650    4.7750    0.2250 O.3     1  UNL1       -0.4810
      5  H          7.2420    4.6530   -0.7530 H       1  UNL1        0.2960
      6  C          4.8900    1.7680    0.9460 C.3     1  UNL1        0.0470
      7  C          5.6880    0.5440    0.9910 C.2     1  UNL1       -0.0470
      8  C          5.7320   -0.2250    2.1300 C.2     1  UNL1        0.0040
      9  C          6.3990    0.1650   -0.1250 C.2     1  UNL1        0.0040
     10  C          6.5150   -1.3820    2.1010 C.2     1  UNL1        0.0000
     11  C          7.1720   -0.9790   -0.1520 C.2     1  UNL1        0.0000
     12  C          7.2220   -1.7550    0.9860 C.2     1  UNL1        0.0000
@<TRIPOS>BOND
     1     5     4    1
     2    11     9    1
     3    11    12    2
     4     9     7    2
     5     1     2    1
     6     1     6    1
     7     4     2    1
     8     2     3    2
     9     6     7    1
    10    12    10    1
    11     7     8    1
    12    10     8    2
