@<TRIPOS>MOLECULE
/home/cewinharhar/GITHUB/reincatalyze/data/processed/docking_pred/2023_Apr_20-15:07/6047b5c71b47d2a809e14c46b0582b8ae3076bc9_ligand_2.pdbqt
 12 12 0 0 0
SMALL
GASTEIGER

@<TRIPOS>ATOM
      1  C          8.2870    0.2860   -2.0890 C.3     1  UNL1        0.1270
      2  C          9.4310    0.3670   -1.1500 C.2     1  UNL1        0.3030
      3  O          9.5040   -0.3860   -0.1470 O.2     1  UNL1       -0.2520
      4  O         10.4530    1.2800   -1.3540 O.3     1  UNL1       -0.4810
      5  H         10.7360    1.5100   -2.3110 H       1  UNL1        0.2960
      6  C          7.2060   -0.5270   -1.4450 C.3     1  UNL1        0.0470
      7  C          6.3880    0.2210   -0.4910 C.2     1  UNL1       -0.0470
      8  C          6.1650   -0.2640    0.7770 C.2     1  UNL1        0.0040
      9  C          5.8420    1.4250   -0.8740 C.2     1  UNL1        0.0040
     10  C          5.3750    0.5040    1.6350 C.2     1  UNL1        0.0000
     11  C          5.0610    2.1830   -0.0240 C.2     1  UNL1        0.0000
     12  C          4.8320    1.7030    1.2470 C.2     1  UNL1        0.0000
@<TRIPOS>BOND
     1     5     4    1
     2     1     6    1
     3     1     2    1
     4     6     7    1
     5     4     2    1
     6     2     3    2
     7     9     7    2
     8     9    11    1
     9     7     8    1
    10    11    12    2
    11     8    10    2
    12    12    10    1
