@<TRIPOS>MOLECULE
/home/cewinharhar/GITHUB/reincatalyze/data/processed/docking_pred/2023_Apr_20-15:07/6047b5c71b47d2a809e14c46b0582b8ae3076bc9_ligand_2.pdbqt
 12 12 0 0 0
SMALL
GASTEIGER

@<TRIPOS>ATOM
      1  C          8.4060   -0.7450   -1.9670 C.3     1  UNL1        0.1270
      2  C          8.3760   -1.9290   -2.8570 C.2     1  UNL1        0.3030
      3  O          7.2890   -2.4180   -3.2530 O.2     1  UNL1       -0.2520
      4  O          9.5500   -2.5320   -3.2770 O.3     1  UNL1       -0.4810
      5  H          9.9530   -3.2880   -2.7170 H       1  UNL1        0.2960
      6  C          7.0630   -0.0820   -2.0200 C.3     1  UNL1        0.0470
      7  C          6.4530    0.1300   -0.7080 C.2     1  UNL1       -0.0470
      8  C          5.7830    1.2980   -0.4240 C.2     1  UNL1        0.0040
      9  C          6.5520   -0.8570    0.2460 C.2     1  UNL1        0.0040
     10  C          5.2240    1.4310    0.8490 C.2     1  UNL1        0.0000
     11  C          5.9990   -0.7230    1.5040 C.2     1  UNL1        0.0000
     12  C          5.3270    0.4440    1.7970 C.2     1  UNL1        0.0000
@<TRIPOS>BOND
     1     4     2    1
     2     4     5    1
     3     3     2    2
     4     2     1    1
     5     6     1    1
     6     6     7    1
     7     7     8    2
     8     7     9    1
     9     8    10    1
    10     9    11    2
    11    10    12    2
    12    11    12    1
