@<TRIPOS>MOLECULE
/home/cewinharhar/GITHUB/reincatalyze/data/processed/docking_pred/2023_Apr_20-15:07/6070aa1b8336213875ea865ca7f6d729a9af33a9_ligand_2.pdbqt
 12 12 0 0 0
SMALL
GASTEIGER

@<TRIPOS>ATOM
      1  C          8.4430   -0.6390   -2.0840 C.3     1  UNL1        0.1270
      2  C          8.4790   -1.8900   -2.8770 C.2     1  UNL1        0.3030
      3  O          9.5610   -2.4880   -3.1000 O.2     1  UNL1       -0.2520
      4  O          7.3170   -2.4360   -3.3960 O.3     1  UNL1       -0.4810
      5  H          6.8020   -1.9250   -4.1190 H       1  UNL1        0.2960
      6  C          7.0400   -0.1130   -2.0990 C.3     1  UNL1        0.0470
      7  C          6.4680    0.0930   -0.7700 C.2     1  UNL1       -0.0470
      8  C          5.8160    1.2640   -0.4580 C.2     1  UNL1        0.0040
      9  C          6.5850   -0.9020    0.1730 C.2     1  UNL1        0.0040
     10  C          5.2930    1.3910    0.8310 C.2     1  UNL1        0.0000
     11  C          6.0680   -0.7740    1.4470 C.2     1  UNL1        0.0000
     12  C          5.4150    0.3960    1.7670 C.2     1  UNL1        0.0000
@<TRIPOS>BOND
     1     5     4    1
     2     4     2    1
     3     3     2    2
     4     2     1    1
     5     6     1    1
     6     6     7    1
     7     7     8    2
     8     7     9    1
     9     8    10    1
    10     9    11    2
    11    10    12    2
    12    11    12    1
