@<TRIPOS>MOLECULE
/home/cewinharhar/GITHUB/reincatalyze/data/processed/docking_pred/2023_Apr_20-15:07/6070aa1b8336213875ea865ca7f6d729a9af33a9_ligand_2.pdbqt
 12 12 0 0 0
SMALL
GASTEIGER

@<TRIPOS>ATOM
      1  C          4.9880    1.7590    0.6850 C.3     1  UNL1        0.1270
      2  C          4.4800    1.1000    1.9110 C.2     1  UNL1        0.3030
      3  O          5.1390    0.2010    2.4880 O.2     1  UNL1       -0.2520
      4  O          3.2580    1.4600    2.4560 O.3     1  UNL1       -0.4810
      5  H          2.9330    0.9970    3.3090 H       1  UNL1        0.2960
      6  C          6.4860    1.7560    0.7360 C.3     1  UNL1        0.0470
      7  C          7.1160    1.0060   -0.3490 C.2     1  UNL1       -0.0470
      8  C          6.3950    0.0970   -1.0870 C.2     1  UNL1        0.0040
      9  C          8.4460    1.2200   -0.6300 C.2     1  UNL1        0.0040
     10  C          7.0610   -0.5830   -2.1090 C.2     1  UNL1        0.0000
     11  C          9.1030    0.5470   -1.6400 C.2     1  UNL1        0.0000
     12  C          8.3880   -0.3660   -2.3840 C.2     1  UNL1        0.0000
@<TRIPOS>BOND
     1    12    10    2
     2    12    11    1
     3    10     8    1
     4    11     9    2
     5     8     7    2
     6     9     7    1
     7     7     6    1
     8     1     6    1
     9     1     2    1
    10     2     4    1
    11     2     3    2
    12     4     5    1
