@<TRIPOS>MOLECULE
/home/cewinharhar/GITHUB/reincatalyze/data/processed/docking_pred/2023_Apr_20-15:07/6070aa1b8336213875ea865ca7f6d729a9af33a9_ligand_2.pdbqt
 12 12 0 0 0
SMALL
GASTEIGER

@<TRIPOS>ATOM
      1  C          7.9630   -0.7380   -2.1270 C.3     1  UNL1        0.1270
      2  C          8.2680   -1.9290   -2.9560 C.2     1  UNL1        0.3030
      3  O          9.4410   -2.3660   -3.0610 O.2     1  UNL1       -0.2520
      4  O          7.2630   -2.5940   -3.6390 O.3     1  UNL1       -0.4810
      5  H          7.5020   -3.1510   -4.4640 H       1  UNL1        0.2960
      6  C          7.2980   -1.2000   -0.8660 C.3     1  UNL1        0.0470
      7  C          6.4840   -0.1760   -0.2140 C.2     1  UNL1       -0.0470
      8  C          6.1400    0.9780   -0.8790 C.2     1  UNL1        0.0040
      9  C          6.0600   -0.3780    1.0790 C.2     1  UNL1        0.0040
     10  C          5.3600    1.9130   -0.1950 C.2     1  UNL1        0.0000
     11  C          5.2880    0.5470    1.7540 C.2     1  UNL1        0.0000
     12  C          4.9400    1.7060    1.0950 C.2     1  UNL1        0.0000
@<TRIPOS>BOND
     1     5     4    1
     2     4     2    1
     3     3     2    2
     4     2     1    1
     5     1     6    1
     6     8     7    2
     7     8    10    1
     8     6     7    1
     9     7     9    1
    10    10    12    2
    11     9    11    2
    12    12    11    1
