@<TRIPOS>MOLECULE
/home/cewinharhar/GITHUB/reincatalyze/data/processed/docking_pred/2023_Apr_20-15:07/6070aa1b8336213875ea865ca7f6d729a9af33a9_ligand_2.pdbqt
 12 12 0 0 0
SMALL
GASTEIGER

@<TRIPOS>ATOM
      1  C          8.4660   -0.6480   -2.0800 C.3     1  UNL1        0.1270
      2  C          8.4030   -1.8980   -2.8730 C.2     1  UNL1        0.3030
      3  O          7.3020   -2.4000   -3.2100 O.2     1  UNL1       -0.2520
      4  O          9.5610   -2.5490   -3.2670 O.3     1  UNL1       -0.4810
      5  H          9.5510   -3.1200   -4.1170 H       1  UNL1        0.2960
      6  C          7.1050   -0.0220   -2.0770 C.3     1  UNL1        0.0470
      7  C          6.5120    0.1060   -0.7470 C.2     1  UNL1       -0.0470
      8  C          6.6320   -0.9060    0.1770 C.2     1  UNL1        0.0040
      9  C          5.8310    1.2570   -0.4240 C.2     1  UNL1        0.0040
     10  C          6.0420   -0.7140    1.4290 C.2     1  UNL1        0.0000
     11  C          5.2470    1.4440    0.8130 C.2     1  UNL1        0.0000
     12  C          5.3620    0.4350    1.7450 C.2     1  UNL1        0.0000
@<TRIPOS>BOND
     1     5     4    1
     2     4     2    1
     3     3     2    2
     4     2     1    1
     5     1     6    1
     6     6     7    1
     7     7     9    2
     8     7     8    1
     9     9    11    1
    10     8    10    2
    11    11    12    2
    12    10    12    1
