@<TRIPOS>MOLECULE
/home/cewinharhar/GITHUB/reincatalyze/data/processed/docking_pred/2023_Apr_20-15:07/6070aa1b8336213875ea865ca7f6d729a9af33a9_ligand_2.pdbqt
 12 12 0 0 0
SMALL
GASTEIGER

@<TRIPOS>ATOM
      1  C          8.1530    0.2400   -2.0850 C.3     1  UNL1        0.1270
      2  C          9.3390    0.3520   -1.2040 C.2     1  UNL1        0.3030
      3  O          9.4770   -0.3910   -0.2010 O.2     1  UNL1       -0.2520
      4  O         10.3320    1.2820   -1.4650 O.3     1  UNL1       -0.4810
      5  H         11.1400    1.3420   -0.8380 H       1  UNL1        0.2960
      6  C          7.1280   -0.6020   -1.3900 C.3     1  UNL1        0.0470
      7  C          6.3400    0.1220   -0.3930 C.2     1  UNL1       -0.0470
      8  C          5.8050    1.3560   -0.6810 C.2     1  UNL1        0.0040
      9  C          6.1360   -0.4470    0.8430 C.2     1  UNL1        0.0040
     10  C          5.0620    1.9890    0.3180 C.2     1  UNL1        0.0000
     11  C          5.4020    0.1810    1.8290 C.2     1  UNL1        0.0000
     12  C          4.8630    1.4180    1.5490 C.2     1  UNL1        0.0000
@<TRIPOS>BOND
     1     1     6    1
     2     1     2    1
     3     4     2    1
     4     4     5    1
     5     6     7    1
     6     2     3    2
     7     8     7    2
     8     8    10    1
     9     7     9    1
    10    10    12    2
    11     9    11    2
    12    12    11    1
