@<TRIPOS>MOLECULE
/home/cewinharhar/GITHUB/reincatalyze/data/processed/docking_pred/2023_Apr_20-15:07/62f66f9004302081042513b5faa006f3d97c65a4_ligand_2.pdbqt
 12 12 0 0 0
SMALL
GASTEIGER

@<TRIPOS>ATOM
      1  C          8.4920   -0.6610   -2.0690 C.3     1  UNL1        0.1270
      2  C          8.5060   -1.9010   -2.8810 C.2     1  UNL1        0.3030
      3  O          9.5810   -2.4940   -3.1440 O.2     1  UNL1       -0.2520
      4  O          7.3280   -2.4400   -3.3750 O.3     1  UNL1       -0.4810
      5  H          6.4320   -2.0510   -3.0690 H       1  UNL1        0.2960
      6  C          7.1040   -0.0970   -2.0950 C.3     1  UNL1        0.0470
      7  C          6.5120    0.0880   -0.7710 C.2     1  UNL1       -0.0470
      8  C          6.6690   -0.8650    0.2080 C.2     1  UNL1        0.0040
      9  C          5.7950    1.2320   -0.5100 C.2     1  UNL1        0.0040
     10  C          6.0770   -0.6220    1.4500 C.2     1  UNL1        0.0000
     11  C          5.2100    1.4710    0.7180 C.2     1  UNL1        0.0000
     12  C          5.3620    0.5210    1.7040 C.2     1  UNL1        0.0000
@<TRIPOS>BOND
     1     4     5    1
     2     4     2    1
     3     3     2    2
     4     2     1    1
     5     6     1    1
     6     6     7    1
     7     7     9    2
     8     7     8    1
     9     9    11    1
    10     8    10    2
    11    11    12    2
    12    10    12    1
