@<TRIPOS>MOLECULE
/home/cewinharhar/GITHUB/reincatalyze/data/processed/docking_pred/2023_Apr_20-15:07/62f66f9004302081042513b5faa006f3d97c65a4_ligand_2.pdbqt
 12 12 0 0 0
SMALL
GASTEIGER

@<TRIPOS>ATOM
      1  C          5.4210    2.8910   -0.0120 C.3     1  UNL1        0.1270
      2  C          6.2350    3.8520    0.7690 C.2     1  UNL1        0.3030
      3  O          6.9250    4.7340    0.2000 O.2     1  UNL1       -0.2520
      4  O          6.2560    3.8040    2.1540 O.3     1  UNL1       -0.4810
      5  H          6.1890    4.6750    2.6870 H       1  UNL1        0.2960
      6  C          4.9120    1.8360    0.9230 C.3     1  UNL1        0.0470
      7  C          5.7110    0.6120    0.9290 C.2     1  UNL1       -0.0470
      8  C          6.3810    0.2040   -0.2010 C.2     1  UNL1        0.0040
      9  C          5.7880   -0.1340    2.0820 C.2     1  UNL1        0.0040
     10  C          7.1250   -0.9750   -0.1230 C.2     1  UNL1        0.0000
     11  C          6.5230   -1.3000    2.1570 C.2     1  UNL1        0.0000
     12  C          7.1980   -1.7160    1.0300 C.2     1  UNL1        0.0000
@<TRIPOS>BOND
     1     8    10    1
     2     8     7    2
     3    10    12    2
     4     1     2    1
     5     1     6    1
     6     3     2    2
     7     2     4    1
     8     6     7    1
     9     7     9    1
    10    12    11    1
    11     9    11    2
    12     4     5    1
