@<TRIPOS>MOLECULE
/home/cewinharhar/GITHUB/reincatalyze/data/processed/docking_pred/2023_Apr_20-15:07/62f66f9004302081042513b5faa006f3d97c65a4_ligand_2.pdbqt
 12 12 0 0 0
SMALL
GASTEIGER

@<TRIPOS>ATOM
      1  C          8.2310    0.3460   -1.9480 C.3     1  UNL1        0.1270
      2  C          9.4340    0.3830   -1.0850 C.2     1  UNL1        0.3030
      3  O          9.5420   -0.3690   -0.0850 O.2     1  UNL1       -0.2520
      4  O         10.4780    1.2530   -1.3590 O.3     1  UNL1       -0.4810
      5  H         11.4350    0.9770   -1.1220 H       1  UNL1        0.2960
      6  C          7.2230   -0.5630   -1.3130 C.3     1  UNL1        0.0470
      7  C          6.3960    0.0850   -0.2970 C.2     1  UNL1       -0.0470
      8  C          6.1680   -0.5220    0.9170 C.2     1  UNL1        0.0040
      9  C          5.8440    1.3170   -0.5650 C.2     1  UNL1        0.0040
     10  C          5.3680    0.1550    1.8400 C.2     1  UNL1        0.0000
     11  C          5.0540    1.9840    0.3490 C.2     1  UNL1        0.0000
     12  C          4.8200    1.3830    1.5670 C.2     1  UNL1        0.0000
@<TRIPOS>BOND
     1     1     6    1
     2     1     2    1
     3     4     5    1
     4     4     2    1
     5     6     7    1
     6     2     3    2
     7     9     7    2
     8     9    11    1
     9     7     8    1
    10    11    12    2
    11     8    10    2
    12    12    10    1
