@<TRIPOS>MOLECULE
/home/cewinharhar/GITHUB/reincatalyze/data/processed/docking_pred/2023_Apr_20-15:07/62f66f9004302081042513b5faa006f3d97c65a4_ligand_2.pdbqt
 12 12 0 0 0
SMALL
GASTEIGER

@<TRIPOS>ATOM
      1  C          4.9890    1.8070    0.7010 C.3     1  UNL1        0.1270
      2  C          4.4830    1.1210    1.9130 C.2     1  UNL1        0.3030
      3  O          5.1510    0.2190    2.4770 O.2     1  UNL1       -0.2520
      4  O          3.2550    1.4570    2.4590 O.3     1  UNL1       -0.4810
      5  H          2.5840    1.9860    1.8950 H       1  UNL1        0.2960
      6  C          6.4860    1.8000    0.7460 C.3     1  UNL1        0.0470
      7  C          7.1110    1.0490   -0.3420 C.2     1  UNL1       -0.0470
      8  C          6.3760    0.1680   -1.1000 C.2     1  UNL1        0.0040
      9  C          8.4480    1.2350   -0.6050 C.2     1  UNL1        0.0040
     10  C          7.0380   -0.5150   -2.1240 C.2     1  UNL1        0.0000
     11  C          9.1010    0.5600   -1.6170 C.2     1  UNL1        0.0000
     12  C          8.3720   -0.3260   -2.3810 C.2     1  UNL1        0.0000
@<TRIPOS>BOND
     1    12    10    2
     2    12    11    1
     3    10     8    1
     4    11     9    2
     5     8     7    2
     6     9     7    1
     7     7     6    1
     8     1     6    1
     9     1     2    1
    10     5     4    1
    11     2     4    1
    12     2     3    2
