MODEL 1
REMARK VINA RESULT:      -7.3      0.000      0.000
REMARK SMILES O=C(O)CCc1ccccc1
REMARK SMILES IDX 4 1 2 2 1 3 3 4 5 6 6 7 7 8 11 9 8 10 10 11 9 12
REMARK H PARENT 3 5
REMARK Flexibility Score: inf
ROOT
ATOM      1  C   UNL     1       8.492  -0.661  -2.069  1.00  0.00     0.127 C 
ENDROOT
BRANCH   1   2
ATOM      2  C   UNL     1       8.506  -1.901  -2.881  1.00  0.00     0.303 C 
ATOM      3  O   UNL     1       9.581  -2.494  -3.144  1.00  0.00    -0.252 OA
BRANCH   2   4
ATOM      4  O   UNL     1       7.328  -2.440  -3.375  1.00  0.00    -0.481 OA
ATOM      5  H   UNL     1       6.432  -2.051  -3.069  1.00  0.00     0.296 HD
ENDBRANCH   2   4
ENDBRANCH   1   2
BRANCH   1   6
ATOM      6  C   UNL     1       7.104  -0.097  -2.095  1.00  0.00     0.047 C 
BRANCH   6   7
ATOM      7  C   UNL     1       6.512   0.088  -0.771  1.00  0.00    -0.047 A 
ATOM      8  C   UNL     1       6.669  -0.865   0.208  1.00  0.00     0.004 A 
ATOM      9  C   UNL     1       5.795   1.232  -0.510  1.00  0.00     0.004 A 
ATOM     10  C   UNL     1       6.077  -0.622   1.450  1.00  0.00     0.000 A 
ATOM     11  C   UNL     1       5.210   1.471   0.718  1.00  0.00     0.000 A 
ATOM     12  C   UNL     1       5.362   0.521   1.704  1.00  0.00     0.000 A 
ENDBRANCH   6   7
ENDBRANCH   1   6
TORSDOF 4
ENDMDL
MODEL 2
REMARK VINA RESULT:      -7.3      0.139      1.440
REMARK SMILES O=C(O)CCc1ccccc1
REMARK SMILES IDX 4 1 2 2 1 3 3 4 5 6 6 7 7 8 11 9 8 10 10 11 9 12
REMARK H PARENT 3 5
REMARK Flexibility Score: inf
ROOT
ATOM      1  C   UNL     1       8.427  -0.575  -2.189  1.00  0.00     0.127 C 
ENDROOT
BRANCH   1   2
ATOM      2  C   UNL     1       8.489  -1.862  -2.921  1.00  0.00     0.303 C 
ATOM      3  O   UNL     1       9.584  -2.442  -3.125  1.00  0.00    -0.252 OA
BRANCH   2   4
ATOM      4  O   UNL     1       7.336  -2.460  -3.403  1.00  0.00    -0.481 OA
ATOM      5  H   UNL     1       6.558  -1.872  -3.712  1.00  0.00     0.296 HD
ENDBRANCH   2   4
ENDBRANCH   1   2
BRANCH   1   6
ATOM      6  C   UNL     1       6.999  -0.123  -2.150  1.00  0.00     0.047 C 
BRANCH   6   7
ATOM      7  C   UNL     1       6.476   0.079  -0.800  1.00  0.00    -0.047 A 
ATOM      8  C   UNL     1       5.854   1.257  -0.456  1.00  0.00     0.004 A 
ATOM      9  C   UNL     1       6.610  -0.926   0.129  1.00  0.00     0.004 A 
ATOM     10  C   UNL     1       5.377   1.381   0.851  1.00  0.00     0.000 A 
ATOM     11  C   UNL     1       6.139  -0.802   1.421  1.00  0.00     0.000 A 
ATOM     12  C   UNL     1       5.515   0.375   1.774  1.00  0.00     0.000 A 
ENDBRANCH   6   7
ENDBRANCH   1   6
TORSDOF 4
ENDMDL
MODEL 3
REMARK VINA RESULT:      -6.8      3.359      5.079
REMARK SMILES O=C(O)CCc1ccccc1
REMARK SMILES IDX 4 1 2 2 1 3 3 4 5 6 6 7 7 8 11 9 8 10 10 11 9 12
REMARK H PARENT 3 5
REMARK Flexibility Score: inf
ROOT
ATOM      1  C   UNL     1       4.989   1.807   0.701  1.00  0.00     0.127 C 
ENDROOT
BRANCH   1   2
ATOM      2  C   UNL     1       4.483   1.121   1.913  1.00  0.00     0.303 C 
ATOM      3  O   UNL     1       5.151   0.219   2.477  1.00  0.00    -0.252 OA
BRANCH   2   4
ATOM      4  O   UNL     1       3.255   1.457   2.459  1.00  0.00    -0.481 OA
ATOM      5  H   UNL     1       2.584   1.986   1.895  1.00  0.00     0.296 HD
ENDBRANCH   2   4
ENDBRANCH   1   2
BRANCH   1   6
ATOM      6  C   UNL     1       6.486   1.800   0.746  1.00  0.00     0.047 C 
BRANCH   6   7
ATOM      7  C   UNL     1       7.111   1.049  -0.342  1.00  0.00    -0.047 A 
ATOM      8  C   UNL     1       6.376   0.168  -1.100  1.00  0.00     0.004 A 
ATOM      9  C   UNL     1       8.448   1.235  -0.605  1.00  0.00     0.004 A 
ATOM     10  C   UNL     1       7.038  -0.515  -2.124  1.00  0.00     0.000 A 
ATOM     11  C   UNL     1       9.101   0.560  -1.617  1.00  0.00     0.000 A 
ATOM     12  C   UNL     1       8.372  -0.326  -2.381  1.00  0.00     0.000 A 
ENDBRANCH   6   7
ENDBRANCH   1   6
TORSDOF 4
ENDMDL
MODEL 4
REMARK VINA RESULT:      -6.7      3.803      4.995
REMARK SMILES O=C(O)CCc1ccccc1
REMARK SMILES IDX 4 1 2 2 1 3 3 4 5 6 6 7 7 8 11 9 8 10 10 11 9 12
REMARK H PARENT 3 5
REMARK Flexibility Score: inf
ROOT
ATOM      1  C   UNL     1       5.421   2.891  -0.012  1.00  0.00     0.127 C 
ENDROOT
BRANCH   1   2
ATOM      2  C   UNL     1       6.235   3.852   0.769  1.00  0.00     0.303 C 
ATOM      3  O   UNL     1       6.925   4.734   0.200  1.00  0.00    -0.252 OA
BRANCH   2   4
ATOM      4  O   UNL     1       6.256   3.804   2.154  1.00  0.00    -0.481 OA
ATOM      5  H   UNL     1       6.189   4.675   2.687  1.00  0.00     0.296 HD
ENDBRANCH   2   4
ENDBRANCH   1   2
BRANCH   1   6
ATOM      6  C   UNL     1       4.912   1.836   0.923  1.00  0.00     0.047 C 
BRANCH   6   7
ATOM      7  C   UNL     1       5.711   0.612   0.929  1.00  0.00    -0.047 A 
ATOM      8  C   UNL     1       6.381   0.204  -0.201  1.00  0.00     0.004 A 
ATOM      9  C   UNL     1       5.788  -0.134   2.082  1.00  0.00     0.004 A 
ATOM     10  C   UNL     1       7.125  -0.975  -0.123  1.00  0.00     0.000 A 
ATOM     11  C   UNL     1       6.523  -1.300   2.157  1.00  0.00     0.000 A 
ATOM     12  C   UNL     1       7.198  -1.716   1.030  1.00  0.00     0.000 A 
ENDBRANCH   6   7
ENDBRANCH   1   6
TORSDOF 4
ENDMDL
MODEL 5
REMARK VINA RESULT:      -6.6      1.994      2.268
REMARK SMILES O=C(O)CCc1ccccc1
REMARK SMILES IDX 4 1 2 2 1 3 3 4 5 6 6 7 7 8 11 9 8 10 10 11 9 12
REMARK H PARENT 3 5
REMARK Flexibility Score: inf
ROOT
ATOM      1  C   UNL     1       8.231   0.346  -1.948  1.00  0.00     0.127 C 
ENDROOT
BRANCH   1   2
ATOM      2  C   UNL     1       9.434   0.383  -1.085  1.00  0.00     0.303 C 
ATOM      3  O   UNL     1       9.542  -0.369  -0.085  1.00  0.00    -0.252 OA
BRANCH   2   4
ATOM      4  O   UNL     1      10.478   1.253  -1.359  1.00  0.00    -0.481 OA
ATOM      5  H   UNL     1      11.435   0.977  -1.122  1.00  0.00     0.296 HD
ENDBRANCH   2   4
ENDBRANCH   1   2
BRANCH   1   6
ATOM      6  C   UNL     1       7.223  -0.563  -1.313  1.00  0.00     0.047 C 
BRANCH   6   7
ATOM      7  C   UNL     1       6.396   0.085  -0.297  1.00  0.00    -0.047 A 
ATOM      8  C   UNL     1       6.168  -0.522   0.917  1.00  0.00     0.004 A 
ATOM      9  C   UNL     1       5.844   1.317  -0.565  1.00  0.00     0.004 A 
ATOM     10  C   UNL     1       5.368   0.155   1.840  1.00  0.00     0.000 A 
ATOM     11  C   UNL     1       5.054   1.984   0.349  1.00  0.00     0.000 A 
ATOM     12  C   UNL     1       4.820   1.383   1.567  1.00  0.00     0.000 A 
ENDBRANCH   6   7
ENDBRANCH   1   6
TORSDOF 4
ENDMDL
