@<TRIPOS>MOLECULE
/home/cewinharhar/GITHUB/reincatalyze/data/processed/docking_pred/2023_Apr_20-15:07/64ade7361adfbcba1ebdf367c3e16aacabd62181_ligand_2.pdbqt
 12 12 0 0 0
SMALL
GASTEIGER

@<TRIPOS>ATOM
      1  C          5.0490    1.7810    0.7220 C.3     1  UNL1        0.1270
      2  C          4.4920    1.1020    1.9150 C.2     1  UNL1        0.3030
      3  O          5.1160    0.1740    2.4870 O.2     1  UNL1       -0.2520
      4  O          3.2620    1.4740    2.4350 O.3     1  UNL1       -0.4810
      5  H          2.6330    0.7520    2.7990 H       1  UNL1        0.2960
      6  C          6.5430    1.7120    0.7950 C.3     1  UNL1        0.0470
      7  C          7.1600    0.9880   -0.3150 C.2     1  UNL1       -0.0470
      8  C          8.4630    1.2370   -0.6800 C.2     1  UNL1        0.0040
      9  C          6.4230    0.0460   -0.9940 C.2     1  UNL1        0.0040
     10  C          8.9870    0.5070   -1.7490 C.2     1  UNL1        0.0000
     11  C          6.9430   -0.6750   -2.0500 C.2     1  UNL1        0.0000
     12  C          8.2470   -0.4310   -2.4230 C.2     1  UNL1        0.0000
@<TRIPOS>BOND
     1    12    11    2
     2    12    10    1
     3    11     9    1
     4    10     8    2
     5     9     7    2
     6     8     7    1
     7     7     6    1
     8     1     6    1
     9     1     2    1
    10     2     4    1
    11     2     3    2
    12     4     5    1
