@<TRIPOS>MOLECULE
/home/cewinharhar/GITHUB/reincatalyze/data/processed/docking_pred/2023_Apr_20-15:07/64ade7361adfbcba1ebdf367c3e16aacabd62181_ligand_2.pdbqt
 12 12 0 0 0
SMALL
GASTEIGER

@<TRIPOS>ATOM
      1  C          5.3590    2.8590    0.0520 C.3     1  UNL1        0.1270
      2  C          6.1590    3.8190    0.8490 C.2     1  UNL1        0.3030
      3  O          6.1430    3.7940    2.1050 O.2     1  UNL1       -0.2520
      4  O          6.9480    4.7730    0.2280 O.3     1  UNL1       -0.4810
      5  H          7.1480    4.6850   -0.7720 H       1  UNL1        0.2960
      6  C          4.9070    1.7560    0.9590 C.3     1  UNL1        0.0470
      7  C          5.7400    0.5560    0.8970 C.2     1  UNL1       -0.0470
      8  C          5.8730   -0.2650    1.9920 C.2     1  UNL1        0.0040
      9  C          6.3940    0.2530   -0.2750 C.2     1  UNL1        0.0040
     10  C          6.6840   -1.3940    1.8610 C.2     1  UNL1        0.0000
     11  C          7.1950   -0.8640   -0.4020 C.2     1  UNL1        0.0000
     12  C          7.3340   -1.6920    0.6900 C.2     1  UNL1        0.0000
@<TRIPOS>BOND
     1     5     4    1
     2    11     9    1
     3    11    12    2
     4     9     7    2
     5     1     2    1
     6     1     6    1
     7     4     2    1
     8    12    10    1
     9     2     3    2
    10     7     6    1
    11     7     8    1
    12    10     8    2
