@<TRIPOS>MOLECULE
/home/cewinharhar/GITHUB/reincatalyze/data/processed/docking_pred/2023_Apr_20-15:07/64ade7361adfbcba1ebdf367c3e16aacabd62181_ligand_2.pdbqt
 12 12 0 0 0
SMALL
GASTEIGER

@<TRIPOS>ATOM
      1  C          7.8820   -0.7940   -2.2500 C.3     1  UNL1        0.1270
      2  C          8.3370   -1.9750   -3.0220 C.2     1  UNL1        0.3030
      3  O          9.5320   -2.3580   -2.9810 O.2     1  UNL1       -0.2520
      4  O          7.4510   -2.6900   -3.8120 O.3     1  UNL1       -0.4810
      5  H          6.5100   -2.3200   -3.9710 H       1  UNL1        0.2960
      6  C          7.3130   -1.2720   -0.9490 C.3     1  UNL1        0.0470
      7  C          6.5180   -0.2690   -0.2430 C.2     1  UNL1       -0.0470
      8  C          6.1500   -0.4590    1.0690 C.2     1  UNL1        0.0040
      9  C          6.1400    0.8760   -0.9060 C.2     1  UNL1        0.0040
     10  C          5.3920    0.5420    1.6810 C.2     1  UNL1        0.0000
     11  C          5.3900    1.8640   -0.2990 C.2     1  UNL1        0.0000
     12  C          5.0170    1.6810    1.0150 C.2     1  UNL1        0.0000
@<TRIPOS>BOND
     1     5     4    1
     2     4     2    1
     3     2     3    2
     4     2     1    1
     5     1     6    1
     6     6     7    1
     7     9    11    1
     8     9     7    2
     9    11    12    2
    10     7     8    1
    11    12    10    1
    12     8    10    2
