@<TRIPOS>MOLECULE
/home/cewinharhar/GITHUB/reincatalyze/data/processed/docking_pred/2023_Apr_20-15:07/64ade7361adfbcba1ebdf367c3e16aacabd62181_ligand_2.pdbqt
 12 12 0 0 0
SMALL
GASTEIGER

@<TRIPOS>ATOM
      1  C          8.3690   -0.4450   -2.0800 C.3     1  UNL1        0.1270
      2  C          8.4150   -1.7370   -2.8050 C.2     1  UNL1        0.3030
      3  O          7.3680   -2.2780   -3.2380 O.2     1  UNL1       -0.2520
      4  O          9.6200   -2.3850   -3.0250 O.3     1  UNL1       -0.4810
      5  H         10.0540   -2.3340   -3.9500 H       1  UNL1        0.2960
      6  C          6.9460    0.0230   -2.0420 C.3     1  UNL1        0.0470
      7  C          6.4000    0.1600   -0.6930 C.2     1  UNL1       -0.0470
      8  C          5.7530    1.3110   -0.3090 C.2     1  UNL1        0.0040
      9  C          6.5380   -0.8810    0.1960 C.2     1  UNL1        0.0040
     10  C          5.2570    1.3720    0.9950 C.2     1  UNL1        0.0000
     11  C          6.0470   -0.8190    1.4850 C.2     1  UNL1        0.0000
     12  C          5.3980    0.3310    1.8770 C.2     1  UNL1        0.0000
@<TRIPOS>BOND
     1     5     4    1
     2     3     2    2
     3     4     2    1
     4     2     1    1
     5     1     6    1
     6     6     7    1
     7     7     8    2
     8     7     9    1
     9     8    10    1
    10     9    11    2
    11    10    12    2
    12    11    12    1
