MODEL 1
REMARK VINA RESULT:      -6.7      0.000      0.000
REMARK SMILES O=C(O)CCc1ccccc1
REMARK SMILES IDX 4 1 2 2 1 3 3 4 5 6 6 7 7 8 11 9 8 10 10 11 9 12
REMARK H PARENT 3 5
REMARK Flexibility Score: inf
ROOT
ATOM      1  C   UNL     1       4.971   1.750   0.684  1.00  0.00     0.127 C 
ENDROOT
BRANCH   1   2
ATOM      2  C   UNL     1       4.463   1.103   1.916  1.00  0.00     0.303 C 
ATOM      3  O   UNL     1       5.121   0.205   2.499  1.00  0.00    -0.252 OA
BRANCH   2   4
ATOM      4  O   UNL     1       3.243   1.472   2.461  1.00  0.00    -0.481 OA
ATOM      5  H   UNL     1       2.407   0.930   2.228  1.00  0.00     0.296 HD
ENDBRANCH   2   4
ENDBRANCH   1   2
BRANCH   1   6
ATOM      6  C   UNL     1       6.469   1.752   0.737  1.00  0.00     0.047 C 
BRANCH   6   7
ATOM      7  C   UNL     1       7.103   0.990  -0.338  1.00  0.00    -0.047 A 
ATOM      8  C   UNL     1       6.398   0.036  -1.034  1.00  0.00     0.004 A 
ATOM      9  C   UNL     1       8.420   1.237  -0.650  1.00  0.00     0.004 A 
ATOM     10  C   UNL     1       7.067  -0.653  -2.048  1.00  0.00     0.000 A 
ATOM     11  C   UNL     1       9.079   0.555  -1.652  1.00  0.00     0.000 A 
ATOM     12  C   UNL     1       8.380  -0.403  -2.355  1.00  0.00     0.000 A 
ENDBRANCH   6   7
ENDBRANCH   1   6
TORSDOF 4
ENDMDL
MODEL 2
REMARK VINA RESULT:      -6.7      3.299      5.118
REMARK SMILES O=C(O)CCc1ccccc1
REMARK SMILES IDX 4 1 2 2 1 3 3 4 5 6 6 7 7 8 11 9 8 10 10 11 9 12
REMARK H PARENT 3 5
REMARK Flexibility Score: inf
ROOT
ATOM      1  C   UNL     1       8.369  -0.445  -2.080  1.00  0.00     0.127 C 
ENDROOT
BRANCH   1   2
ATOM      2  C   UNL     1       8.415  -1.737  -2.805  1.00  0.00     0.303 C 
ATOM      3  O   UNL     1       7.368  -2.278  -3.238  1.00  0.00    -0.252 OA
BRANCH   2   4
ATOM      4  O   UNL     1       9.620  -2.385  -3.025  1.00  0.00    -0.481 OA
ATOM      5  H   UNL     1      10.054  -2.334  -3.950  1.00  0.00     0.296 HD
ENDBRANCH   2   4
ENDBRANCH   1   2
BRANCH   1   6
ATOM      6  C   UNL     1       6.946   0.023  -2.042  1.00  0.00     0.047 C 
BRANCH   6   7
ATOM      7  C   UNL     1       6.400   0.160  -0.693  1.00  0.00    -0.047 A 
ATOM      8  C   UNL     1       5.753   1.311  -0.309  1.00  0.00     0.004 A 
ATOM      9  C   UNL     1       6.538  -0.881   0.196  1.00  0.00     0.004 A 
ATOM     10  C   UNL     1       5.257   1.372   0.995  1.00  0.00     0.000 A 
ATOM     11  C   UNL     1       6.047  -0.819   1.485  1.00  0.00     0.000 A 
ATOM     12  C   UNL     1       5.398   0.331   1.877  1.00  0.00     0.000 A 
ENDBRANCH   6   7
ENDBRANCH   1   6
TORSDOF 4
ENDMDL
MODEL 3
REMARK VINA RESULT:      -6.7      0.091      1.439
REMARK SMILES O=C(O)CCc1ccccc1
REMARK SMILES IDX 4 1 2 2 1 3 3 4 5 6 6 7 7 8 11 9 8 10 10 11 9 12
REMARK H PARENT 3 5
REMARK Flexibility Score: inf
ROOT
ATOM      1  C   UNL     1       5.049   1.781   0.722  1.00  0.00     0.127 C 
ENDROOT
BRANCH   1   2
ATOM      2  C   UNL     1       4.492   1.102   1.915  1.00  0.00     0.303 C 
ATOM      3  O   UNL     1       5.116   0.174   2.487  1.00  0.00    -0.252 OA
BRANCH   2   4
ATOM      4  O   UNL     1       3.262   1.474   2.435  1.00  0.00    -0.481 OA
ATOM      5  H   UNL     1       2.633   0.752   2.799  1.00  0.00     0.296 HD
ENDBRANCH   2   4
ENDBRANCH   1   2
BRANCH   1   6
ATOM      6  C   UNL     1       6.543   1.712   0.795  1.00  0.00     0.047 C 
BRANCH   6   7
ATOM      7  C   UNL     1       7.160   0.988  -0.315  1.00  0.00    -0.047 A 
ATOM      8  C   UNL     1       8.463   1.237  -0.680  1.00  0.00     0.004 A 
ATOM      9  C   UNL     1       6.423   0.046  -0.994  1.00  0.00     0.004 A 
ATOM     10  C   UNL     1       8.987   0.507  -1.749  1.00  0.00     0.000 A 
ATOM     11  C   UNL     1       6.943  -0.675  -2.050  1.00  0.00     0.000 A 
ATOM     12  C   UNL     1       8.247  -0.431  -2.423  1.00  0.00     0.000 A 
ENDBRANCH   6   7
ENDBRANCH   1   6
TORSDOF 4
ENDMDL
MODEL 4
REMARK VINA RESULT:      -6.7      3.614      5.134
REMARK SMILES O=C(O)CCc1ccccc1
REMARK SMILES IDX 4 1 2 2 1 3 3 4 5 6 6 7 7 8 11 9 8 10 10 11 9 12
REMARK H PARENT 3 5
REMARK Flexibility Score: inf
ROOT
ATOM      1  C   UNL     1       7.882  -0.794  -2.250  1.00  0.00     0.127 C 
ENDROOT
BRANCH   1   2
ATOM      2  C   UNL     1       8.337  -1.975  -3.022  1.00  0.00     0.303 C 
ATOM      3  O   UNL     1       9.532  -2.358  -2.981  1.00  0.00    -0.252 OA
BRANCH   2   4
ATOM      4  O   UNL     1       7.451  -2.690  -3.812  1.00  0.00    -0.481 OA
ATOM      5  H   UNL     1       6.510  -2.320  -3.971  1.00  0.00     0.296 HD
ENDBRANCH   2   4
ENDBRANCH   1   2
BRANCH   1   6
ATOM      6  C   UNL     1       7.313  -1.272  -0.949  1.00  0.00     0.047 C 
BRANCH   6   7
ATOM      7  C   UNL     1       6.518  -0.269  -0.243  1.00  0.00    -0.047 A 
ATOM      8  C   UNL     1       6.150  -0.459   1.069  1.00  0.00     0.004 A 
ATOM      9  C   UNL     1       6.140   0.876  -0.906  1.00  0.00     0.004 A 
ATOM     10  C   UNL     1       5.392   0.542   1.681  1.00  0.00     0.000 A 
ATOM     11  C   UNL     1       5.390   1.864  -0.299  1.00  0.00     0.000 A 
ATOM     12  C   UNL     1       5.017   1.681   1.015  1.00  0.00     0.000 A 
ENDBRANCH   6   7
ENDBRANCH   1   6
TORSDOF 4
ENDMDL
MODEL 5
REMARK VINA RESULT:      -6.6      2.615      3.202
REMARK SMILES O=C(O)CCc1ccccc1
REMARK SMILES IDX 4 1 2 2 1 3 3 4 5 6 6 7 7 8 11 9 8 10 10 11 9 12
REMARK H PARENT 3 5
REMARK Flexibility Score: inf
ROOT
ATOM      1  C   UNL     1       5.359   2.859   0.052  1.00  0.00     0.127 C 
ENDROOT
BRANCH   1   2
ATOM      2  C   UNL     1       6.159   3.819   0.849  1.00  0.00     0.303 C 
ATOM      3  O   UNL     1       6.143   3.794   2.105  1.00  0.00    -0.252 OA
BRANCH   2   4
ATOM      4  O   UNL     1       6.948   4.773   0.228  1.00  0.00    -0.481 OA
ATOM      5  H   UNL     1       7.148   4.685  -0.772  1.00  0.00     0.296 HD
ENDBRANCH   2   4
ENDBRANCH   1   2
BRANCH   1   6
ATOM      6  C   UNL     1       4.907   1.756   0.959  1.00  0.00     0.047 C 
BRANCH   6   7
ATOM      7  C   UNL     1       5.740   0.556   0.897  1.00  0.00    -0.047 A 
ATOM      8  C   UNL     1       5.873  -0.265   1.992  1.00  0.00     0.004 A 
ATOM      9  C   UNL     1       6.394   0.253  -0.275  1.00  0.00     0.004 A 
ATOM     10  C   UNL     1       6.684  -1.394   1.861  1.00  0.00     0.000 A 
ATOM     11  C   UNL     1       7.195  -0.864  -0.402  1.00  0.00     0.000 A 
ATOM     12  C   UNL     1       7.334  -1.692   0.690  1.00  0.00     0.000 A 
ENDBRANCH   6   7
ENDBRANCH   1   6
TORSDOF 4
ENDMDL
