@<TRIPOS>MOLECULE
/home/cewinharhar/GITHUB/reincatalyze/data/processed/docking_pred/2023_Apr_20-15:07/650932a4c96e02f0afcc120cab6b741f416c7ae8_ligand_2.pdbqt
 12 12 0 0 0
SMALL
GASTEIGER

@<TRIPOS>ATOM
      1  C          8.4310   -0.6110   -2.1490 C.3     1  UNL1        0.1270
      2  C          8.4730   -1.8870   -2.9020 C.2     1  UNL1        0.3030
      3  O          9.5550   -2.4920   -3.0980 O.2     1  UNL1       -0.2520
      4  O          7.3130   -2.4480   -3.4130 O.3     1  UNL1       -0.4810
      5  H          7.1480   -2.4250   -4.4230 H       1  UNL1        0.2960
      6  C          7.0130   -0.1300   -2.1160 C.3     1  UNL1        0.0470
      7  C          6.4720    0.0340   -0.7670 C.2     1  UNL1       -0.0470
      8  C          6.5980   -0.9670    0.1680 C.2     1  UNL1        0.0040
      9  C          5.8340    1.2080   -0.4380 C.2     1  UNL1        0.0040
     10  C          6.0590   -0.7410    1.4360 C.2     1  UNL1        0.0000
     11  C          5.3010    1.4290    0.8160 C.2     1  UNL1        0.0000
     12  C          5.4230    0.4310    1.7580 C.2     1  UNL1        0.0000
@<TRIPOS>BOND
     1     5     4    1
     2     4     2    1
     3     3     2    2
     4     2     1    1
     5     1     6    1
     6     6     7    1
     7     7     9    2
     8     7     8    1
     9     9    11    1
    10     8    10    2
    11    11    12    2
    12    10    12    1
