@<TRIPOS>MOLECULE
/home/cewinharhar/GITHUB/reincatalyze/data/processed/docking_pred/2023_Apr_20-15:07/650932a4c96e02f0afcc120cab6b741f416c7ae8_ligand_2.pdbqt
 12 12 0 0 0
SMALL
GASTEIGER

@<TRIPOS>ATOM
      1  C          5.0240    1.7880    0.6410 C.3     1  UNL1        0.1270
      2  C          4.5310    1.1210    1.8690 C.2     1  UNL1        0.3030
      3  O          5.2090    0.2350    2.4450 O.2     1  UNL1       -0.2520
      4  O          3.3040    1.4590    2.4170 O.3     1  UNL1       -0.4810
      5  H          2.6220    1.9640    1.8450 H       1  UNL1        0.2960
      6  C          6.5210    1.8200    0.6910 C.3     1  UNL1        0.0470
      7  C          7.1670    1.0510   -0.3710 C.2     1  UNL1       -0.0470
      8  C          8.5060    1.2130   -0.6430 C.2     1  UNL1        0.0040
      9  C          6.4210    0.1550   -1.1010 C.2     1  UNL1        0.0040
     10  C          9.0570    0.4440   -1.6700 C.2     1  UNL1        0.0000
     11  C          6.9670   -0.6040   -2.1170 C.2     1  UNL1        0.0000
     12  C          8.3070   -0.4470   -2.3950 C.2     1  UNL1        0.0000
@<TRIPOS>BOND
     1    12    11    2
     2    12    10    1
     3    11     9    1
     4    10     8    2
     5     9     7    2
     6     8     7    1
     7     7     6    1
     8     1     6    1
     9     1     2    1
    10     5     4    1
    11     2     4    1
    12     2     3    2
