@<TRIPOS>MOLECULE
/home/cewinharhar/GITHUB/reincatalyze/data/processed/docking_pred/2023_Apr_20-15:07/650932a4c96e02f0afcc120cab6b741f416c7ae8_ligand_2.pdbqt
 12 12 0 0 0
SMALL
GASTEIGER

@<TRIPOS>ATOM
      1  C          8.1630    0.2510   -2.0900 C.3     1  UNL1        0.1270
      2  C          9.3450    0.3630   -1.2030 C.2     1  UNL1        0.3030
      3  O          9.4800   -0.3820   -0.2020 O.2     1  UNL1       -0.2520
      4  O         10.3370    1.2970   -1.4570 O.3     1  UNL1       -0.4810
      5  H         10.1580    2.0490   -2.1280 H       1  UNL1        0.2960
      6  C          7.1340   -0.5890   -1.3980 C.3     1  UNL1        0.0470
      7  C          6.3480    0.1360   -0.4010 C.2     1  UNL1       -0.0470
      8  C          5.8030    1.3650   -0.6920 C.2     1  UNL1        0.0040
      9  C          6.1540   -0.4270    0.8390 C.2     1  UNL1        0.0040
     10  C          5.0630    2.0000    0.3080 C.2     1  UNL1        0.0000
     11  C          5.4230    0.2020    1.8270 C.2     1  UNL1        0.0000
     12  C          4.8740    1.4340    1.5440 C.2     1  UNL1        0.0000
@<TRIPOS>BOND
     1     5     4    1
     2     1     6    1
     3     1     2    1
     4     4     2    1
     5     6     7    1
     6     2     3    2
     7     8     7    2
     8     8    10    1
     9     7     9    1
    10    10    12    2
    11     9    11    2
    12    12    11    1
