MODEL 1
REMARK VINA RESULT:      -7.4      0.000      0.000
REMARK SMILES O=C(O)CCc1ccccc1
REMARK SMILES IDX 4 1 2 2 1 3 3 4 5 6 6 7 7 8 11 9 8 10 10 11 9 12
REMARK H PARENT 3 5
REMARK Flexibility Score: inf
ROOT
ATOM      1  C   UNL     1       8.431  -0.611  -2.149  1.00  0.00     0.127 C 
ENDROOT
BRANCH   1   2
ATOM      2  C   UNL     1       8.473  -1.887  -2.902  1.00  0.00     0.303 C 
ATOM      3  O   UNL     1       9.555  -2.492  -3.098  1.00  0.00    -0.252 OA
BRANCH   2   4
ATOM      4  O   UNL     1       7.313  -2.448  -3.413  1.00  0.00    -0.481 OA
ATOM      5  H   UNL     1       7.148  -2.425  -4.423  1.00  0.00     0.296 HD
ENDBRANCH   2   4
ENDBRANCH   1   2
BRANCH   1   6
ATOM      6  C   UNL     1       7.013  -0.130  -2.116  1.00  0.00     0.047 C 
BRANCH   6   7
ATOM      7  C   UNL     1       6.472   0.034  -0.767  1.00  0.00    -0.047 A 
ATOM      8  C   UNL     1       6.598  -0.967   0.168  1.00  0.00     0.004 A 
ATOM      9  C   UNL     1       5.834   1.208  -0.438  1.00  0.00     0.004 A 
ATOM     10  C   UNL     1       6.059  -0.741   1.436  1.00  0.00     0.000 A 
ATOM     11  C   UNL     1       5.301   1.429   0.816  1.00  0.00     0.000 A 
ATOM     12  C   UNL     1       5.423   0.431   1.758  1.00  0.00     0.000 A 
ENDBRANCH   6   7
ENDBRANCH   1   6
TORSDOF 4
ENDMDL
MODEL 2
REMARK VINA RESULT:      -7.4      0.065      1.438
REMARK SMILES O=C(O)CCc1ccccc1
REMARK SMILES IDX 4 1 2 2 1 3 3 4 5 6 6 7 7 8 11 9 8 10 10 11 9 12
REMARK H PARENT 3 5
REMARK Flexibility Score: inf
ROOT
ATOM      1  C   UNL     1       8.443  -0.609  -2.155  1.00  0.00     0.127 C 
ENDROOT
BRANCH   1   2
ATOM      2  C   UNL     1       8.482  -1.885  -2.909  1.00  0.00     0.303 C 
ATOM      3  O   UNL     1       9.563  -2.494  -3.101  1.00  0.00    -0.252 OA
BRANCH   2   4
ATOM      4  O   UNL     1       7.322  -2.441  -3.423  1.00  0.00    -0.481 OA
ATOM      5  H   UNL     1       6.418  -2.180  -3.018  1.00  0.00     0.296 HD
ENDBRANCH   2   4
ENDBRANCH   1   2
BRANCH   1   6
ATOM      6  C   UNL     1       7.027  -0.117  -2.135  1.00  0.00     0.047 C 
BRANCH   6   7
ATOM      7  C   UNL     1       6.480   0.064  -0.792  1.00  0.00    -0.047 A 
ATOM      8  C   UNL     1       5.842   1.232  -0.445  1.00  0.00     0.004 A 
ATOM      9  C   UNL     1       6.609  -0.950   0.128  1.00  0.00     0.004 A 
ATOM     10  C   UNL     1       5.343   1.336   0.856  1.00  0.00     0.000 A 
ATOM     11  C   UNL     1       6.115  -0.845   1.414  1.00  0.00     0.000 A 
ATOM     12  C   UNL     1       5.474   0.321   1.770  1.00  0.00     0.000 A 
ENDBRANCH   6   7
ENDBRANCH   1   6
TORSDOF 4
ENDMDL
MODEL 3
REMARK VINA RESULT:      -6.8      3.355      5.057
REMARK SMILES O=C(O)CCc1ccccc1
REMARK SMILES IDX 4 1 2 2 1 3 3 4 5 6 6 7 7 8 11 9 8 10 10 11 9 12
REMARK H PARENT 3 5
REMARK Flexibility Score: inf
ROOT
ATOM      1  C   UNL     1       5.024   1.788   0.641  1.00  0.00     0.127 C 
ENDROOT
BRANCH   1   2
ATOM      2  C   UNL     1       4.531   1.121   1.869  1.00  0.00     0.303 C 
ATOM      3  O   UNL     1       5.209   0.235   2.445  1.00  0.00    -0.252 OA
BRANCH   2   4
ATOM      4  O   UNL     1       3.304   1.459   2.417  1.00  0.00    -0.481 OA
ATOM      5  H   UNL     1       2.622   1.964   1.845  1.00  0.00     0.296 HD
ENDBRANCH   2   4
ENDBRANCH   1   2
BRANCH   1   6
ATOM      6  C   UNL     1       6.521   1.820   0.691  1.00  0.00     0.047 C 
BRANCH   6   7
ATOM      7  C   UNL     1       7.167   1.051  -0.371  1.00  0.00    -0.047 A 
ATOM      8  C   UNL     1       8.506   1.213  -0.643  1.00  0.00     0.004 A 
ATOM      9  C   UNL     1       6.421   0.155  -1.101  1.00  0.00     0.004 A 
ATOM     10  C   UNL     1       9.057   0.444  -1.670  1.00  0.00     0.000 A 
ATOM     11  C   UNL     1       6.967  -0.604  -2.117  1.00  0.00     0.000 A 
ATOM     12  C   UNL     1       8.307  -0.447  -2.395  1.00  0.00     0.000 A 
ENDBRANCH   6   7
ENDBRANCH   1   6
TORSDOF 4
ENDMDL
MODEL 4
REMARK VINA RESULT:      -6.7      1.939      2.614
REMARK SMILES O=C(O)CCc1ccccc1
REMARK SMILES IDX 4 1 2 2 1 3 3 4 5 6 6 7 7 8 11 9 8 10 10 11 9 12
REMARK H PARENT 3 5
REMARK Flexibility Score: inf
ROOT
ATOM      1  C   UNL     1       8.163   0.251  -2.090  1.00  0.00     0.127 C 
ENDROOT
BRANCH   1   2
ATOM      2  C   UNL     1       9.345   0.363  -1.203  1.00  0.00     0.303 C 
ATOM      3  O   UNL     1       9.480  -0.382  -0.202  1.00  0.00    -0.252 OA
BRANCH   2   4
ATOM      4  O   UNL     1      10.337   1.297  -1.457  1.00  0.00    -0.481 OA
ATOM      5  H   UNL     1      10.158   2.049  -2.128  1.00  0.00     0.296 HD
ENDBRANCH   2   4
ENDBRANCH   1   2
BRANCH   1   6
ATOM      6  C   UNL     1       7.134  -0.589  -1.398  1.00  0.00     0.047 C 
BRANCH   6   7
ATOM      7  C   UNL     1       6.348   0.136  -0.401  1.00  0.00    -0.047 A 
ATOM      8  C   UNL     1       5.803   1.365  -0.692  1.00  0.00     0.004 A 
ATOM      9  C   UNL     1       6.154  -0.427   0.839  1.00  0.00     0.004 A 
ATOM     10  C   UNL     1       5.063   2.000   0.308  1.00  0.00     0.000 A 
ATOM     11  C   UNL     1       5.423   0.202   1.827  1.00  0.00     0.000 A 
ATOM     12  C   UNL     1       4.874   1.434   1.544  1.00  0.00     0.000 A 
ENDBRANCH   6   7
ENDBRANCH   1   6
TORSDOF 4
ENDMDL
MODEL 5
REMARK VINA RESULT:      -6.6      1.886      2.845
REMARK SMILES O=C(O)CCc1ccccc1
REMARK SMILES IDX 4 1 2 2 1 3 3 4 5 6 6 7 7 8 11 9 8 10 10 11 9 12
REMARK H PARENT 3 5
REMARK Flexibility Score: inf
ROOT
ATOM      1  C   UNL     1       8.183  -1.602   1.129  1.00  0.00     0.127 C 
ENDROOT
BRANCH   1   2
ATOM      2  C   UNL     1       8.510  -2.818   0.348  1.00  0.00     0.303 C 
ATOM      3  O   UNL     1       9.186  -3.751   0.849  1.00  0.00    -0.252 OA
BRANCH   2   4
ATOM      4  O   UNL     1       8.079  -2.959  -0.961  1.00  0.00    -0.481 OA
ATOM      5  H   UNL     1       8.545  -2.427  -1.702  1.00  0.00     0.296 HD
ENDBRANCH   2   4
ENDBRANCH   1   2
BRANCH   1   6
ATOM      6  C   UNL     1       6.692  -1.495   1.232  1.00  0.00     0.047 C 
BRANCH   6   7
ATOM      7  C   UNL     1       6.153  -0.223   0.754  1.00  0.00    -0.047 A 
ATOM      8  C   UNL     1       5.434   0.595   1.594  1.00  0.00     0.004 A 
ATOM      9  C   UNL     1       6.374   0.152  -0.551  1.00  0.00     0.004 A 
ATOM     10  C   UNL     1       4.949   1.796   1.070  1.00  0.00     0.000 A 
ATOM     11  C   UNL     1       5.894   1.339  -1.067  1.00  0.00     0.000 A 
ATOM     12  C   UNL     1       5.172   2.165  -0.233  1.00  0.00     0.000 A 
ENDBRANCH   6   7
ENDBRANCH   1   6
TORSDOF 4
ENDMDL
