@<TRIPOS>MOLECULE
/home/cewinharhar/GITHUB/reincatalyze/data/processed/docking_pred/2023_Apr_20-15:07/650932a4c96e02f0afcc120cab6b741f416c7ae8_ligand_2.pdbqt
 12 12 0 0 0
SMALL
GASTEIGER

@<TRIPOS>ATOM
      1  C          8.1830   -1.6020    1.1290 C.3     1  UNL1        0.1270
      2  C          8.5100   -2.8180    0.3480 C.2     1  UNL1        0.3030
      3  O          9.1860   -3.7510    0.8490 O.2     1  UNL1       -0.2520
      4  O          8.0790   -2.9590   -0.9610 O.3     1  UNL1       -0.4810
      5  H          8.5450   -2.4270   -1.7020 H       1  UNL1        0.2960
      6  C          6.6920   -1.4950    1.2320 C.3     1  UNL1        0.0470
      7  C          6.1530   -0.2230    0.7540 C.2     1  UNL1       -0.0470
      8  C          5.4340    0.5950    1.5940 C.2     1  UNL1        0.0040
      9  C          6.3740    0.1520   -0.5510 C.2     1  UNL1        0.0040
     10  C          4.9490    1.7960    1.0700 C.2     1  UNL1        0.0000
     11  C          5.8940    1.3390   -1.0670 C.2     1  UNL1        0.0000
     12  C          5.1720    2.1650   -0.2330 C.2     1  UNL1        0.0000
@<TRIPOS>BOND
     1     5     4    1
     2    11     9    1
     3    11    12    2
     4     4     2    1
     5     9     7    2
     6    12    10    1
     7     2     3    2
     8     2     1    1
     9     7     6    1
    10     7     8    1
    11    10     8    2
    12     1     6    1
