@<TRIPOS>MOLECULE
/home/cewinharhar/GITHUB/reincatalyze/data/processed/docking_pred/2023_Apr_20-15:07/650932a4c96e02f0afcc120cab6b741f416c7ae8_ligand_2.pdbqt
 12 12 0 0 0
SMALL
GASTEIGER

@<TRIPOS>ATOM
      1  C          8.4430   -0.6090   -2.1550 C.3     1  UNL1        0.1270
      2  C          8.4820   -1.8850   -2.9090 C.2     1  UNL1        0.3030
      3  O          9.5630   -2.4940   -3.1010 O.2     1  UNL1       -0.2520
      4  O          7.3220   -2.4410   -3.4230 O.3     1  UNL1       -0.4810
      5  H          6.4180   -2.1800   -3.0180 H       1  UNL1        0.2960
      6  C          7.0270   -0.1170   -2.1350 C.3     1  UNL1        0.0470
      7  C          6.4800    0.0640   -0.7920 C.2     1  UNL1       -0.0470
      8  C          5.8420    1.2320   -0.4450 C.2     1  UNL1        0.0040
      9  C          6.6090   -0.9500    0.1280 C.2     1  UNL1        0.0040
     10  C          5.3430    1.3360    0.8560 C.2     1  UNL1        0.0000
     11  C          6.1150   -0.8450    1.4140 C.2     1  UNL1        0.0000
     12  C          5.4740    0.3210    1.7700 C.2     1  UNL1        0.0000
@<TRIPOS>BOND
     1     4     5    1
     2     4     2    1
     3     3     2    2
     4     2     1    1
     5     1     6    1
     6     6     7    1
     7     7     8    2
     8     7     9    1
     9     8    10    1
    10     9    11    2
    11    10    12    2
    12    11    12    1
