@<TRIPOS>MOLECULE
/home/cewinharhar/GITHUB/reincatalyze/data/processed/docking_pred/2023_Apr_20-15:07/65610c622cc3bd86a4d466f03d6f61670904542e_ligand_2.pdbqt
 12 12 0 0 0
SMALL
GASTEIGER

@<TRIPOS>ATOM
      1  C          8.4300   -0.5760   -2.2280 C.3     1  UNL1        0.1270
      2  C          8.4750   -1.8810   -2.9280 C.2     1  UNL1        0.3030
      3  O          9.5600   -2.4880   -3.1030 O.2     1  UNL1       -0.2520
      4  O          7.3170   -2.4680   -3.4110 O.3     1  UNL1       -0.4810
      5  H          6.4100   -2.0570   -3.1730 H       1  UNL1        0.2960
      6  C          7.0040   -0.1210   -2.1710 C.3     1  UNL1        0.0470
      7  C          6.4830    0.0330   -0.8140 C.2     1  UNL1       -0.0470
      8  C          6.6180   -0.9770    0.1100 C.2     1  UNL1        0.0040
      9  C          5.8530    1.2060   -0.4660 C.2     1  UNL1        0.0040
     10  C          6.0970   -0.7600    1.3880 C.2     1  UNL1        0.0000
     11  C          5.3380    1.4180    0.7980 C.2     1  UNL1        0.0000
     12  C          5.4690    0.4110    1.7290 C.2     1  UNL1        0.0000
@<TRIPOS>BOND
     1     4     5    1
     2     4     2    1
     3     3     2    2
     4     2     1    1
     5     1     6    1
     6     6     7    1
     7     7     9    2
     8     7     8    1
     9     9    11    1
    10     8    10    2
    11    11    12    2
    12    10    12    1
