@<TRIPOS>MOLECULE
/home/cewinharhar/GITHUB/reincatalyze/data/processed/docking_pred/2023_Apr_20-15:07/65610c622cc3bd86a4d466f03d6f61670904542e_ligand_2.pdbqt
 12 12 0 0 0
SMALL
GASTEIGER

@<TRIPOS>ATOM
      1  C          8.4210   -0.6360   -2.1160 C.3     1  UNL1        0.1270
      2  C          8.4590   -1.9000   -2.8890 C.2     1  UNL1        0.3030
      3  O          9.5370   -2.5170   -3.0760 O.2     1  UNL1       -0.2520
      4  O          7.3010   -2.4370   -3.4290 O.3     1  UNL1       -0.4810
      5  H          6.5400   -2.7190   -2.8040 H       1  UNL1        0.2960
      6  C          7.0070   -0.1410   -2.0930 C.3     1  UNL1        0.0470
      7  C          6.4610    0.0340   -0.7490 C.2     1  UNL1       -0.0470
      8  C          5.8280    1.2030   -0.3930 C.2     1  UNL1        0.0040
      9  C          6.5830   -0.9880    0.1640 C.2     1  UNL1        0.0040
     10  C          5.3290    1.3000    0.9080 C.2     1  UNL1        0.0000
     11  C          6.0900   -0.8890    1.4500 C.2     1  UNL1        0.0000
     12  C          5.4550    0.2780    1.8140 C.2     1  UNL1        0.0000
@<TRIPOS>BOND
     1     4     2    1
     2     4     5    1
     3     3     2    2
     4     2     1    1
     5     1     6    1
     6     6     7    1
     7     7     8    2
     8     7     9    1
     9     8    10    1
    10     9    11    2
    11    10    12    2
    12    11    12    1
