@<TRIPOS>MOLECULE
/home/cewinharhar/GITHUB/reincatalyze/data/processed/docking_pred/2023_Apr_20-15:07/65610c622cc3bd86a4d466f03d6f61670904542e_ligand_2.pdbqt
 12 12 0 0 0
SMALL
GASTEIGER

@<TRIPOS>ATOM
      1  C          5.4460    2.8900    0.0090 C.3     1  UNL1        0.1270
      2  C          6.2250    3.8810    0.7880 C.2     1  UNL1        0.3030
      3  O          6.8990    4.7740    0.2170 O.2     1  UNL1       -0.2520
      4  O          6.2310    3.8500    2.1740 O.3     1  UNL1       -0.4810
      5  H          5.3700    3.6110    2.6730 H       1  UNL1        0.2960
      6  C          4.9730    1.8220    0.9470 C.3     1  UNL1        0.0470
      7  C          5.7870    0.6080    0.9240 C.2     1  UNL1       -0.0470
      8  C          6.5510    0.2940   -0.1760 C.2     1  UNL1        0.0040
      9  C          5.7840   -0.2240    2.0200 C.2     1  UNL1        0.0040
     10  C          7.3050   -0.8810   -0.1290 C.2     1  UNL1        0.0000
     11  C          6.5300   -1.3850    2.0650 C.2     1  UNL1        0.0000
     12  C          7.2970   -1.7070    0.9670 C.2     1  UNL1        0.0000
@<TRIPOS>BOND
     1     8    10    1
     2     8     7    2
     3    10    12    2
     4     1     2    1
     5     1     6    1
     6     3     2    2
     7     2     4    1
     8     7     6    1
     9     7     9    1
    10    12    11    1
    11     9    11    2
    12     4     5    1
