@<TRIPOS>MOLECULE
/home/cewinharhar/GITHUB/reincatalyze/data/processed/docking_pred/2023_Apr_20-15:07/65610c622cc3bd86a4d466f03d6f61670904542e_ligand_2.pdbqt
 12 12 0 0 0
SMALL
GASTEIGER

@<TRIPOS>ATOM
      1  C          8.2490    0.1650   -2.1500 C.3     1  UNL1        0.1270
      2  C          9.3740    0.3250   -1.1980 C.2     1  UNL1        0.3030
      3  O          9.4710   -0.4010   -0.1780 O.2     1  UNL1       -0.2520
      4  O         10.3520    1.2820   -1.4110 O.3     1  UNL1       -0.4810
      5  H         10.1350    2.2670   -1.2360 H       1  UNL1        0.2960
      6  C          7.1540   -0.5920   -1.4610 C.3     1  UNL1        0.0470
      7  C          6.3640    0.2160   -0.5340 C.2     1  UNL1       -0.0470
      8  C          6.1380   -0.2100    0.7540 C.2     1  UNL1        0.0040
      9  C          5.8470    1.4170   -0.9630 C.2     1  UNL1        0.0040
     10  C          5.3750    0.6140    1.5850 C.2     1  UNL1        0.0000
     11  C          5.0930    2.2300   -0.1400 C.2     1  UNL1        0.0000
     12  C          4.8610    1.8100    1.1510 C.2     1  UNL1        0.0000
@<TRIPOS>BOND
     1     1     6    1
     2     1     2    1
     3     6     7    1
     4     4     5    1
     5     4     2    1
     6     2     3    2
     7     9     7    2
     8     9    11    1
     9     7     8    1
    10    11    12    2
    11     8    10    2
    12    12    10    1
