@<TRIPOS>MOLECULE
/home/cewinharhar/GITHUB/reincatalyze/data/processed/docking_pred/2023_Apr_20-15:07/65610c622cc3bd86a4d466f03d6f61670904542e_ligand_2.pdbqt
 12 12 0 0 0
SMALL
GASTEIGER

@<TRIPOS>ATOM
      1  C          5.0000    1.7790    0.7210 C.3     1  UNL1        0.1270
      2  C          4.5580    1.0500    1.9330 C.2     1  UNL1        0.3030
      3  O          5.2820    0.1730    2.4660 O.2     1  UNL1       -0.2520
      4  O          3.3290    1.3190    2.5140 O.3     1  UNL1       -0.4810
      5  H          3.1840    2.2140    2.9890 H       1  UNL1        0.2960
      6  C          6.4980    1.8310    0.7230 C.3     1  UNL1        0.0470
      7  C          7.1210    1.0680   -0.3580 C.2     1  UNL1       -0.0470
      8  C          6.3750    0.2140   -1.1360 C.2     1  UNL1        0.0040
      9  C          8.4680    1.2150   -0.5920 C.2     1  UNL1        0.0040
     10  C          7.0360   -0.4820   -2.1510 C.2     1  UNL1        0.0000
     11  C          9.1200    0.5260   -1.5950 C.2     1  UNL1        0.0000
     12  C          8.3810   -0.3330   -2.3800 C.2     1  UNL1        0.0000
@<TRIPOS>BOND
     1    12    10    2
     2    12    11    1
     3    10     8    1
     4    11     9    2
     5     8     7    2
     6     9     7    1
     7     7     6    1
     8     1     6    1
     9     1     2    1
    10     2     3    2
    11     2     4    1
    12     4     5    1
