MODEL 1
REMARK VINA RESULT:      -7.3      0.000      0.000
REMARK SMILES O=C(O)CCc1ccccc1
REMARK SMILES IDX 4 1 2 2 1 3 3 4 5 6 6 7 7 8 11 9 8 10 10 11 9 12
REMARK H PARENT 3 5
REMARK Flexibility Score: inf
ROOT
ATOM      1  C   UNL     1       8.445  -0.607  -2.180  1.00  0.00     0.127 C 
ENDROOT
BRANCH   1   2
ATOM      2  C   UNL     1       8.478  -1.895  -2.913  1.00  0.00     0.303 C 
ATOM      3  O   UNL     1       9.556  -2.513  -3.093  1.00  0.00    -0.252 OA
BRANCH   2   4
ATOM      4  O   UNL     1       7.316  -2.453  -3.421  1.00  0.00    -0.481 OA
ATOM      5  H   UNL     1       6.450  -1.908  -3.405  1.00  0.00     0.296 HD
ENDBRANCH   2   4
ENDBRANCH   1   2
BRANCH   1   6
ATOM      6  C   UNL     1       7.027  -0.125  -2.141  1.00  0.00     0.047 C 
BRANCH   6   7
ATOM      7  C   UNL     1       6.493   0.040  -0.790  1.00  0.00    -0.047 A 
ATOM      8  C   UNL     1       6.615  -0.964   0.142  1.00  0.00     0.004 A 
ATOM      9  C   UNL     1       5.864   1.217  -0.455  1.00  0.00     0.004 A 
ATOM     10  C   UNL     1       6.082  -0.737   1.413  1.00  0.00     0.000 A 
ATOM     11  C   UNL     1       5.337   1.440   0.801  1.00  0.00     0.000 A 
ATOM     12  C   UNL     1       5.455   0.439   1.741  1.00  0.00     0.000 A 
ENDBRANCH   6   7
ENDBRANCH   1   6
TORSDOF 4
ENDMDL
MODEL 2
REMARK VINA RESULT:      -7.3      0.084      1.439
REMARK SMILES O=C(O)CCc1ccccc1
REMARK SMILES IDX 4 1 2 2 1 3 3 4 5 6 6 7 7 8 11 9 8 10 10 11 9 12
REMARK H PARENT 3 5
REMARK Flexibility Score: inf
ROOT
ATOM      1  C   UNL     1       8.426  -0.594  -2.181  1.00  0.00     0.127 C 
ENDROOT
BRANCH   1   2
ATOM      2  C   UNL     1       8.477  -1.881  -2.914  1.00  0.00     0.303 C 
ATOM      3  O   UNL     1       9.565  -2.479  -3.106  1.00  0.00    -0.252 OA
BRANCH   2   4
ATOM      4  O   UNL     1       7.321  -2.461  -3.411  1.00  0.00    -0.481 OA
ATOM      5  H   UNL     1       6.424  -2.256  -2.961  1.00  0.00     0.296 HD
ENDBRANCH   2   4
ENDBRANCH   1   2
BRANCH   1   6
ATOM      6  C   UNL     1       7.002  -0.132  -2.139  1.00  0.00     0.047 C 
BRANCH   6   7
ATOM      7  C   UNL     1       6.474   0.045  -0.787  1.00  0.00    -0.047 A 
ATOM      8  C   UNL     1       5.849   1.215  -0.424  1.00  0.00     0.004 A 
ATOM      9  C   UNL     1       6.607  -0.977   0.124  1.00  0.00     0.004 A 
ATOM     10  C   UNL     1       5.368   1.314   0.884  1.00  0.00     0.000 A 
ATOM     11  C   UNL     1       6.131  -0.877   1.417  1.00  0.00     0.000 A 
ATOM     12  C   UNL     1       5.504   0.292   1.789  1.00  0.00     0.000 A 
ENDBRANCH   6   7
ENDBRANCH   1   6
TORSDOF 4
ENDMDL
MODEL 3
REMARK VINA RESULT:      -6.8      3.376      5.062
REMARK SMILES O=C(O)CCc1ccccc1
REMARK SMILES IDX 4 1 2 2 1 3 3 4 5 6 6 7 7 8 11 9 8 10 10 11 9 12
REMARK H PARENT 3 5
REMARK Flexibility Score: inf
ROOT
ATOM      1  C   UNL     1       5.006   1.794   0.715  1.00  0.00     0.127 C 
ENDROOT
BRANCH   1   2
ATOM      2  C   UNL     1       4.481   1.109   1.919  1.00  0.00     0.303 C 
ATOM      3  O   UNL     1       5.131   0.194   2.484  1.00  0.00    -0.252 OA
BRANCH   2   4
ATOM      4  O   UNL     1       3.253   1.460   2.457  1.00  0.00    -0.481 OA
ATOM      5  H   UNL     1       2.619   2.052   1.914  1.00  0.00     0.296 HD
ENDBRANCH   2   4
ENDBRANCH   1   2
BRANCH   1   6
ATOM      6  C   UNL     1       6.502   1.756   0.767  1.00  0.00     0.047 C 
BRANCH   6   7
ATOM      7  C   UNL     1       7.117   1.009  -0.329  1.00  0.00    -0.047 A 
ATOM      8  C   UNL     1       6.389   0.092  -1.050  1.00  0.00     0.004 A 
ATOM      9  C   UNL     1       8.439   1.233  -0.635  1.00  0.00     0.004 A 
ATOM     10  C   UNL     1       7.040  -0.585  -2.084  1.00  0.00     0.000 A 
ATOM     11  C   UNL     1       9.082   0.562  -1.657  1.00  0.00     0.000 A 
ATOM     12  C   UNL     1       8.359  -0.359  -2.384  1.00  0.00     0.000 A 
ENDBRANCH   6   7
ENDBRANCH   1   6
TORSDOF 4
ENDMDL
MODEL 4
REMARK VINA RESULT:      -6.7      1.920      2.300
REMARK SMILES O=C(O)CCc1ccccc1
REMARK SMILES IDX 4 1 2 2 1 3 3 4 5 6 6 7 7 8 11 9 8 10 10 11 9 12
REMARK H PARENT 3 5
REMARK Flexibility Score: inf
ROOT
ATOM      1  C   UNL     1       8.209   0.250  -2.212  1.00  0.00     0.127 C 
ENDROOT
BRANCH   1   2
ATOM      2  C   UNL     1       9.332   0.356  -1.251  1.00  0.00     0.303 C 
ATOM      3  O   UNL     1       9.424  -0.421  -0.269  1.00  0.00    -0.252 OA
BRANCH   2   4
ATOM      4  O   UNL     1      10.315   1.320  -1.411  1.00  0.00    -0.481 OA
ATOM      5  H   UNL     1      10.501   1.696  -2.345  1.00  0.00     0.296 HD
ENDBRANCH   2   4
ENDBRANCH   1   2
BRANCH   1   6
ATOM      6  C   UNL     1       7.094  -0.501  -1.552  1.00  0.00     0.047 C 
BRANCH   6   7
ATOM      7  C   UNL     1       6.322   0.296  -0.599  1.00  0.00    -0.047 A 
ATOM      8  C   UNL     1       6.105  -0.155   0.682  1.00  0.00     0.004 A 
ATOM      9  C   UNL     1       5.814   1.511  -0.998  1.00  0.00     0.004 A 
ATOM     10  C   UNL     1       5.360   0.660   1.538  1.00  0.00     0.000 A 
ATOM     11  C   UNL     1       5.077   2.314  -0.150  1.00  0.00     0.000 A 
ATOM     12  C   UNL     1       4.855   1.870   1.135  1.00  0.00     0.000 A 
ENDBRANCH   6   7
ENDBRANCH   1   6
TORSDOF 4
ENDMDL
MODEL 5
REMARK VINA RESULT:      -6.5      3.721      4.957
REMARK SMILES O=C(O)CCc1ccccc1
REMARK SMILES IDX 4 1 2 2 1 3 3 4 5 6 6 7 7 8 11 9 8 10 10 11 9 12
REMARK H PARENT 3 5
REMARK Flexibility Score: inf
ROOT
ATOM      1  C   UNL     1       5.424   2.911   0.058  1.00  0.00     0.127 C 
ENDROOT
BRANCH   1   2
ATOM      2  C   UNL     1       6.245   3.856   0.852  1.00  0.00     0.303 C 
ATOM      3  O   UNL     1       6.899   4.774   0.298  1.00  0.00    -0.252 OA
BRANCH   2   4
ATOM      4  O   UNL     1       6.314   3.750   2.231  1.00  0.00    -0.481 OA
ATOM      5  H   UNL     1       6.634   2.873   2.651  1.00  0.00     0.296 HD
ENDBRANCH   2   4
ENDBRANCH   1   2
BRANCH   1   6
ATOM      6  C   UNL     1       5.244   1.657   0.858  1.00  0.00     0.047 C 
BRANCH   6   7
ATOM      7  C   UNL     1       6.049   0.531   0.389  1.00  0.00    -0.047 A 
ATOM      8  C   UNL     1       6.452  -0.456   1.258  1.00  0.00     0.004 A 
ATOM      9  C   UNL     1       6.402   0.465  -0.939  1.00  0.00     0.004 A 
ATOM     10  C   UNL     1       7.219  -1.502   0.740  1.00  0.00     0.000 A 
ATOM     11  C   UNL     1       7.160  -0.570  -1.450  1.00  0.00     0.000 A 
ATOM     12  C   UNL     1       7.568  -1.562  -0.585  1.00  0.00     0.000 A 
ENDBRANCH   6   7
ENDBRANCH   1   6
TORSDOF 4
ENDMDL
