@<TRIPOS>MOLECULE
/home/cewinharhar/GITHUB/reincatalyze/data/processed/docking_pred/2023_Apr_20-15:07/661305b30cebe31e235170a50c1781f21e405ac9_ligand_2.pdbqt
 12 12 0 0 0
SMALL
GASTEIGER

@<TRIPOS>ATOM
      1  C          5.4240    2.9110    0.0580 C.3     1  UNL1        0.1270
      2  C          6.2450    3.8560    0.8520 C.2     1  UNL1        0.3030
      3  O          6.8990    4.7740    0.2980 O.2     1  UNL1       -0.2520
      4  O          6.3140    3.7500    2.2310 O.3     1  UNL1       -0.4810
      5  H          6.6340    2.8730    2.6510 H       1  UNL1        0.2960
      6  C          5.2440    1.6570    0.8580 C.3     1  UNL1        0.0470
      7  C          6.0490    0.5310    0.3890 C.2     1  UNL1       -0.0470
      8  C          6.4520   -0.4560    1.2580 C.2     1  UNL1        0.0040
      9  C          6.4020    0.4650   -0.9390 C.2     1  UNL1        0.0040
     10  C          7.2190   -1.5020    0.7400 C.2     1  UNL1        0.0000
     11  C          7.1600   -0.5700   -1.4500 C.2     1  UNL1        0.0000
     12  C          7.5680   -1.5620   -0.5850 C.2     1  UNL1        0.0000
@<TRIPOS>BOND
     1    11     9    1
     2    11    12    2
     3     9     7    2
     4    12    10    1
     5     1     2    1
     6     1     6    1
     7     3     2    2
     8     7     6    1
     9     7     8    1
    10    10     8    2
    11     2     4    1
    12     4     5    1
