@<TRIPOS>MOLECULE
/home/cewinharhar/GITHUB/reincatalyze/data/processed/docking_pred/2023_Apr_20-15:07/661305b30cebe31e235170a50c1781f21e405ac9_ligand_2.pdbqt
 12 12 0 0 0
SMALL
GASTEIGER

@<TRIPOS>ATOM
      1  C          8.4450   -0.6070   -2.1800 C.3     1  UNL1        0.1270
      2  C          8.4780   -1.8950   -2.9130 C.2     1  UNL1        0.3030
      3  O          9.5560   -2.5130   -3.0930 O.2     1  UNL1       -0.2520
      4  O          7.3160   -2.4530   -3.4210 O.3     1  UNL1       -0.4810
      5  H          6.4500   -1.9080   -3.4050 H       1  UNL1        0.2960
      6  C          7.0270   -0.1250   -2.1410 C.3     1  UNL1        0.0470
      7  C          6.4930    0.0400   -0.7900 C.2     1  UNL1       -0.0470
      8  C          6.6150   -0.9640    0.1420 C.2     1  UNL1        0.0040
      9  C          5.8640    1.2170   -0.4550 C.2     1  UNL1        0.0040
     10  C          6.0820   -0.7370    1.4130 C.2     1  UNL1        0.0000
     11  C          5.3370    1.4400    0.8010 C.2     1  UNL1        0.0000
     12  C          5.4550    0.4390    1.7410 C.2     1  UNL1        0.0000
@<TRIPOS>BOND
     1     4     5    1
     2     4     2    1
     3     3     2    2
     4     2     1    1
     5     1     6    1
     6     6     7    1
     7     7     9    2
     8     7     8    1
     9     9    11    1
    10     8    10    2
    11    11    12    2
    12    10    12    1
