@<TRIPOS>MOLECULE
/home/cewinharhar/GITHUB/reincatalyze/data/processed/docking_pred/2023_Apr_20-15:07/661305b30cebe31e235170a50c1781f21e405ac9_ligand_2.pdbqt
 12 12 0 0 0
SMALL
GASTEIGER

@<TRIPOS>ATOM
      1  C          8.2090    0.2500   -2.2120 C.3     1  UNL1        0.1270
      2  C          9.3320    0.3560   -1.2510 C.2     1  UNL1        0.3030
      3  O          9.4240   -0.4210   -0.2690 O.2     1  UNL1       -0.2520
      4  O         10.3150    1.3200   -1.4110 O.3     1  UNL1       -0.4810
      5  H         10.5010    1.6960   -2.3450 H       1  UNL1        0.2960
      6  C          7.0940   -0.5010   -1.5520 C.3     1  UNL1        0.0470
      7  C          6.3220    0.2960   -0.5990 C.2     1  UNL1       -0.0470
      8  C          6.1050   -0.1550    0.6820 C.2     1  UNL1        0.0040
      9  C          5.8140    1.5110   -0.9980 C.2     1  UNL1        0.0040
     10  C          5.3600    0.6600    1.5380 C.2     1  UNL1        0.0000
     11  C          5.0770    2.3140   -0.1500 C.2     1  UNL1        0.0000
     12  C          4.8550    1.8700    1.1350 C.2     1  UNL1        0.0000
@<TRIPOS>BOND
     1     5     4    1
     2     1     6    1
     3     1     2    1
     4     6     7    1
     5     4     2    1
     6     2     3    2
     7     9     7    2
     8     9    11    1
     9     7     8    1
    10    11    12    2
    11     8    10    2
    12    12    10    1
