@<TRIPOS>MOLECULE
/home/cewinharhar/GITHUB/reincatalyze/data/processed/docking_pred/2023_Apr_20-15:07/661305b30cebe31e235170a50c1781f21e405ac9_ligand_2.pdbqt
 12 12 0 0 0
SMALL
GASTEIGER

@<TRIPOS>ATOM
      1  C          5.0060    1.7940    0.7150 C.3     1  UNL1        0.1270
      2  C          4.4810    1.1090    1.9190 C.2     1  UNL1        0.3030
      3  O          5.1310    0.1940    2.4840 O.2     1  UNL1       -0.2520
      4  O          3.2530    1.4600    2.4570 O.3     1  UNL1       -0.4810
      5  H          2.6190    2.0520    1.9140 H       1  UNL1        0.2960
      6  C          6.5020    1.7560    0.7670 C.3     1  UNL1        0.0470
      7  C          7.1170    1.0090   -0.3290 C.2     1  UNL1       -0.0470
      8  C          6.3890    0.0920   -1.0500 C.2     1  UNL1        0.0040
      9  C          8.4390    1.2330   -0.6350 C.2     1  UNL1        0.0040
     10  C          7.0400   -0.5850   -2.0840 C.2     1  UNL1        0.0000
     11  C          9.0820    0.5620   -1.6570 C.2     1  UNL1        0.0000
     12  C          8.3590   -0.3590   -2.3840 C.2     1  UNL1        0.0000
@<TRIPOS>BOND
     1    12    10    2
     2    12    11    1
     3    10     8    1
     4    11     9    2
     5     8     7    2
     6     9     7    1
     7     7     6    1
     8     1     6    1
     9     1     2    1
    10     5     4    1
    11     2     4    1
    12     2     3    2
