@<TRIPOS>MOLECULE
/home/cewinharhar/GITHUB/reincatalyze/data/processed/docking_pred/2023_Apr_20-15:07/661305b30cebe31e235170a50c1781f21e405ac9_ligand_2.pdbqt
 12 12 0 0 0
SMALL
GASTEIGER

@<TRIPOS>ATOM
      1  C          8.4260   -0.5940   -2.1810 C.3     1  UNL1        0.1270
      2  C          8.4770   -1.8810   -2.9140 C.2     1  UNL1        0.3030
      3  O          9.5650   -2.4790   -3.1060 O.2     1  UNL1       -0.2520
      4  O          7.3210   -2.4610   -3.4110 O.3     1  UNL1       -0.4810
      5  H          6.4240   -2.2560   -2.9610 H       1  UNL1        0.2960
      6  C          7.0020   -0.1320   -2.1390 C.3     1  UNL1        0.0470
      7  C          6.4740    0.0450   -0.7870 C.2     1  UNL1       -0.0470
      8  C          5.8490    1.2150   -0.4240 C.2     1  UNL1        0.0040
      9  C          6.6070   -0.9770    0.1240 C.2     1  UNL1        0.0040
     10  C          5.3680    1.3140    0.8840 C.2     1  UNL1        0.0000
     11  C          6.1310   -0.8770    1.4170 C.2     1  UNL1        0.0000
     12  C          5.5040    0.2920    1.7890 C.2     1  UNL1        0.0000
@<TRIPOS>BOND
     1     4     5    1
     2     4     2    1
     3     3     2    2
     4     2     1    1
     5     1     6    1
     6     6     7    1
     7     7     8    2
     8     7     9    1
     9     8    10    1
    10     9    11    2
    11    10    12    2
    12    11    12    1
