@<TRIPOS>MOLECULE
/home/cewinharhar/GITHUB/reincatalyze/data/processed/docking_pred/2023_Apr_20-15:07/67714d3181cdcfbe83529be90e704c7fe5693ba3_ligand_2.pdbqt
 12 12 0 0 0
SMALL
GASTEIGER

@<TRIPOS>ATOM
      1  C          8.1580    0.2840   -2.1000 C.3     1  UNL1        0.1270
      2  C          9.3440    0.3650   -1.2150 C.2     1  UNL1        0.3030
      3  O          9.4670   -0.3910   -0.2200 O.2     1  UNL1       -0.2520
      4  O         10.3530    1.2820   -1.4630 O.3     1  UNL1       -0.4810
      5  H         10.6500    1.4510   -2.4280 H       1  UNL1        0.2960
      6  C          7.1320   -0.5820   -1.4330 C.3     1  UNL1        0.0470
      7  C          6.3520    0.1060   -0.4060 C.2     1  UNL1       -0.0470
      8  C          6.1650   -0.4620    0.8330 C.2     1  UNL1        0.0040
      9  C          5.8030    1.3350   -0.6910 C.2     1  UNL1        0.0040
     10  C          5.4090    0.2520    1.7650 C.2     1  UNL1        0.0000
     11  C          5.0550    2.0390    0.2330 C.2     1  UNL1        0.0000
     12  C          4.8630    1.4770    1.4760 C.2     1  UNL1        0.0000
@<TRIPOS>BOND
     1     5     4    1
     2     1     6    1
     3     1     2    1
     4     4     2    1
     5     6     7    1
     6     2     3    2
     7     9     7    2
     8     9    11    1
     9     7     8    1
    10    11    12    2
    11     8    10    2
    12    12    10    1
