MODEL 1
REMARK VINA RESULT:      -7.3      0.000      0.000
REMARK SMILES O=C(O)CCc1ccccc1
REMARK SMILES IDX 4 1 2 2 1 3 3 4 5 6 6 7 7 8 11 9 8 10 10 11 9 12
REMARK H PARENT 3 5
REMARK Flexibility Score: inf
ROOT
ATOM      1  C   UNL     1       8.414  -0.627  -2.140  1.00  0.00     0.127 C 
ENDROOT
BRANCH   1   2
ATOM      2  C   UNL     1       8.461  -1.897  -2.902  1.00  0.00     0.303 C 
ATOM      3  O   UNL     1       9.545  -2.502  -3.092  1.00  0.00    -0.252 OA
BRANCH   2   4
ATOM      4  O   UNL     1       7.306  -2.453  -3.428  1.00  0.00    -0.481 OA
ATOM      5  H   UNL     1       6.398  -2.176  -3.046  1.00  0.00     0.296 HD
ENDBRANCH   2   4
ENDBRANCH   1   2
BRANCH   1   6
ATOM      6  C   UNL     1       6.996  -0.143  -2.119  1.00  0.00     0.047 C 
BRANCH   6   7
ATOM      7  C   UNL     1       6.456   0.057  -0.776  1.00  0.00    -0.047 A 
ATOM      8  C   UNL     1       5.832   1.235  -0.437  1.00  0.00     0.004 A 
ATOM      9  C   UNL     1       6.575  -0.951   0.153  1.00  0.00     0.004 A 
ATOM     10  C   UNL     1       5.339   1.357   0.864  1.00  0.00     0.000 A 
ATOM     11  C   UNL     1       6.088  -0.829   1.439  1.00  0.00     0.000 A 
ATOM     12  C   UNL     1       5.462   0.348   1.787  1.00  0.00     0.000 A 
ENDBRANCH   6   7
ENDBRANCH   1   6
TORSDOF 4
ENDMDL
MODEL 2
REMARK VINA RESULT:      -7.3      0.073      1.438
REMARK SMILES O=C(O)CCc1ccccc1
REMARK SMILES IDX 4 1 2 2 1 3 3 4 5 6 6 7 7 8 11 9 8 10 10 11 9 12
REMARK H PARENT 3 5
REMARK Flexibility Score: inf
ROOT
ATOM      1  C   UNL     1       8.434  -0.562  -2.248  1.00  0.00     0.127 C 
ENDROOT
BRANCH   1   2
ATOM      2  C   UNL     1       8.484  -1.873  -2.936  1.00  0.00     0.303 C 
ATOM      3  O   UNL     1       9.570  -2.485  -3.093  1.00  0.00    -0.252 OA
BRANCH   2   4
ATOM      4  O   UNL     1       7.330  -2.462  -3.427  1.00  0.00    -0.481 OA
ATOM      5  H   UNL     1       6.854  -2.039  -4.228  1.00  0.00     0.296 HD
ENDBRANCH   2   4
ENDBRANCH   1   2
BRANCH   1   6
ATOM      6  C   UNL     1       7.003  -0.121  -2.180  1.00  0.00     0.047 C 
BRANCH   6   7
ATOM      7  C   UNL     1       6.492   0.028  -0.818  1.00  0.00    -0.047 A 
ATOM      8  C   UNL     1       6.629  -0.987   0.100  1.00  0.00     0.004 A 
ATOM      9  C   UNL     1       5.869   1.201  -0.460  1.00  0.00     0.004 A 
ATOM     10  C   UNL     1       6.118  -0.775   1.382  1.00  0.00     0.000 A 
ATOM     11  C   UNL     1       5.363   1.409   0.808  1.00  0.00     0.000 A 
ATOM     12  C   UNL     1       5.496   0.396   1.734  1.00  0.00     0.000 A 
ENDBRANCH   6   7
ENDBRANCH   1   6
TORSDOF 4
ENDMDL
MODEL 3
REMARK VINA RESULT:      -7.1      0.853      1.775
REMARK SMILES O=C(O)CCc1ccccc1
REMARK SMILES IDX 4 1 2 2 1 3 3 4 5 6 6 7 7 8 11 9 8 10 10 11 9 12
REMARK H PARENT 3 5
REMARK Flexibility Score: inf
ROOT
ATOM      1  C   UNL     1       7.258  -1.301  -2.280  1.00  0.00     0.127 C 
ENDROOT
BRANCH   1   2
ATOM      2  C   UNL     1       8.715  -1.394  -2.535  1.00  0.00     0.303 C 
ATOM      3  O   UNL     1       9.510  -0.529  -2.092  1.00  0.00    -0.252 OA
BRANCH   2   4
ATOM      4  O   UNL     1       9.241  -2.444  -3.271  1.00  0.00    -0.481 OA
ATOM      5  H   UNL     1       8.790  -2.715  -4.149  1.00  0.00     0.296 HD
ENDBRANCH   2   4
ENDBRANCH   1   2
BRANCH   1   6
ATOM      6  C   UNL     1       6.929   0.123  -1.947  1.00  0.00     0.047 C 
BRANCH   6   7
ATOM      7  C   UNL     1       6.327   0.301  -0.627  1.00  0.00    -0.047 A 
ATOM      8  C   UNL     1       6.455  -0.668   0.341  1.00  0.00     0.004 A 
ATOM      9  C   UNL     1       5.628   1.455  -0.358  1.00  0.00     0.004 A 
ATOM     10  C   UNL     1       5.854  -0.431   1.580  1.00  0.00     0.000 A 
ATOM     11  C   UNL     1       5.035   1.688   0.867  1.00  0.00     0.000 A 
ATOM     12  C   UNL     1       5.157   0.722   1.842  1.00  0.00     0.000 A 
ENDBRANCH   6   7
ENDBRANCH   1   6
TORSDOF 4
ENDMDL
MODEL 4
REMARK VINA RESULT:      -6.7      3.351      5.022
REMARK SMILES O=C(O)CCc1ccccc1
REMARK SMILES IDX 4 1 2 2 1 3 3 4 5 6 6 7 7 8 11 9 8 10 10 11 9 12
REMARK H PARENT 3 5
REMARK Flexibility Score: inf
ROOT
ATOM      1  C   UNL     1       5.068   1.718   0.712  1.00  0.00     0.127 C 
ENDROOT
BRANCH   1   2
ATOM      2  C   UNL     1       4.580   1.031   1.930  1.00  0.00     0.303 C 
ATOM      3  O   UNL     1       5.268   0.148   2.500  1.00  0.00    -0.252 OA
BRANCH   2   4
ATOM      4  O   UNL     1       3.345   1.345   2.476  1.00  0.00    -0.481 OA
ATOM      5  H   UNL     1       2.932   0.718   3.172  1.00  0.00     0.296 HD
ENDBRANCH   2   4
ENDBRANCH   1   2
BRANCH   1   6
ATOM      6  C   UNL     1       6.566   1.731   0.746  1.00  0.00     0.047 C 
BRANCH   6   7
ATOM      7  C   UNL     1       7.192   0.991  -0.348  1.00  0.00    -0.047 A 
ATOM      8  C   UNL     1       8.504   1.219  -0.691  1.00  0.00     0.004 A 
ATOM      9  C   UNL     1       6.453   0.056  -1.036  1.00  0.00     0.004 A 
ATOM     10  C   UNL     1       9.038   0.476  -1.746  1.00  0.00     0.000 A 
ATOM     11  C   UNL     1       6.981  -0.678  -2.079  1.00  0.00     0.000 A 
ATOM     12  C   UNL     1       8.295  -0.455  -2.429  1.00  0.00     0.000 A 
ENDBRANCH   6   7
ENDBRANCH   1   6
TORSDOF 4
ENDMDL
MODEL 5
REMARK VINA RESULT:      -6.6      1.936      2.627
REMARK SMILES O=C(O)CCc1ccccc1
REMARK SMILES IDX 4 1 2 2 1 3 3 4 5 6 6 7 7 8 11 9 8 10 10 11 9 12
REMARK H PARENT 3 5
REMARK Flexibility Score: inf
ROOT
ATOM      1  C   UNL     1       8.158   0.284  -2.100  1.00  0.00     0.127 C 
ENDROOT
BRANCH   1   2
ATOM      2  C   UNL     1       9.344   0.365  -1.215  1.00  0.00     0.303 C 
ATOM      3  O   UNL     1       9.467  -0.391  -0.220  1.00  0.00    -0.252 OA
BRANCH   2   4
ATOM      4  O   UNL     1      10.353   1.282  -1.463  1.00  0.00    -0.481 OA
ATOM      5  H   UNL     1      10.650   1.451  -2.428  1.00  0.00     0.296 HD
ENDBRANCH   2   4
ENDBRANCH   1   2
BRANCH   1   6
ATOM      6  C   UNL     1       7.132  -0.582  -1.433  1.00  0.00     0.047 C 
BRANCH   6   7
ATOM      7  C   UNL     1       6.352   0.106  -0.406  1.00  0.00    -0.047 A 
ATOM      8  C   UNL     1       6.165  -0.462   0.833  1.00  0.00     0.004 A 
ATOM      9  C   UNL     1       5.803   1.335  -0.691  1.00  0.00     0.004 A 
ATOM     10  C   UNL     1       5.409   0.252   1.765  1.00  0.00     0.000 A 
ATOM     11  C   UNL     1       5.055   2.039   0.233  1.00  0.00     0.000 A 
ATOM     12  C   UNL     1       4.863   1.477   1.476  1.00  0.00     0.000 A 
ENDBRANCH   6   7
ENDBRANCH   1   6
TORSDOF 4
ENDMDL
