@<TRIPOS>MOLECULE
/home/cewinharhar/GITHUB/reincatalyze/data/processed/docking_pred/2023_Apr_20-15:07/67714d3181cdcfbe83529be90e704c7fe5693ba3_ligand_2.pdbqt
 12 12 0 0 0
SMALL
GASTEIGER

@<TRIPOS>ATOM
      1  C          8.4340   -0.5620   -2.2480 C.3     1  UNL1        0.1270
      2  C          8.4840   -1.8730   -2.9360 C.2     1  UNL1        0.3030
      3  O          9.5700   -2.4850   -3.0930 O.2     1  UNL1       -0.2520
      4  O          7.3300   -2.4620   -3.4270 O.3     1  UNL1       -0.4810
      5  H          6.8540   -2.0390   -4.2280 H       1  UNL1        0.2960
      6  C          7.0030   -0.1210   -2.1800 C.3     1  UNL1        0.0470
      7  C          6.4920    0.0280   -0.8180 C.2     1  UNL1       -0.0470
      8  C          6.6290   -0.9870    0.1000 C.2     1  UNL1        0.0040
      9  C          5.8690    1.2010   -0.4600 C.2     1  UNL1        0.0040
     10  C          6.1180   -0.7750    1.3820 C.2     1  UNL1        0.0000
     11  C          5.3630    1.4090    0.8080 C.2     1  UNL1        0.0000
     12  C          5.4960    0.3960    1.7340 C.2     1  UNL1        0.0000
@<TRIPOS>BOND
     1     5     4    1
     2     4     2    1
     3     3     2    2
     4     2     1    1
     5     1     6    1
     6     6     7    1
     7     7     9    2
     8     7     8    1
     9     9    11    1
    10     8    10    2
    11    11    12    2
    12    10    12    1
