@<TRIPOS>MOLECULE
/home/cewinharhar/GITHUB/reincatalyze/data/processed/docking_pred/2023_Apr_20-15:07/67714d3181cdcfbe83529be90e704c7fe5693ba3_ligand_2.pdbqt
 12 12 0 0 0
SMALL
GASTEIGER

@<TRIPOS>ATOM
      1  C          8.4140   -0.6270   -2.1400 C.3     1  UNL1        0.1270
      2  C          8.4610   -1.8970   -2.9020 C.2     1  UNL1        0.3030
      3  O          9.5450   -2.5020   -3.0920 O.2     1  UNL1       -0.2520
      4  O          7.3060   -2.4530   -3.4280 O.3     1  UNL1       -0.4810
      5  H          6.3980   -2.1760   -3.0460 H       1  UNL1        0.2960
      6  C          6.9960   -0.1430   -2.1190 C.3     1  UNL1        0.0470
      7  C          6.4560    0.0570   -0.7760 C.2     1  UNL1       -0.0470
      8  C          5.8320    1.2350   -0.4370 C.2     1  UNL1        0.0040
      9  C          6.5750   -0.9510    0.1530 C.2     1  UNL1        0.0040
     10  C          5.3390    1.3570    0.8640 C.2     1  UNL1        0.0000
     11  C          6.0880   -0.8290    1.4390 C.2     1  UNL1        0.0000
     12  C          5.4620    0.3480    1.7870 C.2     1  UNL1        0.0000
@<TRIPOS>BOND
     1     4     5    1
     2     4     2    1
     3     3     2    2
     4     2     1    1
     5     1     6    1
     6     6     7    1
     7     7     8    2
     8     7     9    1
     9     8    10    1
    10     9    11    2
    11    10    12    2
    12    11    12    1
