@<TRIPOS>MOLECULE
/home/cewinharhar/GITHUB/reincatalyze/data/processed/docking_pred/2023_Apr_20-15:07/67714d3181cdcfbe83529be90e704c7fe5693ba3_ligand_2.pdbqt
 12 12 0 0 0
SMALL
GASTEIGER

@<TRIPOS>ATOM
      1  C          5.0680    1.7180    0.7120 C.3     1  UNL1        0.1270
      2  C          4.5800    1.0310    1.9300 C.2     1  UNL1        0.3030
      3  O          5.2680    0.1480    2.5000 O.2     1  UNL1       -0.2520
      4  O          3.3450    1.3450    2.4760 O.3     1  UNL1       -0.4810
      5  H          2.9320    0.7180    3.1720 H       1  UNL1        0.2960
      6  C          6.5660    1.7310    0.7460 C.3     1  UNL1        0.0470
      7  C          7.1920    0.9910   -0.3480 C.2     1  UNL1       -0.0470
      8  C          8.5040    1.2190   -0.6910 C.2     1  UNL1        0.0040
      9  C          6.4530    0.0560   -1.0360 C.2     1  UNL1        0.0040
     10  C          9.0380    0.4760   -1.7460 C.2     1  UNL1        0.0000
     11  C          6.9810   -0.6780   -2.0790 C.2     1  UNL1        0.0000
     12  C          8.2950   -0.4550   -2.4290 C.2     1  UNL1        0.0000
@<TRIPOS>BOND
     1    12    11    2
     2    12    10    1
     3    11     9    1
     4    10     8    2
     5     9     7    2
     6     8     7    1
     7     7     6    1
     8     1     6    1
     9     1     2    1
    10     2     4    1
    11     2     3    2
    12     4     5    1
