@<TRIPOS>MOLECULE
/home/cewinharhar/GITHUB/reincatalyze/data/processed/docking_pred/2023_Apr_20-15:07/677496c5c46bc5e4ac1ff58ba47d0b72a83fedc5_ligand_2.pdbqt
 12 12 0 0 0
SMALL
GASTEIGER

@<TRIPOS>ATOM
      1  C          8.4260   -0.6050   -2.1520 C.3     1  UNL1        0.1270
      2  C          8.3870   -1.8850   -2.8970 C.2     1  UNL1        0.3030
      3  O          7.2970   -2.4150   -3.2240 O.2     1  UNL1       -0.2520
      4  O          9.5580   -2.5350   -3.2520 O.3     1  UNL1       -0.4810
      5  H          9.9200   -3.2800   -2.6500 H       1  UNL1        0.2960
      6  C          7.0420   -0.0300   -2.1320 C.3     1  UNL1        0.0470
      7  C          6.4770    0.1120   -0.7910 C.2     1  UNL1       -0.0470
      8  C          6.6460   -0.8750    0.1510 C.2     1  UNL1        0.0040
      9  C          5.7700    1.2500   -0.4780 C.2     1  UNL1        0.0040
     10  C          6.0790   -0.6730    1.4110 C.2     1  UNL1        0.0000
     11  C          5.2100    1.4480    0.7690 C.2     1  UNL1        0.0000
     12  C          5.3740    0.4640    1.7190 C.2     1  UNL1        0.0000
@<TRIPOS>BOND
     1     4     2    1
     2     4     5    1
     3     3     2    2
     4     2     1    1
     5     1     6    1
     6     6     7    1
     7     7     9    2
     8     7     8    1
     9     9    11    1
    10     8    10    2
    11    11    12    2
    12    10    12    1
