MODEL 1
REMARK VINA RESULT:      -7.1      0.000      0.000
REMARK SMILES O=C(O)CCc1ccccc1
REMARK SMILES IDX 4 1 2 2 1 3 3 4 5 6 6 7 7 8 11 9 8 10 10 11 9 12
REMARK H PARENT 3 5
REMARK Flexibility Score: inf
ROOT
ATOM      1  C   UNL     1       8.366  -0.925  -1.788  1.00  0.00     0.127 C 
ENDROOT
BRANCH   1   2
ATOM      2  C   UNL     1       8.427  -2.003  -2.803  1.00  0.00     0.303 C 
ATOM      3  O   UNL     1       9.522  -2.516  -3.142  1.00  0.00    -0.252 OA
BRANCH   2   4
ATOM      4  O   UNL     1       7.273  -2.474  -3.407  1.00  0.00    -0.481 OA
ATOM      5  H   UNL     1       7.255  -2.599  -4.423  1.00  0.00     0.296 HD
ENDBRANCH   2   4
ENDBRANCH   1   2
BRANCH   1   6
ATOM      6  C   UNL     1       7.063  -0.202  -1.946  1.00  0.00     0.047 C 
BRANCH   6   7
ATOM      7  C   UNL     1       6.412   0.133  -0.681  1.00  0.00    -0.047 A 
ATOM      8  C   UNL     1       5.743   1.325  -0.528  1.00  0.00     0.004 A 
ATOM      9  C   UNL     1       6.472  -0.761   0.363  1.00  0.00     0.004 A 
ATOM     10  C   UNL     1       5.143   1.579   0.708  1.00  0.00     0.000 A 
ATOM     11  C   UNL     1       5.879  -0.509   1.584  1.00  0.00     0.000 A 
ATOM     12  C   UNL     1       5.207   0.683   1.745  1.00  0.00     0.000 A 
ENDBRANCH   6   7
ENDBRANCH   1   6
TORSDOF 4
ENDMDL
MODEL 2
REMARK VINA RESULT:      -7.0      0.251      1.742
REMARK SMILES O=C(O)CCc1ccccc1
REMARK SMILES IDX 4 1 2 2 1 3 3 4 5 6 6 7 7 8 11 9 8 10 10 11 9 12
REMARK H PARENT 3 5
REMARK Flexibility Score: inf
ROOT
ATOM      1  C   UNL     1       8.426  -0.605  -2.152  1.00  0.00     0.127 C 
ENDROOT
BRANCH   1   2
ATOM      2  C   UNL     1       8.387  -1.885  -2.897  1.00  0.00     0.303 C 
ATOM      3  O   UNL     1       7.297  -2.415  -3.224  1.00  0.00    -0.252 OA
BRANCH   2   4
ATOM      4  O   UNL     1       9.558  -2.535  -3.252  1.00  0.00    -0.481 OA
ATOM      5  H   UNL     1       9.920  -3.280  -2.650  1.00  0.00     0.296 HD
ENDBRANCH   2   4
ENDBRANCH   1   2
BRANCH   1   6
ATOM      6  C   UNL     1       7.042  -0.030  -2.132  1.00  0.00     0.047 C 
BRANCH   6   7
ATOM      7  C   UNL     1       6.477   0.112  -0.791  1.00  0.00    -0.047 A 
ATOM      8  C   UNL     1       6.646  -0.875   0.151  1.00  0.00     0.004 A 
ATOM      9  C   UNL     1       5.770   1.250  -0.478  1.00  0.00     0.004 A 
ATOM     10  C   UNL     1       6.079  -0.673   1.411  1.00  0.00     0.000 A 
ATOM     11  C   UNL     1       5.210   1.448   0.769  1.00  0.00     0.000 A 
ATOM     12  C   UNL     1       5.374   0.464   1.719  1.00  0.00     0.000 A 
ENDBRANCH   6   7
ENDBRANCH   1   6
TORSDOF 4
ENDMDL
MODEL 3
REMARK VINA RESULT:      -6.8      1.375      1.890
REMARK SMILES O=C(O)CCc1ccccc1
REMARK SMILES IDX 4 1 2 2 1 3 3 4 5 6 6 7 7 8 11 9 8 10 10 11 9 12
REMARK H PARENT 3 5
REMARK Flexibility Score: inf
ROOT
ATOM      1  C   UNL     1       8.214  -0.428  -2.487  1.00  0.00     0.127 C 
ENDROOT
BRANCH   1   2
ATOM      2  C   UNL     1       8.371  -1.803  -3.018  1.00  0.00     0.303 C 
ATOM      3  O   UNL     1       9.498  -2.354  -3.073  1.00  0.00    -0.252 OA
BRANCH   2   4
ATOM      4  O   UNL     1       7.275  -2.519  -3.470  1.00  0.00    -0.481 OA
ATOM      5  H   UNL     1       7.325  -2.993  -4.376  1.00  0.00     0.296 HD
ENDBRANCH   2   4
ENDBRANCH   1   2
BRANCH   1   6
ATOM      6  C   UNL     1       6.929  -0.365  -1.719  1.00  0.00     0.047 C 
BRANCH   6   7
ATOM      7  C   UNL     1       6.823   0.793  -0.832  1.00  0.00    -0.047 A 
ATOM      8  C   UNL     1       7.936   1.304  -0.207  1.00  0.00     0.004 A 
ATOM      9  C   UNL     1       5.592   1.372  -0.628  1.00  0.00     0.004 A 
ATOM     10  C   UNL     1       7.761   2.412   0.625  1.00  0.00     0.000 A 
ATOM     11  C   UNL     1       5.420   2.467   0.195  1.00  0.00     0.000 A 
ATOM     12  C   UNL     1       6.530   2.985   0.826  1.00  0.00     0.000 A 
ENDBRANCH   6   7
ENDBRANCH   1   6
TORSDOF 4
ENDMDL
MODEL 4
REMARK VINA RESULT:      -6.4      3.427      5.134
REMARK SMILES O=C(O)CCc1ccccc1
REMARK SMILES IDX 4 1 2 2 1 3 3 4 5 6 6 7 7 8 11 9 8 10 10 11 9 12
REMARK H PARENT 3 5
REMARK Flexibility Score: inf
ROOT
ATOM      1  C   UNL     1       4.979   1.848   0.790  1.00  0.00     0.127 C 
ENDROOT
BRANCH   1   2
ATOM      2  C   UNL     1       4.440   1.112   1.958  1.00  0.00     0.303 C 
ATOM      3  O   UNL     1       5.080   0.169   2.485  1.00  0.00    -0.252 OA
BRANCH   2   4
ATOM      4  O   UNL     1       3.210   1.446   2.502  1.00  0.00    -0.481 OA
ATOM      5  H   UNL     1       2.552   0.702   2.748  1.00  0.00     0.296 HD
ENDBRANCH   2   4
ENDBRANCH   1   2
BRANCH   1   6
ATOM      6  C   UNL     1       6.471   1.906   0.918  1.00  0.00     0.047 C 
BRANCH   6   7
ATOM      7  C   UNL     1       7.187   1.239  -0.168  1.00  0.00    -0.047 A 
ATOM      8  C   UNL     1       8.553   1.351  -0.282  1.00  0.00     0.004 A 
ATOM      9  C   UNL     1       6.478   0.492  -1.080  1.00  0.00     0.004 A 
ATOM     10  C   UNL     1       9.171   0.686  -1.344  1.00  0.00     0.000 A 
ATOM     11  C   UNL     1       7.091  -0.164  -2.129  1.00  0.00     0.000 A 
ATOM     12  C   UNL     1       8.459  -0.057  -2.251  1.00  0.00     0.000 A 
ENDBRANCH   6   7
ENDBRANCH   1   6
TORSDOF 4
ENDMDL
MODEL 5
REMARK VINA RESULT:      -6.4      4.669      5.504
REMARK SMILES O=C(O)CCc1ccccc1
REMARK SMILES IDX 4 1 2 2 1 3 3 4 5 6 6 7 7 8 11 9 8 10 10 11 9 12
REMARK H PARENT 3 5
REMARK Flexibility Score: inf
ROOT
ATOM      1  C   UNL     1       7.760  -0.514   1.049  1.00  0.00     0.127 C 
ENDROOT
BRANCH   1   2
ATOM      2  C   UNL     1       6.755  -1.243   1.859  1.00  0.00     0.303 C 
ATOM      3  O   UNL     1       6.157  -0.684   2.811  1.00  0.00    -0.252 OA
BRANCH   2   4
ATOM      4  O   UNL     1       6.449  -2.566   1.585  1.00  0.00    -0.481 OA
ATOM      5  H   UNL     1       5.579  -2.964   1.951  1.00  0.00     0.296 HD
ENDBRANCH   2   4
ENDBRANCH   1   2
BRANCH   1   6
ATOM      6  C   UNL     1       8.114   0.753   1.768  1.00  0.00     0.047 C 
BRANCH   6   7
ATOM      7  C   UNL     1       9.527   0.857   2.129  1.00  0.00    -0.047 A 
ATOM      8  C   UNL     1      10.462   0.026   1.556  1.00  0.00     0.004 A 
ATOM      9  C   UNL     1       9.916   1.801   3.051  1.00  0.00     0.004 A 
ATOM     10  C   UNL     1      11.793   0.183   1.948  1.00  0.00     0.000 A 
ATOM     11  C   UNL     1      11.233   1.953   3.437  1.00  0.00     0.000 A 
ATOM     12  C   UNL     1      12.176   1.125   2.869  1.00  0.00     0.000 A 
ENDBRANCH   6   7
ENDBRANCH   1   6
TORSDOF 4
ENDMDL
