@<TRIPOS>MOLECULE
/home/cewinharhar/GITHUB/reincatalyze/data/processed/docking_pred/2023_Apr_20-15:07/677496c5c46bc5e4ac1ff58ba47d0b72a83fedc5_ligand_2.pdbqt
 12 12 0 0 0
SMALL
GASTEIGER

@<TRIPOS>ATOM
      1  C          8.3660   -0.9250   -1.7880 C.3     1  UNL1        0.1270
      2  C          8.4270   -2.0030   -2.8030 C.2     1  UNL1        0.3030
      3  O          9.5220   -2.5160   -3.1420 O.2     1  UNL1       -0.2520
      4  O          7.2730   -2.4740   -3.4070 O.3     1  UNL1       -0.4810
      5  H          7.2550   -2.5990   -4.4230 H       1  UNL1        0.2960
      6  C          7.0630   -0.2020   -1.9460 C.3     1  UNL1        0.0470
      7  C          6.4120    0.1330   -0.6810 C.2     1  UNL1       -0.0470
      8  C          5.7430    1.3250   -0.5280 C.2     1  UNL1        0.0040
      9  C          6.4720   -0.7610    0.3630 C.2     1  UNL1        0.0040
     10  C          5.1430    1.5790    0.7080 C.2     1  UNL1        0.0000
     11  C          5.8790   -0.5090    1.5840 C.2     1  UNL1        0.0000
     12  C          5.2070    0.6830    1.7450 C.2     1  UNL1        0.0000
@<TRIPOS>BOND
     1     5     4    1
     2     4     2    1
     3     3     2    2
     4     2     1    1
     5     6     1    1
     6     6     7    1
     7     7     8    2
     8     7     9    1
     9     8    10    1
    10     9    11    2
    11    10    12    2
    12    11    12    1
