@<TRIPOS>MOLECULE
/home/cewinharhar/GITHUB/reincatalyze/data/processed/docking_pred/2023_Apr_20-15:07/677496c5c46bc5e4ac1ff58ba47d0b72a83fedc5_ligand_2.pdbqt
 12 12 0 0 0
SMALL
GASTEIGER

@<TRIPOS>ATOM
      1  C          4.9790    1.8480    0.7900 C.3     1  UNL1        0.1270
      2  C          4.4400    1.1120    1.9580 C.2     1  UNL1        0.3030
      3  O          5.0800    0.1690    2.4850 O.2     1  UNL1       -0.2520
      4  O          3.2100    1.4460    2.5020 O.3     1  UNL1       -0.4810
      5  H          2.5520    0.7020    2.7480 H       1  UNL1        0.2960
      6  C          6.4710    1.9060    0.9180 C.3     1  UNL1        0.0470
      7  C          7.1870    1.2390   -0.1680 C.2     1  UNL1       -0.0470
      8  C          8.5530    1.3510   -0.2820 C.2     1  UNL1        0.0040
      9  C          6.4780    0.4920   -1.0800 C.2     1  UNL1        0.0040
     10  C          9.1710    0.6860   -1.3440 C.2     1  UNL1        0.0000
     11  C          7.0910   -0.1640   -2.1290 C.2     1  UNL1        0.0000
     12  C          8.4590   -0.0570   -2.2510 C.2     1  UNL1        0.0000
@<TRIPOS>BOND
     1    12    11    2
     2    12    10    1
     3    11     9    1
     4    10     8    2
     5     9     7    2
     6     8     7    1
     7     7     6    1
     8     1     6    1
     9     1     2    1
    10     2     3    2
    11     2     4    1
    12     4     5    1
