@<TRIPOS>MOLECULE
/home/cewinharhar/GITHUB/reincatalyze/data/processed/docking_pred/2023_Apr_20-15:07/677496c5c46bc5e4ac1ff58ba47d0b72a83fedc5_ligand_2.pdbqt
 12 12 0 0 0
SMALL
GASTEIGER

@<TRIPOS>ATOM
      1  C          7.7600   -0.5140    1.0490 C.3     1  UNL1        0.1270
      2  C          6.7550   -1.2430    1.8590 C.2     1  UNL1        0.3030
      3  O          6.1570   -0.6840    2.8110 O.2     1  UNL1       -0.2520
      4  O          6.4490   -2.5660    1.5850 O.3     1  UNL1       -0.4810
      5  H          5.5790   -2.9640    1.9510 H       1  UNL1        0.2960
      6  C          8.1140    0.7530    1.7680 C.3     1  UNL1        0.0470
      7  C          9.5270    0.8570    2.1290 C.2     1  UNL1       -0.0470
      8  C         10.4620    0.0260    1.5560 C.2     1  UNL1        0.0040
      9  C          9.9160    1.8010    3.0510 C.2     1  UNL1        0.0040
     10  C         11.7930    0.1830    1.9480 C.2     1  UNL1        0.0000
     11  C         11.2330    1.9530    3.4370 C.2     1  UNL1        0.0000
     12  C         12.1760    1.1250    2.8690 C.2     1  UNL1        0.0000
@<TRIPOS>BOND
     1     1     6    1
     2     1     2    1
     3     8    10    1
     4     8     7    2
     5     4     2    1
     6     4     5    1
     7     6     7    1
     8     2     3    2
     9    10    12    2
    10     7     9    1
    11    12    11    1
    12     9    11    2
