@<TRIPOS>MOLECULE
/home/cewinharhar/GITHUB/reincatalyze/data/processed/docking_pred/2023_Apr_20-15:07/677496c5c46bc5e4ac1ff58ba47d0b72a83fedc5_ligand_2.pdbqt
 12 12 0 0 0
SMALL
GASTEIGER

@<TRIPOS>ATOM
      1  C          8.2140   -0.4280   -2.4870 C.3     1  UNL1        0.1270
      2  C          8.3710   -1.8030   -3.0180 C.2     1  UNL1        0.3030
      3  O          9.4980   -2.3540   -3.0730 O.2     1  UNL1       -0.2520
      4  O          7.2750   -2.5190   -3.4700 O.3     1  UNL1       -0.4810
      5  H          7.3250   -2.9930   -4.3760 H       1  UNL1        0.2960
      6  C          6.9290   -0.3650   -1.7190 C.3     1  UNL1        0.0470
      7  C          6.8230    0.7930   -0.8320 C.2     1  UNL1       -0.0470
      8  C          7.9360    1.3040   -0.2070 C.2     1  UNL1        0.0040
      9  C          5.5920    1.3720   -0.6280 C.2     1  UNL1        0.0040
     10  C          7.7610    2.4120    0.6250 C.2     1  UNL1        0.0000
     11  C          5.4200    2.4670    0.1950 C.2     1  UNL1        0.0000
     12  C          6.5300    2.9850    0.8260 C.2     1  UNL1        0.0000
@<TRIPOS>BOND
     1     5     4    1
     2     4     2    1
     3     3     2    2
     4     2     1    1
     5     1     6    1
     6     6     7    1
     7     7     9    2
     8     7     8    1
     9     9    11    1
    10     8    10    2
    11    11    12    2
    12    10    12    1
