@<TRIPOS>MOLECULE
/home/cewinharhar/GITHUB/reincatalyze/data/processed/docking_pred/2023_Apr_20-15:07/67ebe37560d6b2ff0daae954040d2bc7ae74be81_ligand_2.pdbqt
 12 12 0 0 0
SMALL
GASTEIGER

@<TRIPOS>ATOM
      1  C          8.3420   -1.0200   -1.6980 C.3     1  UNL1        0.1270
      2  C          8.3520   -2.0240   -2.7880 C.2     1  UNL1        0.3030
      3  O          7.2830   -2.4340   -3.3040 O.2     1  UNL1       -0.2520
      4  O          9.5450   -2.5400   -3.2670 O.3     1  UNL1       -0.4810
      5  H          9.6340   -3.5510   -3.4060 H       1  UNL1        0.2960
      6  C          7.3140   -1.4310   -0.6890 C.3     1  UNL1        0.0470
      7  C          6.5230   -0.3200   -0.1610 C.2     1  UNL1       -0.0470
      8  C          6.2250    0.7680   -0.9480 C.2     1  UNL1        0.0040
      9  C          6.0740   -0.3740    1.1390 C.2     1  UNL1        0.0040
     10  C          5.4650    1.7910   -0.3780 C.2     1  UNL1        0.0000
     11  C          5.3230    0.6390    1.7010 C.2     1  UNL1        0.0000
     12  C          5.0200    1.7330    0.9190 C.2     1  UNL1        0.0000
@<TRIPOS>BOND
     1     5     4    1
     2     3     2    2
     3     4     2    1
     4     2     1    1
     5     1     6    1
     6     8    10    1
     7     8     7    2
     8     6     7    1
     9    10    12    2
    10     7     9    1
    11    12    11    1
    12     9    11    2
