@<TRIPOS>MOLECULE
/home/cewinharhar/GITHUB/reincatalyze/data/processed/docking_pred/2023_Apr_20-15:07/67ebe37560d6b2ff0daae954040d2bc7ae74be81_ligand_2.pdbqt
 12 12 0 0 0
SMALL
GASTEIGER

@<TRIPOS>ATOM
      1  C          5.0310    1.7690    0.7010 C.3     1  UNL1        0.1270
      2  C          4.5270    1.0950    1.9210 C.2     1  UNL1        0.3030
      3  O          5.2020    0.2080    2.5010 O.2     1  UNL1       -0.2520
      4  O          3.2940    1.4270    2.4570 O.3     1  UNL1       -0.4810
      5  H          2.8110    0.7540    3.0590 H       1  UNL1        0.2960
      6  C          6.5290    1.7770    0.7520 C.3     1  UNL1        0.0470
      7  C          7.1650    1.0410   -0.3390 C.2     1  UNL1       -0.0470
      8  C          8.5020    1.2090   -0.6150 C.2     1  UNL1        0.0040
      9  C          6.4110    0.1720   -1.0920 C.2     1  UNL1        0.0040
     10  C          9.0440    0.4730   -1.6710 C.2     1  UNL1        0.0000
     11  C          6.9470   -0.5550   -2.1360 C.2     1  UNL1        0.0000
     12  C          8.2860   -0.3920   -2.4200 C.2     1  UNL1        0.0000
@<TRIPOS>BOND
     1    12    11    2
     2    12    10    1
     3    11     9    1
     4    10     8    2
     5     9     7    2
     6     8     7    1
     7     7     6    1
     8     1     6    1
     9     1     2    1
    10     2     4    1
    11     2     3    2
    12     4     5    1
