@<TRIPOS>MOLECULE
/home/cewinharhar/GITHUB/reincatalyze/data/processed/docking_pred/2023_Apr_20-15:07/67ebe37560d6b2ff0daae954040d2bc7ae74be81_ligand_2.pdbqt
 12 12 0 0 0
SMALL
GASTEIGER

@<TRIPOS>ATOM
      1  C          8.4210   -0.6390   -2.0970 C.3     1  UNL1        0.1270
      2  C          8.3820   -1.8960   -2.8820 C.2     1  UNL1        0.3030
      3  O          7.2910   -2.4100   -3.2340 O.2     1  UNL1       -0.2520
      4  O          9.5520   -2.5400   -3.2500 O.3     1  UNL1       -0.4810
      5  H         10.4380   -2.0290   -3.2120 H       1  UNL1        0.2960
      6  C          7.0480   -0.0400   -2.1000 C.3     1  UNL1        0.0470
      7  C          6.4710    0.1310   -0.7680 C.2     1  UNL1       -0.0470
      8  C          5.7950    1.2830   -0.4370 C.2     1  UNL1        0.0040
      9  C          6.6080   -0.8770    0.1580 C.2     1  UNL1        0.0040
     10  C          5.2700    1.3770    0.8540 C.2     1  UNL1        0.0000
     11  C          6.0880   -0.7820    1.4330 C.2     1  UNL1        0.0000
     12  C          5.4110    0.3690    1.7730 C.2     1  UNL1        0.0000
@<TRIPOS>BOND
     1     4     5    1
     2     4     2    1
     3     3     2    2
     4     2     1    1
     5     6     1    1
     6     6     7    1
     7     7     8    2
     8     7     9    1
     9     8    10    1
    10     9    11    2
    11    10    12    2
    12    11    12    1
