@<TRIPOS>MOLECULE
/home/cewinharhar/GITHUB/reincatalyze/data/processed/docking_pred/2023_Apr_20-15:07/67ebe37560d6b2ff0daae954040d2bc7ae74be81_ligand_2.pdbqt
 12 12 0 0 0
SMALL
GASTEIGER

@<TRIPOS>ATOM
      1  C          8.2580    0.1530   -2.1630 C.3     1  UNL1        0.1270
      2  C          9.3870    0.3350   -1.2200 C.2     1  UNL1        0.3030
      3  O          9.4950   -0.3740   -0.1890 O.2     1  UNL1       -0.2520
      4  O         10.3580    1.2960   -1.4520 O.3     1  UNL1       -0.4810
      5  H         11.0840    1.1160   -2.1500 H       1  UNL1        0.2960
      6  C          7.1720   -0.6010   -1.4570 C.3     1  UNL1        0.0470
      7  C          6.3800    0.2170   -0.5400 C.2     1  UNL1       -0.0470
      8  C          6.1510   -0.1970    0.7520 C.2     1  UNL1        0.0040
      9  C          5.8640    1.4130   -0.9810 C.2     1  UNL1        0.0040
     10  C          5.3860    0.6340    1.5730 C.2     1  UNL1        0.0000
     11  C          5.1080    2.2340   -0.1680 C.2     1  UNL1        0.0000
     12  C          4.8730    1.8260    1.1270 C.2     1  UNL1        0.0000
@<TRIPOS>BOND
     1     1     6    1
     2     1     2    1
     3     5     4    1
     4     6     7    1
     5     4     2    1
     6     2     3    2
     7     9     7    2
     8     9    11    1
     9     7     8    1
    10    11    12    2
    11     8    10    2
    12    12    10    1
