MODEL 1
REMARK VINA RESULT:      -7.3      0.000      0.000
REMARK SMILES O=C(O)CCc1ccccc1
REMARK SMILES IDX 4 1 2 2 1 3 3 4 5 6 6 7 7 8 11 9 8 10 10 11 9 12
REMARK H PARENT 3 5
REMARK Flexibility Score: inf
ROOT
ATOM      1  C   UNL     1       8.423  -0.576  -2.178  1.00  0.00     0.127 C 
ENDROOT
BRANCH   1   2
ATOM      2  C   UNL     1       8.460  -1.870  -2.900  1.00  0.00     0.303 C 
ATOM      3  O   UNL     1       9.530  -2.516  -3.024  1.00  0.00    -0.252 OA
BRANCH   2   4
ATOM      4  O   UNL     1       7.311  -2.403  -3.461  1.00  0.00    -0.481 OA
ATOM      5  H   UNL     1       6.569  -1.773  -3.777  1.00  0.00     0.296 HD
ENDBRANCH   2   4
ENDBRANCH   1   2
BRANCH   1   6
ATOM      6  C   UNL     1       7.002  -0.101  -2.137  1.00  0.00     0.047 C 
BRANCH   6   7
ATOM      7  C   UNL     1       6.462   0.041  -0.785  1.00  0.00    -0.047 A 
ATOM      8  C   UNL     1       6.597  -0.972   0.136  1.00  0.00     0.004 A 
ATOM      9  C   UNL     1       5.815   1.205  -0.440  1.00  0.00     0.004 A 
ATOM     10  C   UNL     1       6.058  -0.767   1.408  1.00  0.00     0.000 A 
ATOM     11  C   UNL     1       5.282   1.405   0.818  1.00  0.00     0.000 A 
ATOM     12  C   UNL     1       5.413   0.396   1.747  1.00  0.00     0.000 A 
ENDBRANCH   6   7
ENDBRANCH   1   6
TORSDOF 4
ENDMDL
MODEL 2
REMARK VINA RESULT:      -7.3      0.120      1.729
REMARK SMILES O=C(O)CCc1ccccc1
REMARK SMILES IDX 4 1 2 2 1 3 3 4 5 6 6 7 7 8 11 9 8 10 10 11 9 12
REMARK H PARENT 3 5
REMARK Flexibility Score: inf
ROOT
ATOM      1  C   UNL     1       8.421  -0.639  -2.097  1.00  0.00     0.127 C 
ENDROOT
BRANCH   1   2
ATOM      2  C   UNL     1       8.382  -1.896  -2.882  1.00  0.00     0.303 C 
ATOM      3  O   UNL     1       7.291  -2.410  -3.234  1.00  0.00    -0.252 OA
BRANCH   2   4
ATOM      4  O   UNL     1       9.552  -2.540  -3.250  1.00  0.00    -0.481 OA
ATOM      5  H   UNL     1      10.438  -2.029  -3.212  1.00  0.00     0.296 HD
ENDBRANCH   2   4
ENDBRANCH   1   2
BRANCH   1   6
ATOM      6  C   UNL     1       7.048  -0.040  -2.100  1.00  0.00     0.047 C 
BRANCH   6   7
ATOM      7  C   UNL     1       6.471   0.131  -0.768  1.00  0.00    -0.047 A 
ATOM      8  C   UNL     1       5.795   1.283  -0.437  1.00  0.00     0.004 A 
ATOM      9  C   UNL     1       6.608  -0.877   0.158  1.00  0.00     0.004 A 
ATOM     10  C   UNL     1       5.270   1.377   0.854  1.00  0.00     0.000 A 
ATOM     11  C   UNL     1       6.088  -0.782   1.433  1.00  0.00     0.000 A 
ATOM     12  C   UNL     1       5.411   0.369   1.773  1.00  0.00     0.000 A 
ENDBRANCH   6   7
ENDBRANCH   1   6
TORSDOF 4
ENDMDL
MODEL 3
REMARK VINA RESULT:      -7.1      0.697      1.874
REMARK SMILES O=C(O)CCc1ccccc1
REMARK SMILES IDX 4 1 2 2 1 3 3 4 5 6 6 7 7 8 11 9 8 10 10 11 9 12
REMARK H PARENT 3 5
REMARK Flexibility Score: inf
ROOT
ATOM      1  C   UNL     1       8.342  -1.020  -1.698  1.00  0.00     0.127 C 
ENDROOT
BRANCH   1   2
ATOM      2  C   UNL     1       8.352  -2.024  -2.788  1.00  0.00     0.303 C 
ATOM      3  O   UNL     1       7.283  -2.434  -3.304  1.00  0.00    -0.252 OA
BRANCH   2   4
ATOM      4  O   UNL     1       9.545  -2.540  -3.267  1.00  0.00    -0.481 OA
ATOM      5  H   UNL     1       9.634  -3.551  -3.406  1.00  0.00     0.296 HD
ENDBRANCH   2   4
ENDBRANCH   1   2
BRANCH   1   6
ATOM      6  C   UNL     1       7.314  -1.431  -0.689  1.00  0.00     0.047 C 
BRANCH   6   7
ATOM      7  C   UNL     1       6.523  -0.320  -0.161  1.00  0.00    -0.047 A 
ATOM      8  C   UNL     1       6.225   0.768  -0.948  1.00  0.00     0.004 A 
ATOM      9  C   UNL     1       6.074  -0.374   1.139  1.00  0.00     0.004 A 
ATOM     10  C   UNL     1       5.465   1.791  -0.378  1.00  0.00     0.000 A 
ATOM     11  C   UNL     1       5.323   0.639   1.701  1.00  0.00     0.000 A 
ATOM     12  C   UNL     1       5.020   1.733   0.919  1.00  0.00     0.000 A 
ENDBRANCH   6   7
ENDBRANCH   1   6
TORSDOF 4
ENDMDL
MODEL 4
REMARK VINA RESULT:      -6.8      3.375      5.058
REMARK SMILES O=C(O)CCc1ccccc1
REMARK SMILES IDX 4 1 2 2 1 3 3 4 5 6 6 7 7 8 11 9 8 10 10 11 9 12
REMARK H PARENT 3 5
REMARK Flexibility Score: inf
ROOT
ATOM      1  C   UNL     1       5.031   1.769   0.701  1.00  0.00     0.127 C 
ENDROOT
BRANCH   1   2
ATOM      2  C   UNL     1       4.527   1.095   1.921  1.00  0.00     0.303 C 
ATOM      3  O   UNL     1       5.202   0.208   2.501  1.00  0.00    -0.252 OA
BRANCH   2   4
ATOM      4  O   UNL     1       3.294   1.427   2.457  1.00  0.00    -0.481 OA
ATOM      5  H   UNL     1       2.811   0.754   3.059  1.00  0.00     0.296 HD
ENDBRANCH   2   4
ENDBRANCH   1   2
BRANCH   1   6
ATOM      6  C   UNL     1       6.529   1.777   0.752  1.00  0.00     0.047 C 
BRANCH   6   7
ATOM      7  C   UNL     1       7.165   1.041  -0.339  1.00  0.00    -0.047 A 
ATOM      8  C   UNL     1       8.502   1.209  -0.615  1.00  0.00     0.004 A 
ATOM      9  C   UNL     1       6.411   0.172  -1.092  1.00  0.00     0.004 A 
ATOM     10  C   UNL     1       9.044   0.473  -1.671  1.00  0.00     0.000 A 
ATOM     11  C   UNL     1       6.947  -0.555  -2.136  1.00  0.00     0.000 A 
ATOM     12  C   UNL     1       8.286  -0.392  -2.420  1.00  0.00     0.000 A 
ENDBRANCH   6   7
ENDBRANCH   1   6
TORSDOF 4
ENDMDL
MODEL 5
REMARK VINA RESULT:      -6.7      1.933      2.295
REMARK SMILES O=C(O)CCc1ccccc1
REMARK SMILES IDX 4 1 2 2 1 3 3 4 5 6 6 7 7 8 11 9 8 10 10 11 9 12
REMARK H PARENT 3 5
REMARK Flexibility Score: inf
ROOT
ATOM      1  C   UNL     1       8.258   0.153  -2.163  1.00  0.00     0.127 C 
ENDROOT
BRANCH   1   2
ATOM      2  C   UNL     1       9.387   0.335  -1.220  1.00  0.00     0.303 C 
ATOM      3  O   UNL     1       9.495  -0.374  -0.189  1.00  0.00    -0.252 OA
BRANCH   2   4
ATOM      4  O   UNL     1      10.358   1.296  -1.452  1.00  0.00    -0.481 OA
ATOM      5  H   UNL     1      11.084   1.116  -2.150  1.00  0.00     0.296 HD
ENDBRANCH   2   4
ENDBRANCH   1   2
BRANCH   1   6
ATOM      6  C   UNL     1       7.172  -0.601  -1.457  1.00  0.00     0.047 C 
BRANCH   6   7
ATOM      7  C   UNL     1       6.380   0.217  -0.540  1.00  0.00    -0.047 A 
ATOM      8  C   UNL     1       6.151  -0.197   0.752  1.00  0.00     0.004 A 
ATOM      9  C   UNL     1       5.864   1.413  -0.981  1.00  0.00     0.004 A 
ATOM     10  C   UNL     1       5.386   0.634   1.573  1.00  0.00     0.000 A 
ATOM     11  C   UNL     1       5.108   2.234  -0.168  1.00  0.00     0.000 A 
ATOM     12  C   UNL     1       4.873   1.826   1.127  1.00  0.00     0.000 A 
ENDBRANCH   6   7
ENDBRANCH   1   6
TORSDOF 4
ENDMDL
