@<TRIPOS>MOLECULE
/home/cewinharhar/GITHUB/reincatalyze/data/processed/docking_pred/2023_Apr_20-15:07/681e80220216c71ec10eb1429598bf11558fcb24_ligand_2.pdbqt
 12 12 0 0 0
SMALL
GASTEIGER

@<TRIPOS>ATOM
      1  C          8.4290   -0.5650   -2.2370 C.3     1  UNL1        0.1270
      2  C          8.4740   -1.8700   -2.9380 C.2     1  UNL1        0.3030
      3  O          9.5580   -2.4830   -3.1040 O.2     1  UNL1       -0.2520
      4  O          7.3170   -2.4510   -3.4310 O.3     1  UNL1       -0.4810
      5  H          7.3310   -3.4360   -3.7090 H       1  UNL1        0.2960
      6  C          7.0030   -0.1080   -2.1830 C.3     1  UNL1        0.0470
      7  C          6.4800    0.0480   -0.8280 C.2     1  UNL1       -0.0470
      8  C          6.6200   -0.9570    0.1010 C.2     1  UNL1        0.0040
      9  C          5.8420    1.2180   -0.4850 C.2     1  UNL1        0.0040
     10  C          6.0970   -0.7390    1.3770 C.2     1  UNL1        0.0000
     11  C          5.3250    1.4320    0.7770 C.2     1  UNL1        0.0000
     12  C          5.4610    0.4300    1.7130 C.2     1  UNL1        0.0000
@<TRIPOS>BOND
     1     5     4    1
     2     4     2    1
     3     3     2    2
     4     2     1    1
     5     1     6    1
     6     6     7    1
     7     7     9    2
     8     7     8    1
     9     9    11    1
    10     8    10    2
    11    11    12    2
    12    10    12    1
