@<TRIPOS>MOLECULE
/home/cewinharhar/GITHUB/reincatalyze/data/processed/docking_pred/2023_Apr_20-15:07/681e80220216c71ec10eb1429598bf11558fcb24_ligand_2.pdbqt
 12 12 0 0 0
SMALL
GASTEIGER

@<TRIPOS>ATOM
      1  C          8.5130    0.7000   -1.6340 C.3     1  UNL1        0.1270
      2  C          9.6650    0.2910   -0.7950 C.2     1  UNL1        0.3030
      3  O          9.5200   -0.5040    0.1660 O.2     1  UNL1       -0.2520
      4  O         10.9370    0.7770   -1.0490 O.3     1  UNL1       -0.4810
      5  H         11.2320    1.6570   -0.6170 H       1  UNL1        0.2960
      6  C          7.3600   -0.2050   -1.3230 C.3     1  UNL1        0.0470
      7  C          6.4470    0.3230   -0.3110 C.2     1  UNL1       -0.0470
      8  C          6.2060   -0.3740    0.8510 C.2     1  UNL1        0.0040
      9  C          5.8280    1.5320   -0.5290 C.2     1  UNL1        0.0040
     10  C          5.3230    0.1910    1.7740 C.2     1  UNL1        0.0000
     11  C          4.9550    2.0880    0.3840 C.2     1  UNL1        0.0000
     12  C          4.7070    1.3960    1.5500 C.2     1  UNL1        0.0000
@<TRIPOS>BOND
     1     1     6    1
     2     1     2    1
     3     6     7    1
     4     4     2    1
     5     4     5    1
     6     2     3    2
     7     9     7    2
     8     9    11    1
     9     7     8    1
    10    11    12    2
    11     8    10    2
    12    12    10    1
