@<TRIPOS>MOLECULE
/home/cewinharhar/GITHUB/reincatalyze/data/processed/docking_pred/2023_Apr_20-15:07/681e80220216c71ec10eb1429598bf11558fcb24_ligand_2.pdbqt
 12 12 0 0 0
SMALL
GASTEIGER

@<TRIPOS>ATOM
      1  C          8.4320   -0.5870   -2.1790 C.3     1  UNL1        0.1270
      2  C          8.4650   -1.8810   -2.8990 C.2     1  UNL1        0.3030
      3  O          9.5410   -2.5100   -3.0580 O.2     1  UNL1       -0.2520
      4  O          7.3060   -2.4350   -3.4190 O.3     1  UNL1       -0.4810
      5  H          7.2730   -2.6880   -4.4100 H       1  UNL1        0.2960
      6  C          7.0140   -0.1070   -2.1390 C.3     1  UNL1        0.0470
      7  C          6.4790    0.0560   -0.7870 C.2     1  UNL1       -0.0470
      8  C          5.8500    1.2210   -0.4150 C.2     1  UNL1        0.0040
      9  C          6.6100   -0.9750    0.1140 C.2     1  UNL1        0.0040
     10  C          5.3640    1.3060    0.8910 C.2     1  UNL1        0.0000
     11  C          6.1290   -0.8890    1.4060 C.2     1  UNL1        0.0000
     12  C          5.4980    0.2750    1.7870 C.2     1  UNL1        0.0000
@<TRIPOS>BOND
     1     5     4    1
     2     4     2    1
     3     3     2    2
     4     2     1    1
     5     1     6    1
     6     6     7    1
     7     7     8    2
     8     7     9    1
     9     8    10    1
    10     9    11    2
    11    10    12    2
    12    11    12    1
