@<TRIPOS>MOLECULE
/home/cewinharhar/GITHUB/reincatalyze/data/processed/docking_pred/2023_Apr_20-15:07/681e80220216c71ec10eb1429598bf11558fcb24_ligand_2.pdbqt
 12 12 0 0 0
SMALL
GASTEIGER

@<TRIPOS>ATOM
      1  C          5.0660    1.7130    0.6780 C.3     1  UNL1        0.1270
      2  C          4.6090    1.0360    1.9150 C.2     1  UNL1        0.3030
      3  O          5.3260    0.1820    2.4930 O.2     1  UNL1       -0.2520
      4  O          3.3730    1.3280    2.4690 O.3     1  UNL1       -0.4810
      5  H          3.1980    1.1010    3.4520 H       1  UNL1        0.2960
      6  C          6.5630    1.7630    0.6950 C.3     1  UNL1        0.0470
      7  C          7.1960    0.9960   -0.3770 C.2     1  UNL1       -0.0470
      8  C          8.5170    1.2000   -0.7030 C.2     1  UNL1        0.0040
      9  C          6.4550    0.0600   -1.0600 C.2     1  UNL1        0.0040
     10  C          9.0560    0.4310   -1.7360 C.2     1  UNL1        0.0000
     11  C          6.9890   -0.6990   -2.0820 C.2     1  UNL1        0.0000
     12  C          8.3110   -0.5000   -2.4150 C.2     1  UNL1        0.0000
@<TRIPOS>BOND
     1    12    11    2
     2    12    10    1
     3    11     9    1
     4    10     8    2
     5     9     7    2
     6     8     7    1
     7     7     6    1
     8     1     6    1
     9     1     2    1
    10     2     4    1
    11     2     3    2
    12     4     5    1
