@<TRIPOS>MOLECULE
/home/cewinharhar/GITHUB/reincatalyze/data/processed/docking_pred/2023_Apr_20-15:07/681e80220216c71ec10eb1429598bf11558fcb24_ligand_2.pdbqt
 12 12 0 0 0
SMALL
GASTEIGER

@<TRIPOS>ATOM
      1  C          5.3880    2.8370   -0.0050 C.3     1  UNL1        0.1270
      2  C          6.2130    3.7170    0.8540 C.2     1  UNL1        0.3030
      3  O          6.2890    3.5310    2.0940 O.2     1  UNL1       -0.2520
      4  O          6.9250    4.7740    0.3120 O.3     1  UNL1       -0.4810
      5  H          6.4710    5.6860    0.2110 H       1  UNL1        0.2960
      6  C          5.2400    1.5130    0.6800 C.3     1  UNL1        0.0470
      7  C          6.0650    0.4510    0.1060 C.2     1  UNL1       -0.0470
      8  C          6.5220   -0.5850    0.8880 C.2     1  UNL1        0.0040
      9  C          6.3820    0.4960   -1.2320 C.2     1  UNL1        0.0040
     10  C          7.3040   -1.5650    0.2720 C.2     1  UNL1        0.0000
     11  C          7.1550   -0.4740   -1.8380 C.2     1  UNL1        0.0000
     12  C          7.6170   -1.5150   -1.0630 C.2     1  UNL1        0.0000
@<TRIPOS>BOND
     1    11     9    1
     2    11    12    2
     3     9     7    2
     4    12    10    1
     5     1     6    1
     6     1     2    1
     7     7     6    1
     8     7     8    1
     9     5     4    1
    10    10     8    2
    11     4     2    1
    12     2     3    2
