MODEL 1
REMARK VINA RESULT:      -7.3      0.000      0.000
REMARK SMILES O=C(O)CCc1ccccc1
REMARK SMILES IDX 4 1 2 2 1 3 3 4 5 6 6 7 7 8 11 9 8 10 10 11 9 12
REMARK H PARENT 3 5
REMARK Flexibility Score: inf
ROOT
ATOM      1  C   UNL     1       8.410  -0.552  -2.236  1.00  0.00     0.127 C 
ENDROOT
BRANCH   1   2
ATOM      2  C   UNL     1       8.460  -1.870  -2.911  1.00  0.00     0.303 C 
ATOM      3  O   UNL     1       9.545  -2.486  -3.056  1.00  0.00    -0.252 OA
BRANCH   2   4
ATOM      4  O   UNL     1       7.307  -2.461  -3.402  1.00  0.00    -0.481 OA
ATOM      5  H   UNL     1       6.805  -3.139  -2.823  1.00  0.00     0.296 HD
ENDBRANCH   2   4
ENDBRANCH   1   2
BRANCH   1   6
ATOM      6  C   UNL     1       6.978  -0.118  -2.157  1.00  0.00     0.047 C 
BRANCH   6   7
ATOM      7  C   UNL     1       6.473   0.022  -0.792  1.00  0.00    -0.047 A 
ATOM      8  C   UNL     1       6.608  -1.002   0.117  1.00  0.00     0.004 A 
ATOM      9  C   UNL     1       5.860   1.197  -0.420  1.00  0.00     0.004 A 
ATOM     10  C   UNL     1       6.104  -0.797   1.403  1.00  0.00     0.000 A 
ATOM     11  C   UNL     1       5.362   1.397   0.852  1.00  0.00     0.000 A 
ATOM     12  C   UNL     1       5.492   0.375   1.768  1.00  0.00     0.000 A 
ENDBRANCH   6   7
ENDBRANCH   1   6
TORSDOF 4
ENDMDL
MODEL 2
REMARK VINA RESULT:      -7.3      0.122      1.731
REMARK SMILES O=C(O)CCc1ccccc1
REMARK SMILES IDX 4 1 2 2 1 3 3 4 5 6 6 7 7 8 11 9 8 10 10 11 9 12
REMARK H PARENT 3 5
REMARK Flexibility Score: inf
ROOT
ATOM      1  C   UNL     1       8.401  -0.606  -2.132  1.00  0.00     0.127 C 
ENDROOT
BRANCH   1   2
ATOM      2  C   UNL     1       8.372  -1.875  -2.896  1.00  0.00     0.303 C 
ATOM      3  O   UNL     1       7.286  -2.404  -3.240  1.00  0.00    -0.252 OA
BRANCH   2   4
ATOM      4  O   UNL     1       9.548  -2.515  -3.254  1.00  0.00    -0.481 OA
ATOM      5  H   UNL     1      10.109  -2.139  -4.023  1.00  0.00     0.296 HD
ENDBRANCH   2   4
ENDBRANCH   1   2
BRANCH   1   6
ATOM      6  C   UNL     1       7.010  -0.050  -2.092  1.00  0.00     0.047 C 
BRANCH   6   7
ATOM      7  C   UNL     1       6.464   0.089  -0.743  1.00  0.00    -0.047 A 
ATOM      8  C   UNL     1       5.830   1.247  -0.357  1.00  0.00     0.004 A 
ATOM      9  C   UNL     1       6.590  -0.956   0.143  1.00  0.00     0.004 A 
ATOM     10  C   UNL     1       5.332   1.310   0.947  1.00  0.00     0.000 A 
ATOM     11  C   UNL     1       6.097  -0.892   1.431  1.00  0.00     0.000 A 
ATOM     12  C   UNL     1       5.461   0.265   1.826  1.00  0.00     0.000 A 
ENDBRANCH   6   7
ENDBRANCH   1   6
TORSDOF 4
ENDMDL
MODEL 3
REMARK VINA RESULT:      -6.8      1.003      1.627
REMARK SMILES O=C(O)CCc1ccccc1
REMARK SMILES IDX 4 1 2 2 1 3 3 4 5 6 6 7 7 8 11 9 8 10 10 11 9 12
REMARK H PARENT 3 5
REMARK Flexibility Score: inf
ROOT
ATOM      1  C   UNL     1       7.330  -1.459  -2.065  1.00  0.00     0.127 C 
ENDROOT
BRANCH   1   2
ATOM      2  C   UNL     1       8.759  -1.440  -2.459  1.00  0.00     0.303 C 
ATOM      3  O   UNL     1       9.252  -2.353  -3.167  1.00  0.00    -0.252 OA
BRANCH   2   4
ATOM      4  O   UNL     1       9.592  -0.409  -2.056  1.00  0.00    -0.481 OA
ATOM      5  H   UNL     1       9.981   0.225  -2.760  1.00  0.00     0.296 HD
ENDBRANCH   2   4
ENDBRANCH   1   2
BRANCH   1   6
ATOM      6  C   UNL     1       7.255  -1.450  -0.569  1.00  0.00     0.047 C 
BRANCH   6   7
ATOM      7  C   UNL     1       6.464  -0.350  -0.020  1.00  0.00    -0.047 A 
ATOM      8  C   UNL     1       5.992  -0.398   1.271  1.00  0.00     0.004 A 
ATOM      9  C   UNL     1       6.195   0.743  -0.812  1.00  0.00     0.004 A 
ATOM     10  C   UNL     1       5.244   0.689   1.729  1.00  0.00     0.000 A 
ATOM     11  C   UNL     1       5.455   1.817  -0.357  1.00  0.00     0.000 A 
ATOM     12  C   UNL     1       4.979   1.776   0.935  1.00  0.00     0.000 A 
ENDBRANCH   6   7
ENDBRANCH   1   6
TORSDOF 4
ENDMDL
MODEL 4
REMARK VINA RESULT:      -6.8      3.372      5.066
REMARK SMILES O=C(O)CCc1ccccc1
REMARK SMILES IDX 4 1 2 2 1 3 3 4 5 6 6 7 7 8 11 9 8 10 10 11 9 12
REMARK H PARENT 3 5
REMARK Flexibility Score: inf
ROOT
ATOM      1  C   UNL     1       4.998   1.756   0.690  1.00  0.00     0.127 C 
ENDROOT
BRANCH   1   2
ATOM      2  C   UNL     1       4.481   1.093   1.910  1.00  0.00     0.303 C 
ATOM      3  O   UNL     1       5.132   0.184   2.483  1.00  0.00    -0.252 OA
BRANCH   2   4
ATOM      4  O   UNL     1       3.260   1.459   2.454  1.00  0.00    -0.481 OA
ATOM      5  H   UNL     1       2.945   2.429   2.370  1.00  0.00     0.296 HD
ENDBRANCH   2   4
ENDBRANCH   1   2
BRANCH   1   6
ATOM      6  C   UNL     1       6.495   1.763   0.757  1.00  0.00     0.047 C 
BRANCH   6   7
ATOM      7  C   UNL     1       7.142   1.025  -0.326  1.00  0.00    -0.047 A 
ATOM      8  C   UNL     1       8.461   1.255  -0.644  1.00  0.00     0.004 A 
ATOM      9  C   UNL     1       6.417   0.090  -1.029  1.00  0.00     0.004 A 
ATOM     10  C   UNL     1       9.014   0.512  -1.690  1.00  0.00     0.000 A 
ATOM     11  C   UNL     1       6.966  -0.642  -2.062  1.00  0.00     0.000 A 
ATOM     12  C   UNL     1       8.286  -0.418  -2.388  1.00  0.00     0.000 A 
ENDBRANCH   6   7
ENDBRANCH   1   6
TORSDOF 4
ENDMDL
MODEL 5
REMARK VINA RESULT:      -6.6      1.975      2.745
REMARK SMILES O=C(O)CCc1ccccc1
REMARK SMILES IDX 4 1 2 2 1 3 3 4 5 6 6 7 7 8 11 9 8 10 10 11 9 12
REMARK H PARENT 3 5
REMARK Flexibility Score: inf
ROOT
ATOM      1  C   UNL     1       7.895  -2.260   0.822  1.00  0.00     0.127 C 
ENDROOT
BRANCH   1   2
ATOM      2  C   UNL     1       8.746  -3.360   0.309  1.00  0.00     0.303 C 
ATOM      3  O   UNL     1       9.635  -3.883   1.026  1.00  0.00    -0.252 OA
BRANCH   2   4
ATOM      4  O   UNL     1       8.583  -3.842  -0.979  1.00  0.00    -0.481 OA
ATOM      5  H   UNL     1       8.743  -4.836  -1.166  1.00  0.00     0.296 HD
ENDBRANCH   2   4
ENDBRANCH   1   2
BRANCH   1   6
ATOM      6  C   UNL     1       7.411  -1.456  -0.346  1.00  0.00     0.047 C 
BRANCH   6   7
ATOM      7  C   UNL     1       6.571  -0.318   0.024  1.00  0.00    -0.047 A 
ATOM      8  C   UNL     1       6.312   0.687  -0.879  1.00  0.00     0.004 A 
ATOM      9  C   UNL     1       6.037  -0.261   1.290  1.00  0.00     0.004 A 
ATOM     10  C   UNL     1       5.501   1.743  -0.458  1.00  0.00     0.000 A 
ATOM     11  C   UNL     1       5.235   0.784   1.705  1.00  0.00     0.000 A 
ATOM     12  C   UNL     1       4.971   1.796   0.806  1.00  0.00     0.000 A 
ENDBRANCH   6   7
ENDBRANCH   1   6
TORSDOF 4
ENDMDL
