@<TRIPOS>MOLECULE
/home/cewinharhar/GITHUB/reincatalyze/data/processed/docking_pred/2023_Apr_20-15:07/6b061a7890d75c8b26c884693b3b8f9ee5a9c423_ligand_2.pdbqt
 12 12 0 0 0
SMALL
GASTEIGER

@<TRIPOS>ATOM
      1  C          7.8950   -2.2600    0.8220 C.3     1  UNL1        0.1270
      2  C          8.7460   -3.3600    0.3090 C.2     1  UNL1        0.3030
      3  O          9.6350   -3.8830    1.0260 O.2     1  UNL1       -0.2520
      4  O          8.5830   -3.8420   -0.9790 O.3     1  UNL1       -0.4810
      5  H          8.7430   -4.8360   -1.1660 H       1  UNL1        0.2960
      6  C          7.4110   -1.4560   -0.3460 C.3     1  UNL1        0.0470
      7  C          6.5710   -0.3180    0.0240 C.2     1  UNL1       -0.0470
      8  C          6.3120    0.6870   -0.8790 C.2     1  UNL1        0.0040
      9  C          6.0370   -0.2610    1.2900 C.2     1  UNL1        0.0040
     10  C          5.5010    1.7430   -0.4580 C.2     1  UNL1        0.0000
     11  C          5.2350    0.7840    1.7050 C.2     1  UNL1        0.0000
     12  C          4.9710    1.7960    0.8060 C.2     1  UNL1        0.0000
@<TRIPOS>BOND
     1     5     4    1
     2     4     2    1
     3     8    10    1
     4     8     7    2
     5    10    12    2
     6     6     7    1
     7     6     1    1
     8     7     9    1
     9     2     1    1
    10     2     3    2
    11    12    11    1
    12     9    11    2
