@<TRIPOS>MOLECULE
/home/cewinharhar/GITHUB/reincatalyze/data/processed/docking_pred/2023_Apr_20-15:07/6b061a7890d75c8b26c884693b3b8f9ee5a9c423_ligand_2.pdbqt
 12 12 0 0 0
SMALL
GASTEIGER

@<TRIPOS>ATOM
      1  C          8.4010   -0.6060   -2.1320 C.3     1  UNL1        0.1270
      2  C          8.3720   -1.8750   -2.8960 C.2     1  UNL1        0.3030
      3  O          7.2860   -2.4040   -3.2400 O.2     1  UNL1       -0.2520
      4  O          9.5480   -2.5150   -3.2540 O.3     1  UNL1       -0.4810
      5  H         10.1090   -2.1390   -4.0230 H       1  UNL1        0.2960
      6  C          7.0100   -0.0500   -2.0920 C.3     1  UNL1        0.0470
      7  C          6.4640    0.0890   -0.7430 C.2     1  UNL1       -0.0470
      8  C          5.8300    1.2470   -0.3570 C.2     1  UNL1        0.0040
      9  C          6.5900   -0.9560    0.1430 C.2     1  UNL1        0.0040
     10  C          5.3320    1.3100    0.9470 C.2     1  UNL1        0.0000
     11  C          6.0970   -0.8920    1.4310 C.2     1  UNL1        0.0000
     12  C          5.4610    0.2650    1.8260 C.2     1  UNL1        0.0000
@<TRIPOS>BOND
     1     5     4    1
     2     4     2    1
     3     3     2    2
     4     2     1    1
     5     1     6    1
     6     6     7    1
     7     7     8    2
     8     7     9    1
     9     8    10    1
    10     9    11    2
    11    10    12    2
    12    11    12    1
