@<TRIPOS>MOLECULE
/home/cewinharhar/GITHUB/reincatalyze/data/processed/docking_pred/2023_Apr_20-15:07/6b061a7890d75c8b26c884693b3b8f9ee5a9c423_ligand_2.pdbqt
 12 12 0 0 0
SMALL
GASTEIGER

@<TRIPOS>ATOM
      1  C          7.3300   -1.4590   -2.0650 C.3     1  UNL1        0.1270
      2  C          8.7590   -1.4400   -2.4590 C.2     1  UNL1        0.3030
      3  O          9.2520   -2.3530   -3.1670 O.2     1  UNL1       -0.2520
      4  O          9.5920   -0.4090   -2.0560 O.3     1  UNL1       -0.4810
      5  H          9.9810    0.2250   -2.7600 H       1  UNL1        0.2960
      6  C          7.2550   -1.4500   -0.5690 C.3     1  UNL1        0.0470
      7  C          6.4640   -0.3500   -0.0200 C.2     1  UNL1       -0.0470
      8  C          5.9920   -0.3980    1.2710 C.2     1  UNL1        0.0040
      9  C          6.1950    0.7430   -0.8120 C.2     1  UNL1        0.0040
     10  C          5.2440    0.6890    1.7290 C.2     1  UNL1        0.0000
     11  C          5.4550    1.8170   -0.3570 C.2     1  UNL1        0.0000
     12  C          4.9790    1.7760    0.9350 C.2     1  UNL1        0.0000
@<TRIPOS>BOND
     1     3     2    2
     2     5     4    1
     3     2     1    1
     4     2     4    1
     5     1     6    1
     6     9    11    1
     7     9     7    2
     8     6     7    1
     9    11    12    2
    10     7     8    1
    11    12    10    1
    12     8    10    2
