@<TRIPOS>MOLECULE
/home/cewinharhar/GITHUB/reincatalyze/data/processed/docking_pred/2023_Apr_20-15:07/6b061a7890d75c8b26c884693b3b8f9ee5a9c423_ligand_2.pdbqt
 12 12 0 0 0
SMALL
GASTEIGER

@<TRIPOS>ATOM
      1  C          8.4100   -0.5520   -2.2360 C.3     1  UNL1        0.1270
      2  C          8.4600   -1.8700   -2.9110 C.2     1  UNL1        0.3030
      3  O          9.5450   -2.4860   -3.0560 O.2     1  UNL1       -0.2520
      4  O          7.3070   -2.4610   -3.4020 O.3     1  UNL1       -0.4810
      5  H          6.8050   -3.1390   -2.8230 H       1  UNL1        0.2960
      6  C          6.9780   -0.1180   -2.1570 C.3     1  UNL1        0.0470
      7  C          6.4730    0.0220   -0.7920 C.2     1  UNL1       -0.0470
      8  C          6.6080   -1.0020    0.1170 C.2     1  UNL1        0.0040
      9  C          5.8600    1.1970   -0.4200 C.2     1  UNL1        0.0040
     10  C          6.1040   -0.7970    1.4030 C.2     1  UNL1        0.0000
     11  C          5.3620    1.3970    0.8520 C.2     1  UNL1        0.0000
     12  C          5.4920    0.3750    1.7680 C.2     1  UNL1        0.0000
@<TRIPOS>BOND
     1     4     2    1
     2     4     5    1
     3     3     2    2
     4     2     1    1
     5     1     6    1
     6     6     7    1
     7     7     9    2
     8     7     8    1
     9     9    11    1
    10     8    10    2
    11    11    12    2
    12    10    12    1
