@<TRIPOS>MOLECULE
/home/cewinharhar/GITHUB/reincatalyze/data/processed/docking_pred/2023_Apr_20-15:07/6b061a7890d75c8b26c884693b3b8f9ee5a9c423_ligand_2.pdbqt
 12 12 0 0 0
SMALL
GASTEIGER

@<TRIPOS>ATOM
      1  C          4.9980    1.7560    0.6900 C.3     1  UNL1        0.1270
      2  C          4.4810    1.0930    1.9100 C.2     1  UNL1        0.3030
      3  O          5.1320    0.1840    2.4830 O.2     1  UNL1       -0.2520
      4  O          3.2600    1.4590    2.4540 O.3     1  UNL1       -0.4810
      5  H          2.9450    2.4290    2.3700 H       1  UNL1        0.2960
      6  C          6.4950    1.7630    0.7570 C.3     1  UNL1        0.0470
      7  C          7.1420    1.0250   -0.3260 C.2     1  UNL1       -0.0470
      8  C          8.4610    1.2550   -0.6440 C.2     1  UNL1        0.0040
      9  C          6.4170    0.0900   -1.0290 C.2     1  UNL1        0.0040
     10  C          9.0140    0.5120   -1.6900 C.2     1  UNL1        0.0000
     11  C          6.9660   -0.6420   -2.0620 C.2     1  UNL1        0.0000
     12  C          8.2860   -0.4180   -2.3880 C.2     1  UNL1        0.0000
@<TRIPOS>BOND
     1    12    11    2
     2    12    10    1
     3    11     9    1
     4    10     8    2
     5     9     7    2
     6     8     7    1
     7     7     6    1
     8     1     6    1
     9     1     2    1
    10     2     4    1
    11     2     3    2
    12     5     4    1
