@<TRIPOS>MOLECULE
/home/cewinharhar/GITHUB/reincatalyze/data/processed/docking_pred/2023_Apr_20-15:07/6ceeb54199aca0c96a32aff90fdf9e1d9b8e1f8c_ligand_2.pdbqt
 12 12 0 0 0
SMALL
GASTEIGER

@<TRIPOS>ATOM
      1  C          8.4700    0.6570   -1.7120 C.3     1  UNL1        0.1270
      2  C          9.6160    0.2810   -0.8510 C.2     1  UNL1        0.3030
      3  O          9.4740   -0.5180    0.1080 O.2     1  UNL1       -0.2520
      4  O         10.8780    0.8030   -1.0810 O.3     1  UNL1       -0.4810
      5  H         10.9870    1.5780   -1.7410 H       1  UNL1        0.2960
      6  C          7.3090   -0.2250   -1.3630 C.3     1  UNL1        0.0470
      7  C          6.4180    0.3390   -0.3510 C.2     1  UNL1       -0.0470
      8  C          5.8030    1.5530   -0.5520 C.2     1  UNL1        0.0040
      9  C          6.1960   -0.3610    0.8120 C.2     1  UNL1        0.0040
     10  C          4.9640    2.0300    0.4570 C.2     1  UNL1        0.0000
     11  C          5.3660    0.1120    1.8100 C.2     1  UNL1        0.0000
     12  C          4.7470    1.3280    1.6160 C.2     1  UNL1        0.0000
@<TRIPOS>BOND
     1     5     4    1
     2     1     6    1
     3     1     2    1
     4     6     7    1
     5     4     2    1
     6     2     3    2
     7     8     7    2
     8     8    10    1
     9     7     9    1
    10    10    12    2
    11     9    11    2
    12    12    11    1
