@<TRIPOS>MOLECULE
/home/cewinharhar/GITHUB/reincatalyze/data/processed/docking_pred/2023_Apr_20-15:07/6ceeb54199aca0c96a32aff90fdf9e1d9b8e1f8c_ligand_2.pdbqt
 12 12 0 0 0
SMALL
GASTEIGER

@<TRIPOS>ATOM
      1  C          5.0740    1.7250    0.7370 C.3     1  UNL1        0.1270
      2  C          4.5670    1.0280    1.9420 C.2     1  UNL1        0.3030
      3  O          5.2390    0.1280    2.5050 O.2     1  UNL1       -0.2520
      4  O          3.3320    1.3500    2.4820 O.3     1  UNL1       -0.4810
      5  H          3.0710    0.9710    3.3960 H       1  UNL1        0.2960
      6  C          6.5720    1.7020    0.7760 C.3     1  UNL1        0.0470
      7  C          7.1840    0.9640   -0.3270 C.2     1  UNL1       -0.0470
      8  C          8.4790    1.2220   -0.7130 C.2     1  UNL1        0.0040
      9  C          6.4500    0.0020   -0.9800 C.2     1  UNL1        0.0040
     10  C          9.0000    0.4780   -1.7740 C.2     1  UNL1        0.0000
     11  C          6.9660   -0.7330   -2.0300 C.2     1  UNL1        0.0000
     12  C          8.2630   -0.4800   -2.4230 C.2     1  UNL1        0.0000
@<TRIPOS>BOND
     1    12    11    2
     2    12    10    1
     3    11     9    1
     4    10     8    2
     5     9     7    2
     6     8     7    1
     7     7     6    1
     8     1     6    1
     9     1     2    1
    10     2     4    1
    11     2     3    2
    12     4     5    1
