@<TRIPOS>MOLECULE
/home/cewinharhar/GITHUB/reincatalyze/data/processed/docking_pred/2023_Apr_20-15:07/6ceeb54199aca0c96a32aff90fdf9e1d9b8e1f8c_ligand_2.pdbqt
 12 12 0 0 0
SMALL
GASTEIGER

@<TRIPOS>ATOM
      1  C          7.7910   -2.3450    0.8000 C.3     1  UNL1        0.1270
      2  C          8.7230   -3.3920    0.3180 C.2     1  UNL1        0.3030
      3  O          9.6510   -3.8230    1.0460 O.2     1  UNL1       -0.2520
      4  O          8.5940   -3.9250   -0.9550 O.3     1  UNL1       -0.4810
      5  H          9.3610   -3.8140   -1.6240 H       1  UNL1        0.2960
      6  C          7.5850   -1.3530   -0.3040 C.3     1  UNL1        0.0470
      7  C          6.6780   -0.2600    0.0410 C.2     1  UNL1       -0.0470
      8  C          6.3660    0.7130   -0.8810 C.2     1  UNL1        0.0040
      9  C          6.1320   -0.2130    1.3030 C.2     1  UNL1        0.0040
     10  C          5.4910    1.7260   -0.4830 C.2     1  UNL1        0.0000
     11  C          5.2680    0.7900    1.6950 C.2     1  UNL1        0.0000
     12  C          4.9510    1.7690    0.7770 C.2     1  UNL1        0.0000
@<TRIPOS>BOND
     1     5     4    1
     2     4     2    1
     3     8    10    1
     4     8     7    2
     5    10    12    2
     6     6     7    1
     7     6     1    1
     8     7     9    1
     9     2     1    1
    10     2     3    2
    11    12    11    1
    12     9    11    2
