@<TRIPOS>MOLECULE
/home/cewinharhar/GITHUB/reincatalyze/data/processed/docking_pred/2023_Apr_20-15:07/6ceeb54199aca0c96a32aff90fdf9e1d9b8e1f8c_ligand_2.pdbqt
 12 12 0 0 0
SMALL
GASTEIGER

@<TRIPOS>ATOM
      1  C          8.4050   -0.6900   -2.0800 C.3     1  UNL1        0.1270
      2  C          8.4460   -1.9350   -2.8830 C.2     1  UNL1        0.3030
      3  O          9.5270   -2.5390   -3.0910 O.2     1  UNL1       -0.2520
      4  O          7.2890   -2.4670   -3.4280 O.3     1  UNL1       -0.4810
      5  H          7.3610   -3.2090   -4.1300 H       1  UNL1        0.2960
      6  C          6.9990   -0.1720   -2.0870 C.3     1  UNL1        0.0470
      7  C          6.4430    0.0560   -0.7540 C.2     1  UNL1       -0.0470
      8  C          5.8150    1.2410   -0.4480 C.2     1  UNL1        0.0040
      9  C          6.5510   -0.9320    0.1960 C.2     1  UNL1        0.0040
     10  C          5.3070    1.3900    0.8450 C.2     1  UNL1        0.0000
     11  C          6.0480   -0.7840    1.4740 C.2     1  UNL1        0.0000
     12  C          5.4190    0.4010    1.7890 C.2     1  UNL1        0.0000
@<TRIPOS>BOND
     1     5     4    1
     2     4     2    1
     3     3     2    2
     4     2     1    1
     5     6     1    1
     6     6     7    1
     7     7     8    2
     8     7     9    1
     9     8    10    1
    10     9    11    2
    11    10    12    2
    12    11    12    1
