@<TRIPOS>MOLECULE
/home/cewinharhar/GITHUB/reincatalyze/data/processed/docking_pred/2023_Apr_20-15:07/6ceeb54199aca0c96a32aff90fdf9e1d9b8e1f8c_ligand_2.pdbqt
 12 12 0 0 0
SMALL
GASTEIGER

@<TRIPOS>ATOM
      1  C          8.4490   -0.5670   -2.1980 C.3     1  UNL1        0.1270
      2  C          8.4800   -1.8650   -2.9110 C.2     1  UNL1        0.3030
      3  O          9.5580   -2.4870   -3.0860 O.2     1  UNL1       -0.2520
      4  O          7.3160   -2.4310   -3.4070 O.3     1  UNL1       -0.4810
      5  H          6.9860   -2.1630   -4.3380 H       1  UNL1        0.2960
      6  C          7.0300   -0.0910   -2.1480 C.3     1  UNL1        0.0470
      7  C          6.4960    0.0480   -0.7940 C.2     1  UNL1       -0.0470
      8  C          6.6240   -0.9730    0.1200 C.2     1  UNL1        0.0040
      9  C          5.8630    1.2160   -0.4380 C.2     1  UNL1        0.0040
     10  C          6.0910   -0.7710    1.3950 C.2     1  UNL1        0.0000
     11  C          5.3370    1.4140    0.8240 C.2     1  UNL1        0.0000
     12  C          5.4600    0.3960    1.7450 C.2     1  UNL1        0.0000
@<TRIPOS>BOND
     1     5     4    1
     2     4     2    1
     3     3     2    2
     4     2     1    1
     5     1     6    1
     6     6     7    1
     7     7     9    2
     8     7     8    1
     9     9    11    1
    10     8    10    2
    11    11    12    2
    12    10    12    1
