MODEL 1
REMARK VINA RESULT:      -7.3      0.000      0.000
REMARK SMILES O=C(O)CCc1ccccc1
REMARK SMILES IDX 4 1 2 2 1 3 3 4 5 6 6 7 7 8 11 9 8 10 10 11 9 12
REMARK H PARENT 3 5
REMARK Flexibility Score: inf
ROOT
ATOM      1  C   UNL     1       8.405  -0.690  -2.080  1.00  0.00     0.127 C 
ENDROOT
BRANCH   1   2
ATOM      2  C   UNL     1       8.446  -1.935  -2.883  1.00  0.00     0.303 C 
ATOM      3  O   UNL     1       9.527  -2.539  -3.091  1.00  0.00    -0.252 OA
BRANCH   2   4
ATOM      4  O   UNL     1       7.289  -2.467  -3.428  1.00  0.00    -0.481 OA
ATOM      5  H   UNL     1       7.361  -3.209  -4.130  1.00  0.00     0.296 HD
ENDBRANCH   2   4
ENDBRANCH   1   2
BRANCH   1   6
ATOM      6  C   UNL     1       6.999  -0.172  -2.087  1.00  0.00     0.047 C 
BRANCH   6   7
ATOM      7  C   UNL     1       6.443   0.056  -0.754  1.00  0.00    -0.047 A 
ATOM      8  C   UNL     1       5.815   1.241  -0.448  1.00  0.00     0.004 A 
ATOM      9  C   UNL     1       6.551  -0.932   0.196  1.00  0.00     0.004 A 
ATOM     10  C   UNL     1       5.307   1.390   0.845  1.00  0.00     0.000 A 
ATOM     11  C   UNL     1       6.048  -0.784   1.474  1.00  0.00     0.000 A 
ATOM     12  C   UNL     1       5.419   0.401   1.789  1.00  0.00     0.000 A 
ENDBRANCH   6   7
ENDBRANCH   1   6
TORSDOF 4
ENDMDL
MODEL 2
REMARK VINA RESULT:      -7.3      0.090      1.439
REMARK SMILES O=C(O)CCc1ccccc1
REMARK SMILES IDX 4 1 2 2 1 3 3 4 5 6 6 7 7 8 11 9 8 10 10 11 9 12
REMARK H PARENT 3 5
REMARK Flexibility Score: inf
ROOT
ATOM      1  C   UNL     1       8.449  -0.567  -2.198  1.00  0.00     0.127 C 
ENDROOT
BRANCH   1   2
ATOM      2  C   UNL     1       8.480  -1.865  -2.911  1.00  0.00     0.303 C 
ATOM      3  O   UNL     1       9.558  -2.487  -3.086  1.00  0.00    -0.252 OA
BRANCH   2   4
ATOM      4  O   UNL     1       7.316  -2.431  -3.407  1.00  0.00    -0.481 OA
ATOM      5  H   UNL     1       6.986  -2.163  -4.338  1.00  0.00     0.296 HD
ENDBRANCH   2   4
ENDBRANCH   1   2
BRANCH   1   6
ATOM      6  C   UNL     1       7.030  -0.091  -2.148  1.00  0.00     0.047 C 
BRANCH   6   7
ATOM      7  C   UNL     1       6.496   0.048  -0.794  1.00  0.00    -0.047 A 
ATOM      8  C   UNL     1       6.624  -0.973   0.120  1.00  0.00     0.004 A 
ATOM      9  C   UNL     1       5.863   1.216  -0.438  1.00  0.00     0.004 A 
ATOM     10  C   UNL     1       6.091  -0.771   1.395  1.00  0.00     0.000 A 
ATOM     11  C   UNL     1       5.337   1.414   0.824  1.00  0.00     0.000 A 
ATOM     12  C   UNL     1       5.460   0.396   1.745  1.00  0.00     0.000 A 
ENDBRANCH   6   7
ENDBRANCH   1   6
TORSDOF 4
ENDMDL
MODEL 3
REMARK VINA RESULT:      -6.6      3.354      5.026
REMARK SMILES O=C(O)CCc1ccccc1
REMARK SMILES IDX 4 1 2 2 1 3 3 4 5 6 6 7 7 8 11 9 8 10 10 11 9 12
REMARK H PARENT 3 5
REMARK Flexibility Score: inf
ROOT
ATOM      1  C   UNL     1       5.074   1.725   0.737  1.00  0.00     0.127 C 
ENDROOT
BRANCH   1   2
ATOM      2  C   UNL     1       4.567   1.028   1.942  1.00  0.00     0.303 C 
ATOM      3  O   UNL     1       5.239   0.128   2.505  1.00  0.00    -0.252 OA
BRANCH   2   4
ATOM      4  O   UNL     1       3.332   1.350   2.482  1.00  0.00    -0.481 OA
ATOM      5  H   UNL     1       3.071   0.971   3.396  1.00  0.00     0.296 HD
ENDBRANCH   2   4
ENDBRANCH   1   2
BRANCH   1   6
ATOM      6  C   UNL     1       6.572   1.702   0.776  1.00  0.00     0.047 C 
BRANCH   6   7
ATOM      7  C   UNL     1       7.184   0.964  -0.327  1.00  0.00    -0.047 A 
ATOM      8  C   UNL     1       8.479   1.222  -0.713  1.00  0.00     0.004 A 
ATOM      9  C   UNL     1       6.450   0.002  -0.980  1.00  0.00     0.004 A 
ATOM     10  C   UNL     1       9.000   0.478  -1.774  1.00  0.00     0.000 A 
ATOM     11  C   UNL     1       6.966  -0.733  -2.030  1.00  0.00     0.000 A 
ATOM     12  C   UNL     1       8.263  -0.480  -2.423  1.00  0.00     0.000 A 
ENDBRANCH   6   7
ENDBRANCH   1   6
TORSDOF 4
ENDMDL
MODEL 4
REMARK VINA RESULT:      -6.5      2.068      2.354
REMARK SMILES O=C(O)CCc1ccccc1
REMARK SMILES IDX 4 1 2 2 1 3 3 4 5 6 6 7 7 8 11 9 8 10 10 11 9 12
REMARK H PARENT 3 5
REMARK Flexibility Score: inf
ROOT
ATOM      1  C   UNL     1       8.470   0.657  -1.712  1.00  0.00     0.127 C 
ENDROOT
BRANCH   1   2
ATOM      2  C   UNL     1       9.616   0.281  -0.851  1.00  0.00     0.303 C 
ATOM      3  O   UNL     1       9.474  -0.518   0.108  1.00  0.00    -0.252 OA
BRANCH   2   4
ATOM      4  O   UNL     1      10.878   0.803  -1.081  1.00  0.00    -0.481 OA
ATOM      5  H   UNL     1      10.987   1.578  -1.741  1.00  0.00     0.296 HD
ENDBRANCH   2   4
ENDBRANCH   1   2
BRANCH   1   6
ATOM      6  C   UNL     1       7.309  -0.225  -1.363  1.00  0.00     0.047 C 
BRANCH   6   7
ATOM      7  C   UNL     1       6.418   0.339  -0.351  1.00  0.00    -0.047 A 
ATOM      8  C   UNL     1       5.803   1.553  -0.552  1.00  0.00     0.004 A 
ATOM      9  C   UNL     1       6.196  -0.361   0.812  1.00  0.00     0.004 A 
ATOM     10  C   UNL     1       4.964   2.030   0.457  1.00  0.00     0.000 A 
ATOM     11  C   UNL     1       5.366   0.112   1.810  1.00  0.00     0.000 A 
ATOM     12  C   UNL     1       4.747   1.328   1.616  1.00  0.00     0.000 A 
ENDBRANCH   6   7
ENDBRANCH   1   6
TORSDOF 4
ENDMDL
MODEL 5
REMARK VINA RESULT:      -6.5      2.009      2.507
REMARK SMILES O=C(O)CCc1ccccc1
REMARK SMILES IDX 4 1 2 2 1 3 3 4 5 6 6 7 7 8 11 9 8 10 10 11 9 12
REMARK H PARENT 3 5
REMARK Flexibility Score: inf
ROOT
ATOM      1  C   UNL     1       7.791  -2.345   0.800  1.00  0.00     0.127 C 
ENDROOT
BRANCH   1   2
ATOM      2  C   UNL     1       8.723  -3.392   0.318  1.00  0.00     0.303 C 
ATOM      3  O   UNL     1       9.651  -3.823   1.046  1.00  0.00    -0.252 OA
BRANCH   2   4
ATOM      4  O   UNL     1       8.594  -3.925  -0.955  1.00  0.00    -0.481 OA
ATOM      5  H   UNL     1       9.361  -3.814  -1.624  1.00  0.00     0.296 HD
ENDBRANCH   2   4
ENDBRANCH   1   2
BRANCH   1   6
ATOM      6  C   UNL     1       7.585  -1.353  -0.304  1.00  0.00     0.047 C 
BRANCH   6   7
ATOM      7  C   UNL     1       6.678  -0.260   0.041  1.00  0.00    -0.047 A 
ATOM      8  C   UNL     1       6.366   0.713  -0.881  1.00  0.00     0.004 A 
ATOM      9  C   UNL     1       6.132  -0.213   1.303  1.00  0.00     0.004 A 
ATOM     10  C   UNL     1       5.491   1.726  -0.483  1.00  0.00     0.000 A 
ATOM     11  C   UNL     1       5.268   0.790   1.695  1.00  0.00     0.000 A 
ATOM     12  C   UNL     1       4.951   1.769   0.777  1.00  0.00     0.000 A 
ENDBRANCH   6   7
ENDBRANCH   1   6
TORSDOF 4
ENDMDL
