@<TRIPOS>MOLECULE
/home/cewinharhar/GITHUB/reincatalyze/data/processed/docking_pred/2023_Apr_20-15:07/6d158fe290fd5017d73aec191e5eef2bb245b649_ligand_2.pdbqt
 12 12 0 0 0
SMALL
GASTEIGER

@<TRIPOS>ATOM
      1  C          5.0460    1.7360    0.6750 C.3     1  UNL1        0.1270
      2  C          4.5990    1.0480    1.9090 C.2     1  UNL1        0.3030
      3  O          5.3230    0.1920    2.4760 O.2     1  UNL1       -0.2520
      4  O          3.3650    1.3300    2.4720 O.3     1  UNL1       -0.4810
      5  H          3.1970    1.0950    3.4550 H       1  UNL1        0.2960
      6  C          6.5430    1.7990    0.6870 C.3     1  UNL1        0.0470
      7  C          7.1790    1.0310   -0.3820 C.2     1  UNL1       -0.0470
      8  C          8.5130    1.2010   -0.6720 C.2     1  UNL1        0.0040
      9  C          6.4270    0.1300   -1.1000 C.2     1  UNL1        0.0040
     10  C          9.0540    0.4340   -1.7060 C.2     1  UNL1        0.0000
     11  C          6.9640   -0.6280   -2.1220 C.2     1  UNL1        0.0000
     12  C          8.2990   -0.4630   -2.4190 C.2     1  UNL1        0.0000
@<TRIPOS>BOND
     1    12    11    2
     2    12    10    1
     3    11     9    1
     4    10     8    2
     5     9     7    2
     6     8     7    1
     7     7     6    1
     8     1     6    1
     9     1     2    1
    10     2     4    1
    11     2     3    2
    12     4     5    1
