@<TRIPOS>MOLECULE
/home/cewinharhar/GITHUB/reincatalyze/data/processed/docking_pred/2023_Apr_20-15:07/6d158fe290fd5017d73aec191e5eef2bb245b649_ligand_2.pdbqt
 12 12 0 0 0
SMALL
GASTEIGER

@<TRIPOS>ATOM
      1  C          5.3480    2.9540    0.1320 C.3     1  UNL1        0.1270
      2  C          6.2370    3.8720    0.8810 C.2     1  UNL1        0.3030
      3  O          6.8850    4.7740    0.2940 O.2     1  UNL1       -0.2520
      4  O          6.3790    3.7590    2.2550 O.3     1  UNL1       -0.4810
      5  H          6.0260    2.9230    2.7280 H       1  UNL1        0.2960
      6  C          5.2760    1.6560    0.8770 C.3     1  UNL1        0.0470
      7  C          6.0110    0.5640    0.2410 C.2     1  UNL1       -0.0470
      8  C          6.4220   -0.5270    0.9720 C.2     1  UNL1        0.0040
      9  C          6.2880    0.6350   -1.1050 C.2     1  UNL1        0.0040
     10  C          7.1180   -1.5330    0.2990 C.2     1  UNL1        0.0000
     11  C          6.9770   -0.3600   -1.7680 C.2     1  UNL1        0.0000
     12  C          7.3930   -1.4560   -1.0440 C.2     1  UNL1        0.0000
@<TRIPOS>BOND
     1    11     9    1
     2    11    12    2
     3     9     7    2
     4    12    10    1
     5     1     6    1
     6     1     2    1
     7     7     6    1
     8     7     8    1
     9     3     2    2
    10    10     8    2
    11     2     4    1
    12     4     5    1
