@<TRIPOS>MOLECULE
/home/cewinharhar/GITHUB/reincatalyze/data/processed/docking_pred/2023_Apr_20-15:07/6d158fe290fd5017d73aec191e5eef2bb245b649_ligand_2.pdbqt
 12 12 0 0 0
SMALL
GASTEIGER

@<TRIPOS>ATOM
      1  C          8.3210    0.3220   -2.1070 C.3     1  UNL1        0.1270
      2  C          9.4510    0.3790   -1.1500 C.2     1  UNL1        0.3030
      3  O          9.5000   -0.3850   -0.1540 O.2     1  UNL1       -0.2520
      4  O         10.4890    1.2790   -1.3300 O.3     1  UNL1       -0.4810
      5  H         10.3930    2.0210   -2.0280 H       1  UNL1        0.2960
      6  C          7.2250   -0.4940   -1.4920 C.3     1  UNL1        0.0470
      7  C          6.4030    0.2420   -0.5320 C.2     1  UNL1       -0.0470
      8  C          6.1780   -0.2590    0.7290 C.2     1  UNL1        0.0040
      9  C          5.8550    1.4480   -0.9020 C.2     1  UNL1        0.0040
     10  C          5.3840    0.4970    1.5950 C.2     1  UNL1        0.0000
     11  C          5.0700    2.1940   -0.0460 C.2     1  UNL1        0.0000
     12  C          4.8390    1.7000    1.2200 C.2     1  UNL1        0.0000
@<TRIPOS>BOND
     1     1     6    1
     2     1     2    1
     3     5     4    1
     4     6     7    1
     5     4     2    1
     6     2     3    2
     7     9     7    2
     8     9    11    1
     9     7     8    1
    10    11    12    2
    11     8    10    2
    12    12    10    1
