MODEL 1
REMARK VINA RESULT:      -7.3      0.000      0.000
REMARK SMILES O=C(O)CCc1ccccc1
REMARK SMILES IDX 4 1 2 2 1 3 3 4 5 6 6 7 7 8 11 9 8 10 10 11 9 12
REMARK H PARENT 3 5
REMARK Flexibility Score: inf
ROOT
ATOM      1  C   UNL     1       8.452  -0.606  -2.151  1.00  0.00     0.127 C 
ENDROOT
BRANCH   1   2
ATOM      2  C   UNL     1       8.476  -1.888  -2.895  1.00  0.00     0.303 C 
ATOM      3  O   UNL     1       9.551  -2.510  -3.084  1.00  0.00    -0.252 OA
BRANCH   2   4
ATOM      4  O   UNL     1       7.310  -2.436  -3.403  1.00  0.00    -0.481 OA
ATOM      5  H   UNL     1       6.557  -2.697  -2.761  1.00  0.00     0.296 HD
ENDBRANCH   2   4
ENDBRANCH   1   2
BRANCH   1   6
ATOM      6  C   UNL     1       7.041  -0.102  -2.128  1.00  0.00     0.047 C 
BRANCH   6   7
ATOM      7  C   UNL     1       6.491   0.064  -0.784  1.00  0.00    -0.047 A 
ATOM      8  C   UNL     1       5.856   1.230  -0.424  1.00  0.00     0.004 A 
ATOM      9  C   UNL     1       6.614  -0.963   0.123  1.00  0.00     0.004 A 
ATOM     10  C   UNL     1       5.354   1.319   0.877  1.00  0.00     0.000 A 
ATOM     11  C   UNL     1       6.117  -0.873   1.409  1.00  0.00     0.000 A 
ATOM     12  C   UNL     1       5.479   0.292   1.778  1.00  0.00     0.000 A 
ENDBRANCH   6   7
ENDBRANCH   1   6
TORSDOF 4
ENDMDL
MODEL 2
REMARK VINA RESULT:      -7.3      0.095      1.440
REMARK SMILES O=C(O)CCc1ccccc1
REMARK SMILES IDX 4 1 2 2 1 3 3 4 5 6 6 7 7 8 11 9 8 10 10 11 9 12
REMARK H PARENT 3 5
REMARK Flexibility Score: inf
ROOT
ATOM      1  C   UNL     1       8.411  -0.531  -2.289  1.00  0.00     0.127 C 
ENDROOT
BRANCH   1   2
ATOM      2  C   UNL     1       8.485  -1.861  -2.938  1.00  0.00     0.303 C 
ATOM      3  O   UNL     1       9.582  -2.455  -3.083  1.00  0.00    -0.252 OA
BRANCH   2   4
ATOM      4  O   UNL     1       7.340  -2.488  -3.403  1.00  0.00    -0.481 OA
ATOM      5  H   UNL     1       6.979  -2.247  -4.330  1.00  0.00     0.296 HD
ENDBRANCH   2   4
ENDBRANCH   1   2
BRANCH   1   6
ATOM      6  C   UNL     1       6.971  -0.125  -2.209  1.00  0.00     0.047 C 
BRANCH   6   7
ATOM      7  C   UNL     1       6.470   0.023  -0.844  1.00  0.00    -0.047 A 
ATOM      8  C   UNL     1       6.608  -0.996   0.070  1.00  0.00     0.004 A 
ATOM      9  C   UNL     1       5.856   1.198  -0.478  1.00  0.00     0.004 A 
ATOM     10  C   UNL     1       6.106  -0.785   1.357  1.00  0.00     0.000 A 
ATOM     11  C   UNL     1       5.360   1.405   0.794  1.00  0.00     0.000 A 
ATOM     12  C   UNL     1       5.494   0.389   1.716  1.00  0.00     0.000 A 
ENDBRANCH   6   7
ENDBRANCH   1   6
TORSDOF 4
ENDMDL
MODEL 3
REMARK VINA RESULT:      -6.7      3.332      5.008
REMARK SMILES O=C(O)CCc1ccccc1
REMARK SMILES IDX 4 1 2 2 1 3 3 4 5 6 6 7 7 8 11 9 8 10 10 11 9 12
REMARK H PARENT 3 5
REMARK Flexibility Score: inf
ROOT
ATOM      1  C   UNL     1       5.046   1.736   0.675  1.00  0.00     0.127 C 
ENDROOT
BRANCH   1   2
ATOM      2  C   UNL     1       4.599   1.048   1.909  1.00  0.00     0.303 C 
ATOM      3  O   UNL     1       5.323   0.192   2.476  1.00  0.00    -0.252 OA
BRANCH   2   4
ATOM      4  O   UNL     1       3.365   1.330   2.472  1.00  0.00    -0.481 OA
ATOM      5  H   UNL     1       3.197   1.095   3.455  1.00  0.00     0.296 HD
ENDBRANCH   2   4
ENDBRANCH   1   2
BRANCH   1   6
ATOM      6  C   UNL     1       6.543   1.799   0.687  1.00  0.00     0.047 C 
BRANCH   6   7
ATOM      7  C   UNL     1       7.179   1.031  -0.382  1.00  0.00    -0.047 A 
ATOM      8  C   UNL     1       8.513   1.201  -0.672  1.00  0.00     0.004 A 
ATOM      9  C   UNL     1       6.427   0.130  -1.100  1.00  0.00     0.004 A 
ATOM     10  C   UNL     1       9.054   0.434  -1.706  1.00  0.00     0.000 A 
ATOM     11  C   UNL     1       6.964  -0.628  -2.122  1.00  0.00     0.000 A 
ATOM     12  C   UNL     1       8.299  -0.463  -2.419  1.00  0.00     0.000 A 
ENDBRANCH   6   7
ENDBRANCH   1   6
TORSDOF 4
ENDMDL
MODEL 4
REMARK VINA RESULT:      -6.6      1.966      2.690
REMARK SMILES O=C(O)CCc1ccccc1
REMARK SMILES IDX 4 1 2 2 1 3 3 4 5 6 6 7 7 8 11 9 8 10 10 11 9 12
REMARK H PARENT 3 5
REMARK Flexibility Score: inf
ROOT
ATOM      1  C   UNL     1       8.321   0.322  -2.107  1.00  0.00     0.127 C 
ENDROOT
BRANCH   1   2
ATOM      2  C   UNL     1       9.451   0.379  -1.150  1.00  0.00     0.303 C 
ATOM      3  O   UNL     1       9.500  -0.385  -0.154  1.00  0.00    -0.252 OA
BRANCH   2   4
ATOM      4  O   UNL     1      10.489   1.279  -1.330  1.00  0.00    -0.481 OA
ATOM      5  H   UNL     1      10.393   2.021  -2.028  1.00  0.00     0.296 HD
ENDBRANCH   2   4
ENDBRANCH   1   2
BRANCH   1   6
ATOM      6  C   UNL     1       7.225  -0.494  -1.492  1.00  0.00     0.047 C 
BRANCH   6   7
ATOM      7  C   UNL     1       6.403   0.242  -0.532  1.00  0.00    -0.047 A 
ATOM      8  C   UNL     1       6.178  -0.259   0.729  1.00  0.00     0.004 A 
ATOM      9  C   UNL     1       5.855   1.448  -0.902  1.00  0.00     0.004 A 
ATOM     10  C   UNL     1       5.384   0.497   1.595  1.00  0.00     0.000 A 
ATOM     11  C   UNL     1       5.070   2.194  -0.046  1.00  0.00     0.000 A 
ATOM     12  C   UNL     1       4.839   1.700   1.220  1.00  0.00     0.000 A 
ENDBRANCH   6   7
ENDBRANCH   1   6
TORSDOF 4
ENDMDL
MODEL 5
REMARK VINA RESULT:      -6.6      3.724      5.103
REMARK SMILES O=C(O)CCc1ccccc1
REMARK SMILES IDX 4 1 2 2 1 3 3 4 5 6 6 7 7 8 11 9 8 10 10 11 9 12
REMARK H PARENT 3 5
REMARK Flexibility Score: inf
ROOT
ATOM      1  C   UNL     1       5.348   2.954   0.132  1.00  0.00     0.127 C 
ENDROOT
BRANCH   1   2
ATOM      2  C   UNL     1       6.237   3.872   0.881  1.00  0.00     0.303 C 
ATOM      3  O   UNL     1       6.885   4.774   0.294  1.00  0.00    -0.252 OA
BRANCH   2   4
ATOM      4  O   UNL     1       6.379   3.759   2.255  1.00  0.00    -0.481 OA
ATOM      5  H   UNL     1       6.026   2.923   2.728  1.00  0.00     0.296 HD
ENDBRANCH   2   4
ENDBRANCH   1   2
BRANCH   1   6
ATOM      6  C   UNL     1       5.276   1.656   0.877  1.00  0.00     0.047 C 
BRANCH   6   7
ATOM      7  C   UNL     1       6.011   0.564   0.241  1.00  0.00    -0.047 A 
ATOM      8  C   UNL     1       6.422  -0.527   0.972  1.00  0.00     0.004 A 
ATOM      9  C   UNL     1       6.288   0.635  -1.105  1.00  0.00     0.004 A 
ATOM     10  C   UNL     1       7.118  -1.533   0.299  1.00  0.00     0.000 A 
ATOM     11  C   UNL     1       6.977  -0.360  -1.768  1.00  0.00     0.000 A 
ATOM     12  C   UNL     1       7.393  -1.456  -1.044  1.00  0.00     0.000 A 
ENDBRANCH   6   7
ENDBRANCH   1   6
TORSDOF 4
ENDMDL
