@<TRIPOS>MOLECULE
/home/cewinharhar/GITHUB/reincatalyze/data/processed/docking_pred/2023_Apr_20-15:07/6d158fe290fd5017d73aec191e5eef2bb245b649_ligand_2.pdbqt
 12 12 0 0 0
SMALL
GASTEIGER

@<TRIPOS>ATOM
      1  C          8.4110   -0.5310   -2.2890 C.3     1  UNL1        0.1270
      2  C          8.4850   -1.8610   -2.9380 C.2     1  UNL1        0.3030
      3  O          9.5820   -2.4550   -3.0830 O.2     1  UNL1       -0.2520
      4  O          7.3400   -2.4880   -3.4030 O.3     1  UNL1       -0.4810
      5  H          6.9790   -2.2470   -4.3300 H       1  UNL1        0.2960
      6  C          6.9710   -0.1250   -2.2090 C.3     1  UNL1        0.0470
      7  C          6.4700    0.0230   -0.8440 C.2     1  UNL1       -0.0470
      8  C          6.6080   -0.9960    0.0700 C.2     1  UNL1        0.0040
      9  C          5.8560    1.1980   -0.4780 C.2     1  UNL1        0.0040
     10  C          6.1060   -0.7850    1.3570 C.2     1  UNL1        0.0000
     11  C          5.3600    1.4050    0.7940 C.2     1  UNL1        0.0000
     12  C          5.4940    0.3890    1.7160 C.2     1  UNL1        0.0000
@<TRIPOS>BOND
     1     5     4    1
     2     4     2    1
     3     3     2    2
     4     2     1    1
     5     1     6    1
     6     6     7    1
     7     7     9    2
     8     7     8    1
     9     9    11    1
    10     8    10    2
    11    11    12    2
    12    10    12    1
