@<TRIPOS>MOLECULE
/home/cewinharhar/GITHUB/reincatalyze/data/processed/docking_pred/2023_Apr_20-15:07/6dc168e099aae66a1c19408847f7f9495b2b5216_ligand_2.pdbqt
 12 12 0 0 0
SMALL
GASTEIGER

@<TRIPOS>ATOM
      1  C          5.3500    2.8890    0.0990 C.3     1  UNL1        0.1270
      2  C          6.1880    3.8270    0.8830 C.2     1  UNL1        0.3030
      3  O          6.2070    3.7900    2.1380 O.2     1  UNL1       -0.2520
      4  O          6.9760    4.7740    0.2490 O.3     1  UNL1       -0.4810
      5  H          6.7320    5.7650    0.3300 H       1  UNL1        0.2960
      6  C          4.9260    1.7710    1.0020 C.3     1  UNL1        0.0470
      7  C          5.7360    0.5620    0.8710 C.2     1  UNL1       -0.0470
      8  C          5.9110   -0.2870    1.9400 C.2     1  UNL1        0.0040
      9  C          6.3250    0.2760   -0.3390 C.2     1  UNL1        0.0040
     10  C          6.6970   -1.4240    1.7420 C.2     1  UNL1        0.0000
     11  C          7.1030   -0.8490   -0.5320 C.2     1  UNL1        0.0000
     12  C          7.2840   -1.7040    0.5340 C.2     1  UNL1        0.0000
@<TRIPOS>BOND
     1    11     9    1
     2    11    12    2
     3     9     7    2
     4     1     2    1
     5     1     6    1
     6     4     5    1
     7     4     2    1
     8    12    10    1
     9     7     6    1
    10     7     8    1
    11     2     3    2
    12    10     8    2
