MODEL 1
REMARK VINA RESULT:      -7.3      0.000      0.000
REMARK SMILES O=C(O)CCc1ccccc1
REMARK SMILES IDX 4 1 2 2 1 3 3 4 5 6 6 7 7 8 11 9 8 10 10 11 9 12
REMARK H PARENT 3 5
REMARK Flexibility Score: inf
ROOT
ATOM      1  C   UNL     1       8.434  -0.598  -2.185  1.00  0.00     0.127 C 
ENDROOT
BRANCH   1   2
ATOM      2  C   UNL     1       8.474  -1.886  -2.917  1.00  0.00     0.303 C 
ATOM      3  O   UNL     1       9.555  -2.500  -3.095  1.00  0.00    -0.252 OA
BRANCH   2   4
ATOM      4  O   UNL     1       7.315  -2.450  -3.426  1.00  0.00    -0.481 OA
ATOM      5  H   UNL     1       6.421  -1.971  -3.285  1.00  0.00     0.296 HD
ENDBRANCH   2   4
ENDBRANCH   1   2
BRANCH   1   6
ATOM      6  C   UNL     1       7.013  -0.125  -2.143  1.00  0.00     0.047 C 
BRANCH   6   7
ATOM      7  C   UNL     1       6.480   0.037  -0.791  1.00  0.00    -0.047 A 
ATOM      8  C   UNL     1       6.609  -0.967   0.141  1.00  0.00     0.004 A 
ATOM      9  C   UNL     1       5.846   1.211  -0.455  1.00  0.00     0.004 A 
ATOM     10  C   UNL     1       6.077  -0.743   1.413  1.00  0.00     0.000 A 
ATOM     11  C   UNL     1       5.321   1.431   0.803  1.00  0.00     0.000 A 
ATOM     12  C   UNL     1       5.445   0.430   1.742  1.00  0.00     0.000 A 
ENDBRANCH   6   7
ENDBRANCH   1   6
TORSDOF 4
ENDMDL
MODEL 2
REMARK VINA RESULT:      -7.3      0.127      1.732
REMARK SMILES O=C(O)CCc1ccccc1
REMARK SMILES IDX 4 1 2 2 1 3 3 4 5 6 6 7 7 8 11 9 8 10 10 11 9 12
REMARK H PARENT 3 5
REMARK Flexibility Score: inf
ROOT
ATOM      1  C   UNL     1       8.410  -0.638  -2.141  1.00  0.00     0.127 C 
ENDROOT
BRANCH   1   2
ATOM      2  C   UNL     1       8.384  -1.907  -2.906  1.00  0.00     0.303 C 
ATOM      3  O   UNL     1       7.299  -2.431  -3.260  1.00  0.00    -0.252 OA
BRANCH   2   4
ATOM      4  O   UNL     1       9.561  -2.551  -3.253  1.00  0.00    -0.481 OA
ATOM      5  H   UNL     1       9.539  -3.550  -3.473  1.00  0.00     0.296 HD
ENDBRANCH   2   4
ENDBRANCH   1   2
BRANCH   1   6
ATOM      6  C   UNL     1       7.019  -0.083  -2.103  1.00  0.00     0.047 C 
BRANCH   6   7
ATOM      7  C   UNL     1       6.474   0.065  -0.754  1.00  0.00    -0.047 A 
ATOM      8  C   UNL     1       5.838   1.225  -0.375  1.00  0.00     0.004 A 
ATOM      9  C   UNL     1       6.603  -0.973   0.140  1.00  0.00     0.004 A 
ATOM     10  C   UNL     1       5.342   1.296   0.928  1.00  0.00     0.000 A 
ATOM     11  C   UNL     1       6.112  -0.901   1.428  1.00  0.00     0.000 A 
ATOM     12  C   UNL     1       5.474   0.257   1.816  1.00  0.00     0.000 A 
ENDBRANCH   6   7
ENDBRANCH   1   6
TORSDOF 4
ENDMDL
MODEL 3
REMARK VINA RESULT:      -6.8      3.379      5.077
REMARK SMILES O=C(O)CCc1ccccc1
REMARK SMILES IDX 4 1 2 2 1 3 3 4 5 6 6 7 7 8 11 9 8 10 10 11 9 12
REMARK H PARENT 3 5
REMARK Flexibility Score: inf
ROOT
ATOM      1  C   UNL     1       4.989   1.771   0.703  1.00  0.00     0.127 C 
ENDROOT
BRANCH   1   2
ATOM      2  C   UNL     1       4.487   1.096   1.923  1.00  0.00     0.303 C 
ATOM      3  O   UNL     1       5.157   0.199   2.492  1.00  0.00    -0.252 OA
BRANCH   2   4
ATOM      4  O   UNL     1       3.261   1.438   2.470  1.00  0.00    -0.481 OA
ATOM      5  H   UNL     1       2.727   0.731   2.983  1.00  0.00     0.296 HD
ENDBRANCH   2   4
ENDBRANCH   1   2
BRANCH   1   6
ATOM      6  C   UNL     1       6.486   1.798   0.761  1.00  0.00     0.047 C 
BRANCH   6   7
ATOM      7  C   UNL     1       7.136   1.067  -0.325  1.00  0.00    -0.047 A 
ATOM      8  C   UNL     1       8.471   1.256  -0.600  1.00  0.00     0.004 A 
ATOM      9  C   UNL     1       6.398   0.179  -1.073  1.00  0.00     0.004 A 
ATOM     10  C   UNL     1       9.026   0.523  -1.651  1.00  0.00     0.000 A 
ATOM     11  C   UNL     1       6.949  -0.544  -2.112  1.00  0.00     0.000 A 
ATOM     12  C   UNL     1       8.285  -0.360  -2.394  1.00  0.00     0.000 A 
ENDBRANCH   6   7
ENDBRANCH   1   6
TORSDOF 4
ENDMDL
MODEL 4
REMARK VINA RESULT:      -6.6      3.773      4.958
REMARK SMILES O=C(O)CCc1ccccc1
REMARK SMILES IDX 4 1 2 2 1 3 3 4 5 6 6 7 7 8 11 9 8 10 10 11 9 12
REMARK H PARENT 3 5
REMARK Flexibility Score: inf
ROOT
ATOM      1  C   UNL     1       5.350   2.889   0.099  1.00  0.00     0.127 C 
ENDROOT
BRANCH   1   2
ATOM      2  C   UNL     1       6.188   3.827   0.883  1.00  0.00     0.303 C 
ATOM      3  O   UNL     1       6.207   3.790   2.138  1.00  0.00    -0.252 OA
BRANCH   2   4
ATOM      4  O   UNL     1       6.976   4.774   0.249  1.00  0.00    -0.481 OA
ATOM      5  H   UNL     1       6.732   5.765   0.330  1.00  0.00     0.296 HD
ENDBRANCH   2   4
ENDBRANCH   1   2
BRANCH   1   6
ATOM      6  C   UNL     1       4.926   1.771   1.002  1.00  0.00     0.047 C 
BRANCH   6   7
ATOM      7  C   UNL     1       5.736   0.562   0.871  1.00  0.00    -0.047 A 
ATOM      8  C   UNL     1       5.911  -0.287   1.940  1.00  0.00     0.004 A 
ATOM      9  C   UNL     1       6.325   0.276  -0.339  1.00  0.00     0.004 A 
ATOM     10  C   UNL     1       6.697  -1.424   1.742  1.00  0.00     0.000 A 
ATOM     11  C   UNL     1       7.103  -0.849  -0.532  1.00  0.00     0.000 A 
ATOM     12  C   UNL     1       7.284  -1.704   0.534  1.00  0.00     0.000 A 
ENDBRANCH   6   7
ENDBRANCH   1   6
TORSDOF 4
ENDMDL
MODEL 5
REMARK VINA RESULT:      -6.5      1.963      2.673
REMARK SMILES O=C(O)CCc1ccccc1
REMARK SMILES IDX 4 1 2 2 1 3 3 4 5 6 6 7 7 8 11 9 8 10 10 11 9 12
REMARK H PARENT 3 5
REMARK Flexibility Score: inf
ROOT
ATOM      1  C   UNL     1       8.395   0.326  -2.045  1.00  0.00     0.127 C 
ENDROOT
BRANCH   1   2
ATOM      2  C   UNL     1       9.473   0.199  -1.035  1.00  0.00     0.303 C 
ATOM      3  O   UNL     1       9.355  -0.572  -0.051  1.00  0.00    -0.252 OA
BRANCH   2   4
ATOM      4  O   UNL     1      10.643   0.932  -1.151  1.00  0.00    -0.481 OA
ATOM      5  H   UNL     1      10.696   1.686  -1.841  1.00  0.00     0.296 HD
ENDBRANCH   2   4
ENDBRANCH   1   2
BRANCH   1   6
ATOM      6  C   UNL     1       7.189  -0.408  -1.540  1.00  0.00     0.047 C 
BRANCH   6   7
ATOM      7  C   UNL     1       6.367   0.367  -0.613  1.00  0.00    -0.047 A 
ATOM      8  C   UNL     1       5.838   1.581  -0.987  1.00  0.00     0.004 A 
ATOM      9  C   UNL     1       6.123  -0.131   0.646  1.00  0.00     0.004 A 
ATOM     10  C   UNL     1       5.061   2.266  -0.050  1.00  0.00     0.000 A 
ATOM     11  C   UNL     1       5.355   0.548   1.571  1.00  0.00     0.000 A 
ATOM     12  C   UNL     1       4.822   1.764   1.204  1.00  0.00     0.000 A 
ENDBRANCH   6   7
ENDBRANCH   1   6
TORSDOF 4
ENDMDL
