@<TRIPOS>MOLECULE
/home/cewinharhar/GITHUB/reincatalyze/data/processed/docking_pred/2023_Apr_20-15:07/6dc168e099aae66a1c19408847f7f9495b2b5216_ligand_2.pdbqt
 12 12 0 0 0
SMALL
GASTEIGER

@<TRIPOS>ATOM
      1  C          8.3950    0.3260   -2.0450 C.3     1  UNL1        0.1270
      2  C          9.4730    0.1990   -1.0350 C.2     1  UNL1        0.3030
      3  O          9.3550   -0.5720   -0.0510 O.2     1  UNL1       -0.2520
      4  O         10.6430    0.9320   -1.1510 O.3     1  UNL1       -0.4810
      5  H         10.6960    1.6860   -1.8410 H       1  UNL1        0.2960
      6  C          7.1890   -0.4080   -1.5400 C.3     1  UNL1        0.0470
      7  C          6.3670    0.3670   -0.6130 C.2     1  UNL1       -0.0470
      8  C          5.8380    1.5810   -0.9870 C.2     1  UNL1        0.0040
      9  C          6.1230   -0.1310    0.6460 C.2     1  UNL1        0.0040
     10  C          5.0610    2.2660   -0.0500 C.2     1  UNL1        0.0000
     11  C          5.3550    0.5480    1.5710 C.2     1  UNL1        0.0000
     12  C          4.8220    1.7640    1.2040 C.2     1  UNL1        0.0000
@<TRIPOS>BOND
     1     1     6    1
     2     1     2    1
     3     5     4    1
     4     6     7    1
     5     4     2    1
     6     2     3    2
     7     8     7    2
     8     8    10    1
     9     7     9    1
    10    10    12    2
    11     9    11    2
    12    12    11    1
