@<TRIPOS>MOLECULE
/home/cewinharhar/GITHUB/reincatalyze/data/processed/docking_pred/2023_Apr_20-15:07/6dc168e099aae66a1c19408847f7f9495b2b5216_ligand_2.pdbqt
 12 12 0 0 0
SMALL
GASTEIGER

@<TRIPOS>ATOM
      1  C          4.9890    1.7710    0.7030 C.3     1  UNL1        0.1270
      2  C          4.4870    1.0960    1.9230 C.2     1  UNL1        0.3030
      3  O          5.1570    0.1990    2.4920 O.2     1  UNL1       -0.2520
      4  O          3.2610    1.4380    2.4700 O.3     1  UNL1       -0.4810
      5  H          2.7270    0.7310    2.9830 H       1  UNL1        0.2960
      6  C          6.4860    1.7980    0.7610 C.3     1  UNL1        0.0470
      7  C          7.1360    1.0670   -0.3250 C.2     1  UNL1       -0.0470
      8  C          8.4710    1.2560   -0.6000 C.2     1  UNL1        0.0040
      9  C          6.3980    0.1790   -1.0730 C.2     1  UNL1        0.0040
     10  C          9.0260    0.5230   -1.6510 C.2     1  UNL1        0.0000
     11  C          6.9490   -0.5440   -2.1120 C.2     1  UNL1        0.0000
     12  C          8.2850   -0.3600   -2.3940 C.2     1  UNL1        0.0000
@<TRIPOS>BOND
     1    12    11    2
     2    12    10    1
     3    11     9    1
     4    10     8    2
     5     9     7    2
     6     8     7    1
     7     7     6    1
     8     1     6    1
     9     1     2    1
    10     2     4    1
    11     2     3    2
    12     4     5    1
