@<TRIPOS>MOLECULE
/home/cewinharhar/GITHUB/reincatalyze/data/processed/docking_pred/2023_Apr_20-15:07/6e6a373552f8835a6ba7a6c6fa001d8bbefa4498_ligand_2.pdbqt
 12 12 0 0 0
SMALL
GASTEIGER

@<TRIPOS>ATOM
      1  C          8.4030   -0.7880   -1.9510 C.3     1  UNL1        0.1270
      2  C          8.4670   -1.9520   -2.8650 C.2     1  UNL1        0.3030
      3  O          9.5620   -2.4930   -3.1560 O.2     1  UNL1       -0.2520
      4  O          7.3140   -2.4780   -3.4260 O.3     1  UNL1       -0.4810
      5  H          6.6450   -2.9700   -2.8270 H       1  UNL1        0.2960
      6  C          7.0200   -0.2150   -2.0130 C.3     1  UNL1        0.0470
      7  C          6.4300    0.0570   -0.7030 C.2     1  UNL1       -0.0470
      8  C          5.7980    1.2520   -0.4510 C.2     1  UNL1        0.0040
      9  C          6.5110   -0.9000    0.2810 C.2     1  UNL1        0.0040
     10  C          5.2560    1.4440    0.8220 C.2     1  UNL1        0.0000
     11  C          5.9750   -0.7090    1.5400 C.2     1  UNL1        0.0000
     12  C          5.3410    0.4860    1.8000 C.2     1  UNL1        0.0000
@<TRIPOS>BOND
     1     4     2    1
     2     4     5    1
     3     3     2    2
     4     2     1    1
     5     6     1    1
     6     6     7    1
     7     7     8    2
     8     7     9    1
     9     8    10    1
    10     9    11    2
    11    10    12    2
    12    11    12    1
