@<TRIPOS>MOLECULE
/home/cewinharhar/GITHUB/reincatalyze/data/processed/docking_pred/2023_Apr_20-15:07/6e6a373552f8835a6ba7a6c6fa001d8bbefa4498_ligand_2.pdbqt
 12 12 0 0 0
SMALL
GASTEIGER

@<TRIPOS>ATOM
      1  C          5.5990    2.6230    0.0870 C.3     1  UNL1        0.1270
      2  C          6.2090    3.7370    0.8510 C.2     1  UNL1        0.3030
      3  O          6.1530    3.7740    2.1050 O.2     1  UNL1       -0.2520
      4  O          6.8610    4.7710    0.1980 O.3     1  UNL1       -0.4810
      5  H          6.6730    4.9350   -0.7950 H       1  UNL1        0.2960
      6  C          6.2220    1.3400    0.5470 C.3     1  UNL1        0.0470
      7  C          7.0470    0.6830   -0.4650 C.2     1  UNL1       -0.0470
      8  C          8.3260    1.1190   -0.7220 C.2     1  UNL1        0.0040
      9  C          6.5290   -0.3840   -1.1630 C.2     1  UNL1        0.0040
     10  C          9.0560    0.4430   -1.7020 C.2     1  UNL1        0.0000
     11  C          7.2530   -1.0510   -2.1320 C.2     1  UNL1        0.0000
     12  C          8.5350   -0.6200   -2.3960 C.2     1  UNL1        0.0000
@<TRIPOS>BOND
     1    12    11    2
     2    12    10    1
     3    11     9    1
     4    10     8    2
     5     9     7    2
     6     5     4    1
     7     8     7    1
     8     7     6    1
     9     1     6    1
    10     1     2    1
    11     4     2    1
    12     2     3    2
