@<TRIPOS>MOLECULE
/home/cewinharhar/GITHUB/reincatalyze/data/processed/docking_pred/2023_Apr_20-15:07/6e6a373552f8835a6ba7a6c6fa001d8bbefa4498_ligand_2.pdbqt
 12 12 0 0 0
SMALL
GASTEIGER

@<TRIPOS>ATOM
      1  C          8.4780   -0.6330   -2.1300 C.3     1  UNL1        0.1270
      2  C          8.4870   -1.9050   -2.8910 C.2     1  UNL1        0.3030
      3  O          9.5530   -2.5390   -3.0860 O.2     1  UNL1       -0.2520
      4  O          7.3140   -2.4300   -3.4090 O.3     1  UNL1       -0.4810
      5  H          6.8980   -2.0030   -4.2410 H       1  UNL1        0.2960
      6  C          7.0770   -0.1020   -2.1170 C.3     1  UNL1        0.0470
      7  C          6.5090    0.0440   -0.7770 C.2     1  UNL1       -0.0470
      8  C          6.6360   -0.9610    0.1530 C.2     1  UNL1        0.0040
      9  C          5.8450    1.2040   -0.4520 C.2     1  UNL1        0.0040
     10  C          6.0700   -0.7530    1.4130 C.2     1  UNL1        0.0000
     11  C          5.2860    1.4080    0.7940 C.2     1  UNL1        0.0000
     12  C          5.4080    0.4060    1.7310 C.2     1  UNL1        0.0000
@<TRIPOS>BOND
     1     5     4    1
     2     4     2    1
     3     3     2    2
     4     2     1    1
     5     1     6    1
     6     6     7    1
     7     7     9    2
     8     7     8    1
     9     9    11    1
    10     8    10    2
    11    11    12    2
    12    10    12    1
