@<TRIPOS>MOLECULE
/home/cewinharhar/GITHUB/reincatalyze/data/processed/docking_pred/2023_Apr_20-15:07/6e6a373552f8835a6ba7a6c6fa001d8bbefa4498_ligand_2.pdbqt
 12 12 0 0 0
SMALL
GASTEIGER

@<TRIPOS>ATOM
      1  C          8.4780    0.6380   -1.7340 C.3     1  UNL1        0.1270
      2  C          9.6000    0.2940   -0.8290 C.2     1  UNL1        0.3030
      3  O          9.4510   -0.5270    0.1090 O.2     1  UNL1       -0.2520
      4  O         10.8480    0.8720   -0.9950 O.3     1  UNL1       -0.4810
      5  H         11.0630    1.7470   -0.5080 H       1  UNL1        0.2960
      6  C          7.3100   -0.2360   -1.3890 C.3     1  UNL1        0.0470
      7  C          6.4250    0.3290   -0.3720 C.2     1  UNL1       -0.0470
      8  C          5.7870    1.5300   -0.5830 C.2     1  UNL1        0.0040
      9  C          6.2320   -0.3550    0.8050 C.2     1  UNL1        0.0040
     10  C          4.9550    2.0090    0.4310 C.2     1  UNL1        0.0000
     11  C          5.4100    0.1200    1.8070 C.2     1  UNL1        0.0000
     12  C          4.7680    1.3220    1.6040 C.2     1  UNL1        0.0000
@<TRIPOS>BOND
     1     1     6    1
     2     1     2    1
     3     6     7    1
     4     4     2    1
     5     4     5    1
     6     2     3    2
     7     8     7    2
     8     8    10    1
     9     7     9    1
    10    10    12    2
    11     9    11    2
    12    12    11    1
