@<TRIPOS>MOLECULE
/home/cewinharhar/GITHUB/reincatalyze/data/processed/docking_pred/2023_Apr_20-15:07/6e6a373552f8835a6ba7a6c6fa001d8bbefa4498_ligand_2.pdbqt
 12 12 0 0 0
SMALL
GASTEIGER

@<TRIPOS>ATOM
      1  C          5.0210    1.7860    0.6520 C.3     1  UNL1        0.1270
      2  C          4.5210    1.1310    1.8840 C.2     1  UNL1        0.3030
      3  O          5.1980    0.2550    2.4760 O.2     1  UNL1       -0.2520
      4  O          3.2880    1.4710    2.4180 O.3     1  UNL1       -0.4810
      5  H          3.2120    1.6620    3.4210 H       1  UNL1        0.2960
      6  C          6.5180    1.8070    0.7050 C.3     1  UNL1        0.0470
      7  C          7.1610    1.0460   -0.3650 C.2     1  UNL1       -0.0470
      8  C          8.4970    1.2190   -0.6460 C.2     1  UNL1        0.0040
      9  C          6.4150    0.1490   -1.0930 C.2     1  UNL1        0.0040
     10  C          9.0450    0.4580   -1.6810 C.2     1  UNL1        0.0000
     11  C          6.9590   -0.6020   -2.1160 C.2     1  UNL1        0.0000
     12  C          8.2960   -0.4350   -2.4040 C.2     1  UNL1        0.0000
@<TRIPOS>BOND
     1    12    11    2
     2    12    10    1
     3    11     9    1
     4    10     8    2
     5     9     7    2
     6     8     7    1
     7     7     6    1
     8     1     6    1
     9     1     2    1
    10     2     4    1
    11     2     3    2
    12     4     5    1
