MODEL 1
REMARK VINA RESULT:      -7.4      0.000      0.000
REMARK SMILES O=C(O)CCc1ccccc1
REMARK SMILES IDX 4 1 2 2 1 3 3 4 5 6 6 7 7 8 11 9 8 10 10 11 9 12
REMARK H PARENT 3 5
REMARK Flexibility Score: inf
ROOT
ATOM      1  C   UNL     1       8.478  -0.633  -2.130  1.00  0.00     0.127 C 
ENDROOT
BRANCH   1   2
ATOM      2  C   UNL     1       8.487  -1.905  -2.891  1.00  0.00     0.303 C 
ATOM      3  O   UNL     1       9.553  -2.539  -3.086  1.00  0.00    -0.252 OA
BRANCH   2   4
ATOM      4  O   UNL     1       7.314  -2.430  -3.409  1.00  0.00    -0.481 OA
ATOM      5  H   UNL     1       6.898  -2.003  -4.241  1.00  0.00     0.296 HD
ENDBRANCH   2   4
ENDBRANCH   1   2
BRANCH   1   6
ATOM      6  C   UNL     1       7.077  -0.102  -2.117  1.00  0.00     0.047 C 
BRANCH   6   7
ATOM      7  C   UNL     1       6.509   0.044  -0.777  1.00  0.00    -0.047 A 
ATOM      8  C   UNL     1       6.636  -0.961   0.153  1.00  0.00     0.004 A 
ATOM      9  C   UNL     1       5.845   1.204  -0.452  1.00  0.00     0.004 A 
ATOM     10  C   UNL     1       6.070  -0.753   1.413  1.00  0.00     0.000 A 
ATOM     11  C   UNL     1       5.286   1.408   0.794  1.00  0.00     0.000 A 
ATOM     12  C   UNL     1       5.408   0.406   1.731  1.00  0.00     0.000 A 
ENDBRANCH   6   7
ENDBRANCH   1   6
TORSDOF 4
ENDMDL
MODEL 2
REMARK VINA RESULT:      -7.3      0.135      1.442
REMARK SMILES O=C(O)CCc1ccccc1
REMARK SMILES IDX 4 1 2 2 1 3 3 4 5 6 6 7 7 8 11 9 8 10 10 11 9 12
REMARK H PARENT 3 5
REMARK Flexibility Score: inf
ROOT
ATOM      1  C   UNL     1       8.403  -0.788  -1.951  1.00  0.00     0.127 C 
ENDROOT
BRANCH   1   2
ATOM      2  C   UNL     1       8.467  -1.952  -2.865  1.00  0.00     0.303 C 
ATOM      3  O   UNL     1       9.562  -2.493  -3.156  1.00  0.00    -0.252 OA
BRANCH   2   4
ATOM      4  O   UNL     1       7.314  -2.478  -3.426  1.00  0.00    -0.481 OA
ATOM      5  H   UNL     1       6.645  -2.970  -2.827  1.00  0.00     0.296 HD
ENDBRANCH   2   4
ENDBRANCH   1   2
BRANCH   1   6
ATOM      6  C   UNL     1       7.020  -0.215  -2.013  1.00  0.00     0.047 C 
BRANCH   6   7
ATOM      7  C   UNL     1       6.430   0.057  -0.703  1.00  0.00    -0.047 A 
ATOM      8  C   UNL     1       5.798   1.252  -0.451  1.00  0.00     0.004 A 
ATOM      9  C   UNL     1       6.511  -0.900   0.281  1.00  0.00     0.004 A 
ATOM     10  C   UNL     1       5.256   1.444   0.822  1.00  0.00     0.000 A 
ATOM     11  C   UNL     1       5.975  -0.709   1.540  1.00  0.00     0.000 A 
ATOM     12  C   UNL     1       5.341   0.486   1.800  1.00  0.00     0.000 A 
ENDBRANCH   6   7
ENDBRANCH   1   6
TORSDOF 4
ENDMDL
MODEL 3
REMARK VINA RESULT:      -6.8      3.359      5.063
REMARK SMILES O=C(O)CCc1ccccc1
REMARK SMILES IDX 4 1 2 2 1 3 3 4 5 6 6 7 7 8 11 9 8 10 10 11 9 12
REMARK H PARENT 3 5
REMARK Flexibility Score: inf
ROOT
ATOM      1  C   UNL     1       5.021   1.786   0.652  1.00  0.00     0.127 C 
ENDROOT
BRANCH   1   2
ATOM      2  C   UNL     1       4.521   1.131   1.884  1.00  0.00     0.303 C 
ATOM      3  O   UNL     1       5.198   0.255   2.476  1.00  0.00    -0.252 OA
BRANCH   2   4
ATOM      4  O   UNL     1       3.288   1.471   2.418  1.00  0.00    -0.481 OA
ATOM      5  H   UNL     1       3.212   1.662   3.421  1.00  0.00     0.296 HD
ENDBRANCH   2   4
ENDBRANCH   1   2
BRANCH   1   6
ATOM      6  C   UNL     1       6.518   1.807   0.705  1.00  0.00     0.047 C 
BRANCH   6   7
ATOM      7  C   UNL     1       7.161   1.046  -0.365  1.00  0.00    -0.047 A 
ATOM      8  C   UNL     1       8.497   1.219  -0.646  1.00  0.00     0.004 A 
ATOM      9  C   UNL     1       6.415   0.149  -1.093  1.00  0.00     0.004 A 
ATOM     10  C   UNL     1       9.045   0.458  -1.681  1.00  0.00     0.000 A 
ATOM     11  C   UNL     1       6.959  -0.602  -2.116  1.00  0.00     0.000 A 
ATOM     12  C   UNL     1       8.296  -0.435  -2.404  1.00  0.00     0.000 A 
ENDBRANCH   6   7
ENDBRANCH   1   6
TORSDOF 4
ENDMDL
MODEL 4
REMARK VINA RESULT:      -6.5      2.050      2.728
REMARK SMILES O=C(O)CCc1ccccc1
REMARK SMILES IDX 4 1 2 2 1 3 3 4 5 6 6 7 7 8 11 9 8 10 10 11 9 12
REMARK H PARENT 3 5
REMARK Flexibility Score: inf
ROOT
ATOM      1  C   UNL     1       8.478   0.638  -1.734  1.00  0.00     0.127 C 
ENDROOT
BRANCH   1   2
ATOM      2  C   UNL     1       9.600   0.294  -0.829  1.00  0.00     0.303 C 
ATOM      3  O   UNL     1       9.451  -0.527   0.109  1.00  0.00    -0.252 OA
BRANCH   2   4
ATOM      4  O   UNL     1      10.848   0.872  -0.995  1.00  0.00    -0.481 OA
ATOM      5  H   UNL     1      11.063   1.747  -0.508  1.00  0.00     0.296 HD
ENDBRANCH   2   4
ENDBRANCH   1   2
BRANCH   1   6
ATOM      6  C   UNL     1       7.310  -0.236  -1.389  1.00  0.00     0.047 C 
BRANCH   6   7
ATOM      7  C   UNL     1       6.425   0.329  -0.372  1.00  0.00    -0.047 A 
ATOM      8  C   UNL     1       5.787   1.530  -0.583  1.00  0.00     0.004 A 
ATOM      9  C   UNL     1       6.232  -0.355   0.805  1.00  0.00     0.004 A 
ATOM     10  C   UNL     1       4.955   2.009   0.431  1.00  0.00     0.000 A 
ATOM     11  C   UNL     1       5.410   0.120   1.807  1.00  0.00     0.000 A 
ATOM     12  C   UNL     1       4.768   1.322   1.604  1.00  0.00     0.000 A 
ENDBRANCH   6   7
ENDBRANCH   1   6
TORSDOF 4
ENDMDL
MODEL 5
REMARK VINA RESULT:      -6.4      3.728      5.281
REMARK SMILES O=C(O)CCc1ccccc1
REMARK SMILES IDX 4 1 2 2 1 3 3 4 5 6 6 7 7 8 11 9 8 10 10 11 9 12
REMARK H PARENT 3 5
REMARK Flexibility Score: inf
ROOT
ATOM      1  C   UNL     1       5.599   2.623   0.087  1.00  0.00     0.127 C 
ENDROOT
BRANCH   1   2
ATOM      2  C   UNL     1       6.209   3.737   0.851  1.00  0.00     0.303 C 
ATOM      3  O   UNL     1       6.153   3.774   2.105  1.00  0.00    -0.252 OA
BRANCH   2   4
ATOM      4  O   UNL     1       6.861   4.771   0.198  1.00  0.00    -0.481 OA
ATOM      5  H   UNL     1       6.673   4.935  -0.795  1.00  0.00     0.296 HD
ENDBRANCH   2   4
ENDBRANCH   1   2
BRANCH   1   6
ATOM      6  C   UNL     1       6.222   1.340   0.547  1.00  0.00     0.047 C 
BRANCH   6   7
ATOM      7  C   UNL     1       7.047   0.683  -0.465  1.00  0.00    -0.047 A 
ATOM      8  C   UNL     1       8.326   1.119  -0.722  1.00  0.00     0.004 A 
ATOM      9  C   UNL     1       6.529  -0.384  -1.163  1.00  0.00     0.004 A 
ATOM     10  C   UNL     1       9.056   0.443  -1.702  1.00  0.00     0.000 A 
ATOM     11  C   UNL     1       7.253  -1.051  -2.132  1.00  0.00     0.000 A 
ATOM     12  C   UNL     1       8.535  -0.620  -2.396  1.00  0.00     0.000 A 
ENDBRANCH   6   7
ENDBRANCH   1   6
TORSDOF 4
ENDMDL
