@<TRIPOS>MOLECULE
/home/cewinharhar/GITHUB/reincatalyze/data/processed/docking_pred/2023_Apr_20-15:07/6eca206a948153dc2868ed9d680cd756ab453321_ligand_2.pdbqt
 12 12 0 0 0
SMALL
GASTEIGER

@<TRIPOS>ATOM
      1  C          8.1680    0.2200   -2.0930 C.3     1  UNL1        0.1270
      2  C          9.3350    0.3450   -1.1890 C.2     1  UNL1        0.3030
      3  O          9.4680   -0.4050   -0.1910 O.2     1  UNL1       -0.2520
      4  O         10.3150    1.2960   -1.4220 O.3     1  UNL1       -0.4810
      5  H         11.2810    0.9940   -1.5720 H       1  UNL1        0.2960
      6  C          7.1250   -0.6060   -1.4040 C.3     1  UNL1        0.0470
      7  C          6.3440    0.1300   -0.4110 C.2     1  UNL1       -0.0470
      8  C          5.8190    1.3670   -0.7050 C.2     1  UNL1        0.0040
      9  C          6.1340   -0.4300    0.8280 C.2     1  UNL1        0.0040
     10  C          5.0830    2.0120    0.2910 C.2     1  UNL1        0.0000
     11  C          5.4060    0.2090    1.8110 C.2     1  UNL1        0.0000
     12  C          4.8780    1.4490    1.5250 C.2     1  UNL1        0.0000
@<TRIPOS>BOND
     1     1     6    1
     2     1     2    1
     3     5     4    1
     4     4     2    1
     5     6     7    1
     6     2     3    2
     7     8     7    2
     8     8    10    1
     9     7     9    1
    10    10    12    2
    11     9    11    2
    12    12    11    1
