@<TRIPOS>MOLECULE
/home/cewinharhar/GITHUB/reincatalyze/data/processed/docking_pred/2023_Apr_20-15:07/6eca206a948153dc2868ed9d680cd756ab453321_ligand_2.pdbqt
 12 12 0 0 0
SMALL
GASTEIGER

@<TRIPOS>ATOM
      1  C          8.4260   -0.5790   -2.1750 C.3     1  UNL1        0.1270
      2  C          8.4050   -1.8660   -2.9100 C.2     1  UNL1        0.3030
      3  O          7.3220   -2.4180   -3.2250 O.2     1  UNL1       -0.2520
      4  O          9.5850   -2.4960   -3.2720 O.3     1  UNL1       -0.4810
      5  H         10.4540   -1.9550   -3.2990 H       1  UNL1        0.2960
      6  C          7.0270   -0.0450   -2.1230 C.3     1  UNL1        0.0470
      7  C          6.4840    0.0680   -0.7700 C.2     1  UNL1       -0.0470
      8  C          6.5850   -0.9780    0.1180 C.2     1  UNL1        0.0040
      9  C          5.8680    1.2370   -0.3890 C.2     1  UNL1        0.0040
     10  C          6.0440   -0.8000    1.3930 C.2     1  UNL1        0.0000
     11  C          5.3340    1.4110    0.8720 C.2     1  UNL1        0.0000
     12  C          5.4300    0.3680    1.7670 C.2     1  UNL1        0.0000
@<TRIPOS>BOND
     1     5     4    1
     2     4     2    1
     3     3     2    2
     4     2     1    1
     5     1     6    1
     6     6     7    1
     7     7     9    2
     8     7     8    1
     9     9    11    1
    10     8    10    2
    11    11    12    2
    12    10    12    1
