@<TRIPOS>MOLECULE
/home/cewinharhar/GITHUB/reincatalyze/data/processed/docking_pred/2023_Apr_20-15:07/6eca206a948153dc2868ed9d680cd756ab453321_ligand_2.pdbqt
 12 12 0 0 0
SMALL
GASTEIGER

@<TRIPOS>ATOM
      1  C          5.3160    2.8580    0.0750 C.3     1  UNL1        0.1270
      2  C          6.1770    3.7650    0.8710 C.2     1  UNL1        0.3030
      3  O          6.2720    3.6450    2.1170 O.2     1  UNL1       -0.2520
      4  O          6.9020    4.7750    0.2580 O.3     1  UNL1       -0.4810
      5  H          7.5360    4.5400   -0.5100 H       1  UNL1        0.2960
      6  C          5.2520    1.5350    0.7760 C.3     1  UNL1        0.0470
      7  C          6.0470    0.4860    0.1400 C.2     1  UNL1       -0.0470
      8  C          6.3490    0.5480   -1.2000 C.2     1  UNL1        0.0040
      9  C          6.4940   -0.5710    0.8990 C.2     1  UNL1        0.0040
     10  C          7.1140   -0.4880   -1.7410 C.2     1  UNL1        0.0000
     11  C          7.2490   -1.5950    0.3620 C.2     1  UNL1        0.0000
     12  C          7.5560   -1.5400   -0.9800 C.2     1  UNL1        0.0000
@<TRIPOS>BOND
     1    10     8    1
     2    10    12    2
     3     8     7    2
     4    12    11    1
     5     5     4    1
     6     1     6    1
     7     1     2    1
     8     7     6    1
     9     7     9    1
    10     4     2    1
    11    11     9    2
    12     2     3    2
