@<TRIPOS>MOLECULE
/home/cewinharhar/GITHUB/reincatalyze/data/processed/docking_pred/2023_Apr_20-15:07/6eca206a948153dc2868ed9d680cd756ab453321_ligand_2.pdbqt
 12 12 0 0 0
SMALL
GASTEIGER

@<TRIPOS>ATOM
      1  C          4.9950    1.8040    0.6990 C.3     1  UNL1        0.1270
      2  C          4.4910    1.1230    1.9150 C.2     1  UNL1        0.3030
      3  O          5.1630    0.2290    2.4860 O.2     1  UNL1       -0.2520
      4  O          3.2600    1.4550    2.4560 O.3     1  UNL1       -0.4810
      5  H          2.5300    0.7400    2.5170 H       1  UNL1        0.2960
      6  C          6.4930    1.8000    0.7430 C.3     1  UNL1        0.0470
      7  C          7.1180    1.0450   -0.3420 C.2     1  UNL1       -0.0470
      8  C          6.3850    0.1550   -1.0920 C.2     1  UNL1        0.0040
      9  C          8.4540    1.2350   -0.6090 C.2     1  UNL1        0.0040
     10  C          7.0470   -0.5310   -2.1130 C.2     1  UNL1        0.0000
     11  C          9.1060    0.5560   -1.6190 C.2     1  UNL1        0.0000
     12  C          8.3800   -0.3380   -2.3750 C.2     1  UNL1        0.0000
@<TRIPOS>BOND
     1    12    10    2
     2    12    11    1
     3    10     8    1
     4    11     9    2
     5     8     7    2
     6     9     7    1
     7     7     6    1
     8     1     6    1
     9     1     2    1
    10     2     4    1
    11     2     3    2
    12     4     5    1
