MODEL 1
REMARK VINA RESULT:      -7.3      0.000      0.000
REMARK SMILES O=C(O)CCc1ccccc1
REMARK SMILES IDX 4 1 2 2 1 3 3 4 5 6 6 7 7 8 11 9 8 10 10 11 9 12
REMARK H PARENT 3 5
REMARK Flexibility Score: inf
ROOT
ATOM      1  C   UNL     1       8.425  -0.594  -2.177  1.00  0.00     0.127 C 
ENDROOT
BRANCH   1   2
ATOM      2  C   UNL     1       8.460  -1.885  -2.902  1.00  0.00     0.303 C 
ATOM      3  O   UNL     1       9.540  -2.501  -3.083  1.00  0.00    -0.252 OA
BRANCH   2   4
ATOM      4  O   UNL     1       7.298  -2.450  -3.404  1.00  0.00    -0.481 OA
ATOM      5  H   UNL     1       6.484  -2.548  -2.791  1.00  0.00     0.296 HD
ENDBRANCH   2   4
ENDBRANCH   1   2
BRANCH   1   6
ATOM      6  C   UNL     1       7.006  -0.114  -2.139  1.00  0.00     0.047 C 
BRANCH   6   7
ATOM      7  C   UNL     1       6.471   0.055  -0.789  1.00  0.00    -0.047 A 
ATOM      8  C   UNL     1       5.840   1.222  -0.423  1.00  0.00     0.004 A 
ATOM      9  C   UNL     1       6.604  -0.970   0.119  1.00  0.00     0.004 A 
ATOM     10  C   UNL     1       5.353   1.313   0.883  1.00  0.00     0.000 A 
ATOM     11  C   UNL     1       6.122  -0.878   1.410  1.00  0.00     0.000 A 
ATOM     12  C   UNL     1       5.489   0.288   1.784  1.00  0.00     0.000 A 
ENDBRANCH   6   7
ENDBRANCH   1   6
TORSDOF 4
ENDMDL
MODEL 2
REMARK VINA RESULT:      -7.2      0.103      1.730
REMARK SMILES O=C(O)CCc1ccccc1
REMARK SMILES IDX 4 1 2 2 1 3 3 4 5 6 6 7 7 8 11 9 8 10 10 11 9 12
REMARK H PARENT 3 5
REMARK Flexibility Score: inf
ROOT
ATOM      1  C   UNL     1       8.426  -0.579  -2.175  1.00  0.00     0.127 C 
ENDROOT
BRANCH   1   2
ATOM      2  C   UNL     1       8.405  -1.866  -2.910  1.00  0.00     0.303 C 
ATOM      3  O   UNL     1       7.322  -2.418  -3.225  1.00  0.00    -0.252 OA
BRANCH   2   4
ATOM      4  O   UNL     1       9.585  -2.496  -3.272  1.00  0.00    -0.481 OA
ATOM      5  H   UNL     1      10.454  -1.955  -3.299  1.00  0.00     0.296 HD
ENDBRANCH   2   4
ENDBRANCH   1   2
BRANCH   1   6
ATOM      6  C   UNL     1       7.027  -0.045  -2.123  1.00  0.00     0.047 C 
BRANCH   6   7
ATOM      7  C   UNL     1       6.484   0.068  -0.770  1.00  0.00    -0.047 A 
ATOM      8  C   UNL     1       6.585  -0.978   0.118  1.00  0.00     0.004 A 
ATOM      9  C   UNL     1       5.868   1.237  -0.389  1.00  0.00     0.004 A 
ATOM     10  C   UNL     1       6.044  -0.800   1.393  1.00  0.00     0.000 A 
ATOM     11  C   UNL     1       5.334   1.411   0.872  1.00  0.00     0.000 A 
ATOM     12  C   UNL     1       5.430   0.368   1.767  1.00  0.00     0.000 A 
ENDBRANCH   6   7
ENDBRANCH   1   6
TORSDOF 4
ENDMDL
MODEL 3
REMARK VINA RESULT:      -6.8      3.377      5.074
REMARK SMILES O=C(O)CCc1ccccc1
REMARK SMILES IDX 4 1 2 2 1 3 3 4 5 6 6 7 7 8 11 9 8 10 10 11 9 12
REMARK H PARENT 3 5
REMARK Flexibility Score: inf
ROOT
ATOM      1  C   UNL     1       4.995   1.804   0.699  1.00  0.00     0.127 C 
ENDROOT
BRANCH   1   2
ATOM      2  C   UNL     1       4.491   1.123   1.915  1.00  0.00     0.303 C 
ATOM      3  O   UNL     1       5.163   0.229   2.486  1.00  0.00    -0.252 OA
BRANCH   2   4
ATOM      4  O   UNL     1       3.260   1.455   2.456  1.00  0.00    -0.481 OA
ATOM      5  H   UNL     1       2.530   0.740   2.517  1.00  0.00     0.296 HD
ENDBRANCH   2   4
ENDBRANCH   1   2
BRANCH   1   6
ATOM      6  C   UNL     1       6.493   1.800   0.743  1.00  0.00     0.047 C 
BRANCH   6   7
ATOM      7  C   UNL     1       7.118   1.045  -0.342  1.00  0.00    -0.047 A 
ATOM      8  C   UNL     1       6.385   0.155  -1.092  1.00  0.00     0.004 A 
ATOM      9  C   UNL     1       8.454   1.235  -0.609  1.00  0.00     0.004 A 
ATOM     10  C   UNL     1       7.047  -0.531  -2.113  1.00  0.00     0.000 A 
ATOM     11  C   UNL     1       9.106   0.556  -1.619  1.00  0.00     0.000 A 
ATOM     12  C   UNL     1       8.380  -0.338  -2.375  1.00  0.00     0.000 A 
ENDBRANCH   6   7
ENDBRANCH   1   6
TORSDOF 4
ENDMDL
MODEL 4
REMARK VINA RESULT:      -6.6      1.935      2.254
REMARK SMILES O=C(O)CCc1ccccc1
REMARK SMILES IDX 4 1 2 2 1 3 3 4 5 6 6 7 7 8 11 9 8 10 10 11 9 12
REMARK H PARENT 3 5
REMARK Flexibility Score: inf
ROOT
ATOM      1  C   UNL     1       8.168   0.220  -2.093  1.00  0.00     0.127 C 
ENDROOT
BRANCH   1   2
ATOM      2  C   UNL     1       9.335   0.345  -1.189  1.00  0.00     0.303 C 
ATOM      3  O   UNL     1       9.468  -0.405  -0.191  1.00  0.00    -0.252 OA
BRANCH   2   4
ATOM      4  O   UNL     1      10.315   1.296  -1.422  1.00  0.00    -0.481 OA
ATOM      5  H   UNL     1      11.281   0.994  -1.572  1.00  0.00     0.296 HD
ENDBRANCH   2   4
ENDBRANCH   1   2
BRANCH   1   6
ATOM      6  C   UNL     1       7.125  -0.606  -1.404  1.00  0.00     0.047 C 
BRANCH   6   7
ATOM      7  C   UNL     1       6.344   0.130  -0.411  1.00  0.00    -0.047 A 
ATOM      8  C   UNL     1       5.819   1.367  -0.705  1.00  0.00     0.004 A 
ATOM      9  C   UNL     1       6.134  -0.430   0.828  1.00  0.00     0.004 A 
ATOM     10  C   UNL     1       5.083   2.012   0.291  1.00  0.00     0.000 A 
ATOM     11  C   UNL     1       5.406   0.209   1.811  1.00  0.00     0.000 A 
ATOM     12  C   UNL     1       4.878   1.449   1.525  1.00  0.00     0.000 A 
ENDBRANCH   6   7
ENDBRANCH   1   6
TORSDOF 4
ENDMDL
MODEL 5
REMARK VINA RESULT:      -6.6      3.689      4.938
REMARK SMILES O=C(O)CCc1ccccc1
REMARK SMILES IDX 4 1 2 2 1 3 3 4 5 6 6 7 7 8 11 9 8 10 10 11 9 12
REMARK H PARENT 3 5
REMARK Flexibility Score: inf
ROOT
ATOM      1  C   UNL     1       5.316   2.858   0.075  1.00  0.00     0.127 C 
ENDROOT
BRANCH   1   2
ATOM      2  C   UNL     1       6.177   3.765   0.871  1.00  0.00     0.303 C 
ATOM      3  O   UNL     1       6.272   3.645   2.117  1.00  0.00    -0.252 OA
BRANCH   2   4
ATOM      4  O   UNL     1       6.902   4.775   0.258  1.00  0.00    -0.481 OA
ATOM      5  H   UNL     1       7.536   4.540  -0.510  1.00  0.00     0.296 HD
ENDBRANCH   2   4
ENDBRANCH   1   2
BRANCH   1   6
ATOM      6  C   UNL     1       5.252   1.535   0.776  1.00  0.00     0.047 C 
BRANCH   6   7
ATOM      7  C   UNL     1       6.047   0.486   0.140  1.00  0.00    -0.047 A 
ATOM      8  C   UNL     1       6.349   0.548  -1.200  1.00  0.00     0.004 A 
ATOM      9  C   UNL     1       6.494  -0.571   0.899  1.00  0.00     0.004 A 
ATOM     10  C   UNL     1       7.114  -0.488  -1.741  1.00  0.00     0.000 A 
ATOM     11  C   UNL     1       7.249  -1.595   0.362  1.00  0.00     0.000 A 
ATOM     12  C   UNL     1       7.556  -1.540  -0.980  1.00  0.00     0.000 A 
ENDBRANCH   6   7
ENDBRANCH   1   6
TORSDOF 4
ENDMDL
