@<TRIPOS>MOLECULE
/home/cewinharhar/GITHUB/reincatalyze/data/processed/docking_pred/2023_Apr_20-15:07/6eca206a948153dc2868ed9d680cd756ab453321_ligand_2.pdbqt
 12 12 0 0 0
SMALL
GASTEIGER

@<TRIPOS>ATOM
      1  C          8.4250   -0.5940   -2.1770 C.3     1  UNL1        0.1270
      2  C          8.4600   -1.8850   -2.9020 C.2     1  UNL1        0.3030
      3  O          9.5400   -2.5010   -3.0830 O.2     1  UNL1       -0.2520
      4  O          7.2980   -2.4500   -3.4040 O.3     1  UNL1       -0.4810
      5  H          6.4840   -2.5480   -2.7910 H       1  UNL1        0.2960
      6  C          7.0060   -0.1140   -2.1390 C.3     1  UNL1        0.0470
      7  C          6.4710    0.0550   -0.7890 C.2     1  UNL1       -0.0470
      8  C          5.8400    1.2220   -0.4230 C.2     1  UNL1        0.0040
      9  C          6.6040   -0.9700    0.1190 C.2     1  UNL1        0.0040
     10  C          5.3530    1.3130    0.8830 C.2     1  UNL1        0.0000
     11  C          6.1220   -0.8780    1.4100 C.2     1  UNL1        0.0000
     12  C          5.4890    0.2880    1.7840 C.2     1  UNL1        0.0000
@<TRIPOS>BOND
     1     4     2    1
     2     4     5    1
     3     3     2    2
     4     2     1    1
     5     1     6    1
     6     6     7    1
     7     7     8    2
     8     7     9    1
     9     8    10    1
    10     9    11    2
    11    10    12    2
    12    11    12    1
