@<TRIPOS>MOLECULE
/home/cewinharhar/GITHUB/reincatalyze/data/processed/docking_pred/2023_Apr_20-15:07/7076afde4386affa59e586c5ec9b2181426a643f_ligand_2.pdbqt
 12 12 0 0 0
SMALL
GASTEIGER

@<TRIPOS>ATOM
      1  C          4.9700    1.8350    0.7150 C.3     1  UNL1        0.1270
      2  C          4.4740    1.1210    1.9150 C.2     1  UNL1        0.3030
      3  O          5.1490    0.2090    2.4540 O.2     1  UNL1       -0.2520
      4  O          3.2490    1.4410    2.4770 O.3     1  UNL1       -0.4810
      5  H          3.1930    1.6320    3.4810 H       1  UNL1        0.2960
      6  C          6.4670    1.8360    0.7520 C.3     1  UNL1        0.0470
      7  C          7.0900    1.0890   -0.3390 C.2     1  UNL1       -0.0470
      8  C          6.3420    0.2500   -1.1330 C.2     1  UNL1        0.0040
      9  C          8.4380    1.2340   -0.5690 C.2     1  UNL1        0.0040
     10  C          7.0030   -0.4320   -2.1580 C.2     1  UNL1        0.0000
     11  C          9.0900    0.5590   -1.5820 C.2     1  UNL1        0.0000
     12  C          8.3490   -0.2840   -2.3820 C.2     1  UNL1        0.0000
@<TRIPOS>BOND
     1    12    10    2
     2    12    11    1
     3    10     8    1
     4    11     9    2
     5     8     7    2
     6     9     7    1
     7     7     6    1
     8     1     6    1
     9     1     2    1
    10     2     3    2
    11     2     4    1
    12     4     5    1
