@<TRIPOS>MOLECULE
/home/cewinharhar/GITHUB/reincatalyze/data/processed/docking_pred/2023_Apr_20-15:07/7076afde4386affa59e586c5ec9b2181426a643f_ligand_2.pdbqt
 12 12 0 0 0
SMALL
GASTEIGER

@<TRIPOS>ATOM
      1  C          8.3040    0.2870   -2.1100 C.3     1  UNL1        0.1270
      2  C          9.4210    0.3410   -1.1380 C.2     1  UNL1        0.3030
      3  O          9.4570   -0.4270   -0.1450 O.2     1  UNL1       -0.2520
      4  O         10.4590    1.2440   -1.2990 O.3     1  UNL1       -0.4810
      5  H         10.3130    2.2250   -1.0440 H       1  UNL1        0.2960
      6  C          7.1730   -0.4740   -1.4860 C.3     1  UNL1        0.0470
      7  C          6.3560    0.3200   -0.5700 C.2     1  UNL1       -0.0470
      8  C          5.8090    1.5160   -0.9720 C.2     1  UNL1        0.0040
      9  C          6.1360   -0.1440    0.7060 C.2     1  UNL1        0.0040
     10  C          5.0390    2.2210   -0.0450 C.2     1  UNL1        0.0000
     11  C          5.3740    0.5550    1.6220 C.2     1  UNL1        0.0000
     12  C          4.8230    1.7540    1.2270 C.2     1  UNL1        0.0000
@<TRIPOS>BOND
     1     1     6    1
     2     1     2    1
     3     6     7    1
     4     4     2    1
     5     4     5    1
     6     2     3    2
     7     8     7    2
     8     8    10    1
     9     7     9    1
    10    10    12    2
    11     9    11    2
    12    12    11    1
