@<TRIPOS>MOLECULE
/home/cewinharhar/GITHUB/reincatalyze/data/processed/docking_pred/2023_Apr_20-15:07/7076afde4386affa59e586c5ec9b2181426a643f_ligand_2.pdbqt
 12 12 0 0 0
SMALL
GASTEIGER

@<TRIPOS>ATOM
      1  C          8.4030   -0.5940   -2.1720 C.3     1  UNL1        0.1270
      2  C          8.4610   -1.8830   -2.9010 C.2     1  UNL1        0.3030
      3  O          9.5480   -2.4910   -3.0620 O.2     1  UNL1       -0.2520
      4  O          7.3130   -2.4530   -3.4260 O.3     1  UNL1       -0.4810
      5  H          6.4260   -2.3450   -2.9260 H       1  UNL1        0.2960
      6  C          6.9760   -0.1390   -2.1310 C.3     1  UNL1        0.0470
      7  C          6.4500    0.0490   -0.7810 C.2     1  UNL1       -0.0470
      8  C          5.8250    1.2220   -0.4260 C.2     1  UNL1        0.0040
      9  C          6.5840   -0.9650    0.1390 C.2     1  UNL1        0.0040
     10  C          5.3460    1.3320    0.8810 C.2     1  UNL1        0.0000
     11  C          6.1100   -0.8550    1.4310 C.2     1  UNL1        0.0000
     12  C          5.4830    0.3170    1.7950 C.2     1  UNL1        0.0000
@<TRIPOS>BOND
     1     4     5    1
     2     4     2    1
     3     3     2    2
     4     2     1    1
     5     1     6    1
     6     6     7    1
     7     7     8    2
     8     7     9    1
     9     8    10    1
    10     9    11    2
    11    10    12    2
    12    11    12    1
