@<TRIPOS>MOLECULE
/home/cewinharhar/GITHUB/reincatalyze/data/processed/docking_pred/2023_Apr_20-15:07/7076afde4386affa59e586c5ec9b2181426a643f_ligand_2.pdbqt
 12 12 0 0 0
SMALL
GASTEIGER

@<TRIPOS>ATOM
      1  C          5.3280    2.9720    0.0600 C.3     1  UNL1        0.1270
      2  C          6.2120    3.8780    0.8300 C.2     1  UNL1        0.3030
      3  O          6.8920    4.7650    0.2570 O.2     1  UNL1       -0.2520
      4  O          6.3120    3.7710    2.2080 O.3     1  UNL1       -0.4810
      5  H          6.6030    2.8800    2.6210 H       1  UNL1        0.2960
      6  C          5.2160    1.6770    0.8070 C.3     1  UNL1        0.0470
      7  C          5.9880    0.5830    0.2190 C.2     1  UNL1       -0.0470
      8  C          6.4010   -0.4790    0.9890 C.2     1  UNL1        0.0040
      9  C          6.2970    0.6240   -1.1210 C.2     1  UNL1        0.0040
     10  C          7.1340   -1.4880    0.3610 C.2     1  UNL1        0.0000
     11  C          7.0220   -0.3750   -1.7400 C.2     1  UNL1        0.0000
     12  C          7.4410   -1.4420   -0.9750 C.2     1  UNL1        0.0000
@<TRIPOS>BOND
     1    11     9    1
     2    11    12    2
     3     9     7    2
     4    12    10    1
     5     1     6    1
     6     1     2    1
     7     7     6    1
     8     7     8    1
     9     3     2    2
    10    10     8    2
    11     2     4    1
    12     4     5    1
