@<TRIPOS>MOLECULE
/home/cewinharhar/GITHUB/reincatalyze/data/processed/docking_pred/2023_Apr_20-15:07/7473f82790d6809f011fa27bf7bcba9a4b9bdb46_ligand_2.pdbqt
 12 12 0 0 0
SMALL
GASTEIGER

@<TRIPOS>ATOM
      1  C          8.3730   -0.5960   -2.1390 C.3     1  UNL1        0.1270
      2  C          8.3580   -1.8660   -2.9010 C.2     1  UNL1        0.3030
      3  O          7.2780   -2.4000   -3.2550 O.2     1  UNL1       -0.2520
      4  O          9.5400   -2.5020   -3.2460 O.3     1  UNL1       -0.4810
      5  H         10.2610   -2.6390   -2.5320 H       1  UNL1        0.2960
      6  C          6.9750   -0.0570   -2.0930 C.3     1  UNL1        0.0470
      7  C          6.4390    0.0890   -0.7410 C.2     1  UNL1       -0.0470
      8  C          5.8100    1.2510   -0.3560 C.2     1  UNL1        0.0040
      9  C          6.5670   -0.9520    0.1480 C.2     1  UNL1        0.0040
     10  C          5.3210    1.3210    0.9500 C.2     1  UNL1        0.0000
     11  C          6.0830   -0.8810    1.4390 C.2     1  UNL1        0.0000
     12  C          5.4520    0.2790    1.8330 C.2     1  UNL1        0.0000
@<TRIPOS>BOND
     1     3     2    2
     2     4     2    1
     3     4     5    1
     4     2     1    1
     5     1     6    1
     6     6     7    1
     7     7     8    2
     8     7     9    1
     9     8    10    1
    10     9    11    2
    11    10    12    2
    12    11    12    1
