@<TRIPOS>MOLECULE
/home/cewinharhar/GITHUB/reincatalyze/data/processed/docking_pred/2023_Apr_20-15:07/7473f82790d6809f011fa27bf7bcba9a4b9bdb46_ligand_2.pdbqt
 12 12 0 0 0
SMALL
GASTEIGER

@<TRIPOS>ATOM
      1  C          8.4480   -0.6050   -2.1570 C.3     1  UNL1        0.1270
      2  C          8.4050   -1.8870   -2.8990 C.2     1  UNL1        0.3030
      3  O          7.3120   -2.4180   -3.2180 O.2     1  UNL1       -0.2520
      4  O          9.5740   -2.5380   -3.2610 O.3     1  UNL1       -0.4810
      5  H          9.5750   -3.1430   -4.0860 H       1  UNL1        0.2960
      6  C          7.0630   -0.0350   -2.1210 C.3     1  UNL1        0.0470
      7  C          6.5060    0.0900   -0.7760 C.2     1  UNL1       -0.0470
      8  C          6.6380   -0.9290    0.1380 C.2     1  UNL1        0.0040
      9  C          5.8460    1.2460   -0.4270 C.2     1  UNL1        0.0040
     10  C          6.0810   -0.7400    1.4050 C.2     1  UNL1        0.0000
     11  C          5.2960    1.4310    0.8260 C.2     1  UNL1        0.0000
     12  C          5.4230    0.4140    1.7470 C.2     1  UNL1        0.0000
@<TRIPOS>BOND
     1     5     4    1
     2     4     2    1
     3     3     2    2
     4     2     1    1
     5     1     6    1
     6     6     7    1
     7     7     9    2
     8     7     8    1
     9     9    11    1
    10     8    10    2
    11    11    12    2
    12    10    12    1
