@<TRIPOS>MOLECULE
/home/cewinharhar/GITHUB/reincatalyze/data/processed/docking_pred/2023_Apr_20-15:07/7473f82790d6809f011fa27bf7bcba9a4b9bdb46_ligand_2.pdbqt
 12 12 0 0 0
SMALL
GASTEIGER

@<TRIPOS>ATOM
      1  C          5.3400    2.8470    0.1070 C.3     1  UNL1        0.1270
      2  C          6.1920    3.7710    0.8920 C.2     1  UNL1        0.3030
      3  O          6.2820    3.6720    2.1400 O.2     1  UNL1       -0.2520
      4  O          6.9150    4.7740    0.2660 O.3     1  UNL1       -0.4810
      5  H          7.7920    4.5390   -0.2070 H       1  UNL1        0.2960
      6  C          5.3330    1.5150    0.7940 C.3     1  UNL1        0.0470
      7  C          6.0730    0.4750    0.0820 C.2     1  UNL1       -0.0470
      8  C          6.5200   -0.6460    0.7410 C.2     1  UNL1        0.0040
      9  C          6.3180    0.6270   -1.2630 C.2     1  UNL1        0.0040
     10  C          7.2190   -1.6000   -0.0020 C.2     1  UNL1        0.0000
     11  C          7.0100   -0.3160   -1.9970 C.2     1  UNL1        0.0000
     12  C          7.4620   -1.4430   -1.3440 C.2     1  UNL1        0.0000
@<TRIPOS>BOND
     1    11    12    2
     2    11     9    1
     3    12    10    1
     4     9     7    2
     5     5     4    1
     6    10     8    2
     7     7     8    1
     8     7     6    1
     9     1     6    1
    10     1     2    1
    11     4     2    1
    12     2     3    2
