@<TRIPOS>MOLECULE
/home/cewinharhar/GITHUB/reincatalyze/data/processed/docking_pred/2023_Apr_20-15:07/7473f82790d6809f011fa27bf7bcba9a4b9bdb46_ligand_2.pdbqt
 12 12 0 0 0
SMALL
GASTEIGER

@<TRIPOS>ATOM
      1  C          8.2310    0.2600   -2.2230 C.3     1  UNL1        0.1270
      2  C          9.3510    0.3610   -1.2580 C.2     1  UNL1        0.3030
      3  O          9.4270   -0.4060   -0.2670 O.2     1  UNL1       -0.2520
      4  O         10.3490    1.3080   -1.4250 O.3     1  UNL1       -0.4810
      5  H         10.2500    2.2230   -0.9770 H       1  UNL1        0.2960
      6  C          7.1110   -0.4890   -1.5680 C.3     1  UNL1        0.0470
      7  C          6.3280    0.3140   -0.6300 C.2     1  UNL1       -0.0470
      8  C          5.8020    1.5270   -1.0110 C.2     1  UNL1        0.0040
      9  C          6.1190   -0.1570    0.6450 C.2     1  UNL1        0.0040
     10  C          5.0640    2.2400   -0.0630 C.2     1  UNL1        0.0000
     11  C          5.3890    0.5490    1.5810 C.2     1  UNL1        0.0000
     12  C          4.8590    1.7650    1.2080 C.2     1  UNL1        0.0000
@<TRIPOS>BOND
     1     1     6    1
     2     1     2    1
     3     6     7    1
     4     4     2    1
     5     4     5    1
     6     2     3    2
     7     8     7    2
     8     8    10    1
     9     7     9    1
    10    10    12    2
    11     9    11    2
    12    12    11    1
