MODEL 1
REMARK VINA RESULT:      -7.2      0.000      0.000
REMARK SMILES O=C(O)CCc1ccccc1
REMARK SMILES IDX 4 1 2 2 1 3 3 4 5 6 6 7 7 8 11 9 8 10 10 11 9 12
REMARK H PARENT 3 5
REMARK Flexibility Score: inf
ROOT
ATOM      1  C   UNL     1       8.448  -0.605  -2.157  1.00  0.00     0.127 C 
ENDROOT
BRANCH   1   2
ATOM      2  C   UNL     1       8.405  -1.887  -2.899  1.00  0.00     0.303 C 
ATOM      3  O   UNL     1       7.312  -2.418  -3.218  1.00  0.00    -0.252 OA
BRANCH   2   4
ATOM      4  O   UNL     1       9.574  -2.538  -3.261  1.00  0.00    -0.481 OA
ATOM      5  H   UNL     1       9.575  -3.143  -4.086  1.00  0.00     0.296 HD
ENDBRANCH   2   4
ENDBRANCH   1   2
BRANCH   1   6
ATOM      6  C   UNL     1       7.063  -0.035  -2.121  1.00  0.00     0.047 C 
BRANCH   6   7
ATOM      7  C   UNL     1       6.506   0.090  -0.776  1.00  0.00    -0.047 A 
ATOM      8  C   UNL     1       6.638  -0.929   0.138  1.00  0.00     0.004 A 
ATOM      9  C   UNL     1       5.846   1.246  -0.427  1.00  0.00     0.004 A 
ATOM     10  C   UNL     1       6.081  -0.740   1.405  1.00  0.00     0.000 A 
ATOM     11  C   UNL     1       5.296   1.431   0.826  1.00  0.00     0.000 A 
ATOM     12  C   UNL     1       5.423   0.414   1.747  1.00  0.00     0.000 A 
ENDBRANCH   6   7
ENDBRANCH   1   6
TORSDOF 4
ENDMDL
MODEL 2
REMARK VINA RESULT:      -7.2      0.103      1.440
REMARK SMILES O=C(O)CCc1ccccc1
REMARK SMILES IDX 4 1 2 2 1 3 3 4 5 6 6 7 7 8 11 9 8 10 10 11 9 12
REMARK H PARENT 3 5
REMARK Flexibility Score: inf
ROOT
ATOM      1  C   UNL     1       8.373  -0.596  -2.139  1.00  0.00     0.127 C 
ENDROOT
BRANCH   1   2
ATOM      2  C   UNL     1       8.358  -1.866  -2.901  1.00  0.00     0.303 C 
ATOM      3  O   UNL     1       7.278  -2.400  -3.255  1.00  0.00    -0.252 OA
BRANCH   2   4
ATOM      4  O   UNL     1       9.540  -2.502  -3.246  1.00  0.00    -0.481 OA
ATOM      5  H   UNL     1      10.261  -2.639  -2.532  1.00  0.00     0.296 HD
ENDBRANCH   2   4
ENDBRANCH   1   2
BRANCH   1   6
ATOM      6  C   UNL     1       6.975  -0.057  -2.093  1.00  0.00     0.047 C 
BRANCH   6   7
ATOM      7  C   UNL     1       6.439   0.089  -0.741  1.00  0.00    -0.047 A 
ATOM      8  C   UNL     1       5.810   1.251  -0.356  1.00  0.00     0.004 A 
ATOM      9  C   UNL     1       6.567  -0.952   0.148  1.00  0.00     0.004 A 
ATOM     10  C   UNL     1       5.321   1.321   0.950  1.00  0.00     0.000 A 
ATOM     11  C   UNL     1       6.083  -0.881   1.439  1.00  0.00     0.000 A 
ATOM     12  C   UNL     1       5.452   0.279   1.833  1.00  0.00     0.000 A 
ENDBRANCH   6   7
ENDBRANCH   1   6
TORSDOF 4
ENDMDL
MODEL 3
REMARK VINA RESULT:      -6.8      3.306      5.130
REMARK SMILES O=C(O)CCc1ccccc1
REMARK SMILES IDX 4 1 2 2 1 3 3 4 5 6 6 7 7 8 11 9 8 10 10 11 9 12
REMARK H PARENT 3 5
REMARK Flexibility Score: inf
ROOT
ATOM      1  C   UNL     1       5.000   1.796   0.721  1.00  0.00     0.127 C 
ENDROOT
BRANCH   1   2
ATOM      2  C   UNL     1       4.474   1.111   1.924  1.00  0.00     0.303 C 
ATOM      3  O   UNL     1       5.124   0.196   2.488  1.00  0.00    -0.252 OA
BRANCH   2   4
ATOM      4  O   UNL     1       3.246   1.461   2.462  1.00  0.00    -0.481 OA
ATOM      5  H   UNL     1       3.142   2.369   2.924  1.00  0.00     0.296 HD
ENDBRANCH   2   4
ENDBRANCH   1   2
BRANCH   1   6
ATOM      6  C   UNL     1       6.497   1.757   0.773  1.00  0.00     0.047 C 
BRANCH   6   7
ATOM      7  C   UNL     1       7.111   1.008  -0.323  1.00  0.00    -0.047 A 
ATOM      8  C   UNL     1       6.383   0.085  -1.038  1.00  0.00     0.004 A 
ATOM      9  C   UNL     1       8.431   1.236  -0.636  1.00  0.00     0.004 A 
ATOM     10  C   UNL     1       7.033  -0.593  -2.072  1.00  0.00     0.000 A 
ATOM     11  C   UNL     1       9.072   0.565  -1.658  1.00  0.00     0.000 A 
ATOM     12  C   UNL     1       8.350  -0.361  -2.379  1.00  0.00     0.000 A 
ENDBRANCH   6   7
ENDBRANCH   1   6
TORSDOF 4
ENDMDL
MODEL 4
REMARK VINA RESULT:      -6.6      1.912      2.579
REMARK SMILES O=C(O)CCc1ccccc1
REMARK SMILES IDX 4 1 2 2 1 3 3 4 5 6 6 7 7 8 11 9 8 10 10 11 9 12
REMARK H PARENT 3 5
REMARK Flexibility Score: inf
ROOT
ATOM      1  C   UNL     1       8.231   0.260  -2.223  1.00  0.00     0.127 C 
ENDROOT
BRANCH   1   2
ATOM      2  C   UNL     1       9.351   0.361  -1.258  1.00  0.00     0.303 C 
ATOM      3  O   UNL     1       9.427  -0.406  -0.267  1.00  0.00    -0.252 OA
BRANCH   2   4
ATOM      4  O   UNL     1      10.349   1.308  -1.425  1.00  0.00    -0.481 OA
ATOM      5  H   UNL     1      10.250   2.223  -0.977  1.00  0.00     0.296 HD
ENDBRANCH   2   4
ENDBRANCH   1   2
BRANCH   1   6
ATOM      6  C   UNL     1       7.111  -0.489  -1.568  1.00  0.00     0.047 C 
BRANCH   6   7
ATOM      7  C   UNL     1       6.328   0.314  -0.630  1.00  0.00    -0.047 A 
ATOM      8  C   UNL     1       5.802   1.527  -1.011  1.00  0.00     0.004 A 
ATOM      9  C   UNL     1       6.119  -0.157   0.645  1.00  0.00     0.004 A 
ATOM     10  C   UNL     1       5.064   2.240  -0.063  1.00  0.00     0.000 A 
ATOM     11  C   UNL     1       5.389   0.549   1.581  1.00  0.00     0.000 A 
ATOM     12  C   UNL     1       4.859   1.765   1.208  1.00  0.00     0.000 A 
ENDBRANCH   6   7
ENDBRANCH   1   6
TORSDOF 4
ENDMDL
MODEL 5
REMARK VINA RESULT:      -6.5      3.661      4.951
REMARK SMILES O=C(O)CCc1ccccc1
REMARK SMILES IDX 4 1 2 2 1 3 3 4 5 6 6 7 7 8 11 9 8 10 10 11 9 12
REMARK H PARENT 3 5
REMARK Flexibility Score: inf
ROOT
ATOM      1  C   UNL     1       5.340   2.847   0.107  1.00  0.00     0.127 C 
ENDROOT
BRANCH   1   2
ATOM      2  C   UNL     1       6.192   3.771   0.892  1.00  0.00     0.303 C 
ATOM      3  O   UNL     1       6.282   3.672   2.140  1.00  0.00    -0.252 OA
BRANCH   2   4
ATOM      4  O   UNL     1       6.915   4.774   0.266  1.00  0.00    -0.481 OA
ATOM      5  H   UNL     1       7.792   4.539  -0.207  1.00  0.00     0.296 HD
ENDBRANCH   2   4
ENDBRANCH   1   2
BRANCH   1   6
ATOM      6  C   UNL     1       5.333   1.515   0.794  1.00  0.00     0.047 C 
BRANCH   6   7
ATOM      7  C   UNL     1       6.073   0.475   0.082  1.00  0.00    -0.047 A 
ATOM      8  C   UNL     1       6.520  -0.646   0.741  1.00  0.00     0.004 A 
ATOM      9  C   UNL     1       6.318   0.627  -1.263  1.00  0.00     0.004 A 
ATOM     10  C   UNL     1       7.219  -1.600  -0.002  1.00  0.00     0.000 A 
ATOM     11  C   UNL     1       7.010  -0.316  -1.997  1.00  0.00     0.000 A 
ATOM     12  C   UNL     1       7.462  -1.443  -1.344  1.00  0.00     0.000 A 
ENDBRANCH   6   7
ENDBRANCH   1   6
TORSDOF 4
ENDMDL
