@<TRIPOS>MOLECULE
/home/cewinharhar/GITHUB/reincatalyze/data/processed/docking_pred/2023_Apr_20-15:07/7473f82790d6809f011fa27bf7bcba9a4b9bdb46_ligand_2.pdbqt
 12 12 0 0 0
SMALL
GASTEIGER

@<TRIPOS>ATOM
      1  C          5.0000    1.7960    0.7210 C.3     1  UNL1        0.1270
      2  C          4.4740    1.1110    1.9240 C.2     1  UNL1        0.3030
      3  O          5.1240    0.1960    2.4880 O.2     1  UNL1       -0.2520
      4  O          3.2460    1.4610    2.4620 O.3     1  UNL1       -0.4810
      5  H          3.1420    2.3690    2.9240 H       1  UNL1        0.2960
      6  C          6.4970    1.7570    0.7730 C.3     1  UNL1        0.0470
      7  C          7.1110    1.0080   -0.3230 C.2     1  UNL1       -0.0470
      8  C          6.3830    0.0850   -1.0380 C.2     1  UNL1        0.0040
      9  C          8.4310    1.2360   -0.6360 C.2     1  UNL1        0.0040
     10  C          7.0330   -0.5930   -2.0720 C.2     1  UNL1        0.0000
     11  C          9.0720    0.5650   -1.6580 C.2     1  UNL1        0.0000
     12  C          8.3500   -0.3610   -2.3790 C.2     1  UNL1        0.0000
@<TRIPOS>BOND
     1    12    10    2
     2    12    11    1
     3    10     8    1
     4    11     9    2
     5     8     7    2
     6     9     7    1
     7     7     6    1
     8     1     6    1
     9     1     2    1
    10     2     4    1
    11     2     3    2
    12     4     5    1
