@<TRIPOS>MOLECULE
/home/cewinharhar/GITHUB/reincatalyze/data/processed/docking_pred/2023_Apr_20-15:07/76d14433275938f70f74ce69856b36729c59e426_ligand_2.pdbqt
 12 12 0 0 0
SMALL
GASTEIGER

@<TRIPOS>ATOM
      1  C          8.4130   -0.6840   -2.0460 C.3     1  UNL1        0.1270
      2  C          8.3720   -1.9140   -2.8720 C.2     1  UNL1        0.3030
      3  O          7.2810   -2.4080   -3.2510 O.2     1  UNL1       -0.2520
      4  O          9.5410   -2.5550   -3.2490 O.3     1  UNL1       -0.4810
      5  H          9.6690   -2.8290   -4.2270 H       1  UNL1        0.2960
      6  C          7.0490   -0.0650   -2.0560 C.3     1  UNL1        0.0470
      7  C          6.4650    0.1100   -0.7270 C.2     1  UNL1       -0.0470
      8  C          5.8070    1.2710   -0.3960 C.2     1  UNL1        0.0040
      9  C          6.5800   -0.9040    0.1950 C.2     1  UNL1        0.0040
     10  C          5.2740    1.3690    0.8920 C.2     1  UNL1        0.0000
     11  C          6.0520   -0.8060    1.4670 C.2     1  UNL1        0.0000
     12  C          5.3910    0.3550    1.8080 C.2     1  UNL1        0.0000
@<TRIPOS>BOND
     1     5     4    1
     2     3     2    2
     3     4     2    1
     4     2     1    1
     5     6     1    1
     6     6     7    1
     7     7     8    2
     8     7     9    1
     9     8    10    1
    10     9    11    2
    11    10    12    2
    12    11    12    1
