@<TRIPOS>MOLECULE
/home/cewinharhar/GITHUB/reincatalyze/data/processed/docking_pred/2023_Apr_20-15:07/76d14433275938f70f74ce69856b36729c59e426_ligand_2.pdbqt
 12 12 0 0 0
SMALL
GASTEIGER

@<TRIPOS>ATOM
      1  C          8.4510   -0.6420   -2.1160 C.3     1  UNL1        0.1270
      2  C          8.4750   -1.9120   -2.8800 C.2     1  UNL1        0.3030
      3  O          9.5500   -2.5320   -3.0770 O.2     1  UNL1       -0.2520
      4  O          7.3090   -2.4520   -3.3980 O.3     1  UNL1       -0.4810
      5  H          6.6470   -1.8400   -3.8830 H       1  UNL1        0.2960
      6  C          7.0390   -0.1430   -2.0790 C.3     1  UNL1        0.0470
      7  C          6.4940    0.0000   -0.7300 C.2     1  UNL1       -0.0470
      8  C          6.6050   -1.0210    0.1850 C.2     1  UNL1        0.0040
      9  C          5.8680    1.1740   -0.3800 C.2     1  UNL1        0.0040
     10  C          6.0630   -0.8150    1.4560 C.2     1  UNL1        0.0000
     11  C          5.3320    1.3760    0.8770 C.2     1  UNL1        0.0000
     12  C          5.4380    0.3580    1.7990 C.2     1  UNL1        0.0000
@<TRIPOS>BOND
     1     5     4    1
     2     4     2    1
     3     3     2    2
     4     2     1    1
     5     1     6    1
     6     6     7    1
     7     7     9    2
     8     7     8    1
     9     9    11    1
    10     8    10    2
    11    11    12    2
    12    10    12    1
