@<TRIPOS>MOLECULE
/home/cewinharhar/GITHUB/reincatalyze/data/processed/docking_pred/2023_Apr_20-15:07/76d14433275938f70f74ce69856b36729c59e426_ligand_2.pdbqt
 12 12 0 0 0
SMALL
GASTEIGER

@<TRIPOS>ATOM
      1  C          8.3150   -0.8910   -1.9150 C.3     1  UNL1        0.1270
      2  C          8.4180   -2.0230   -2.8660 C.2     1  UNL1        0.3030
      3  O          9.5230   -2.5690   -3.1100 O.2     1  UNL1       -0.2520
      4  O          7.2950   -2.5110   -3.5140 O.3     1  UNL1       -0.4810
      5  H          6.3670   -2.2890   -3.1430 H       1  UNL1        0.2960
      6  C          7.5400   -1.3510   -0.7180 C.3     1  UNL1        0.0470
      7  C          6.6590   -0.3310   -0.1520 C.2     1  UNL1       -0.0470
      8  C          6.2940    0.7710   -0.8910 C.2     1  UNL1        0.0040
      9  C          6.1930   -0.4840    1.1330 C.2     1  UNL1        0.0040
     10  C          5.4490    1.7050   -0.2870 C.2     1  UNL1        0.0000
     11  C          5.3580    0.4400    1.7280 C.2     1  UNL1        0.0000
     12  C          4.9880    1.5470    0.9960 C.2     1  UNL1        0.0000
@<TRIPOS>BOND
     1     4     5    1
     2     4     2    1
     3     3     2    2
     4     2     1    1
     5     1     6    1
     6     8    10    1
     7     8     7    2
     8     6     7    1
     9    10    12    2
    10     7     9    1
    11    12    11    1
    12     9    11    2
