MODEL 1
REMARK VINA RESULT:      -7.3      0.000      0.000
REMARK SMILES O=C(O)CCc1ccccc1
REMARK SMILES IDX 4 1 2 2 1 3 3 4 5 6 6 7 7 8 11 9 8 10 10 11 9 12
REMARK H PARENT 3 5
REMARK Flexibility Score: inf
ROOT
ATOM      1  C   UNL     1       8.451  -0.642  -2.116  1.00  0.00     0.127 C 
ENDROOT
BRANCH   1   2
ATOM      2  C   UNL     1       8.475  -1.912  -2.880  1.00  0.00     0.303 C 
ATOM      3  O   UNL     1       9.550  -2.532  -3.077  1.00  0.00    -0.252 OA
BRANCH   2   4
ATOM      4  O   UNL     1       7.309  -2.452  -3.398  1.00  0.00    -0.481 OA
ATOM      5  H   UNL     1       6.647  -1.840  -3.883  1.00  0.00     0.296 HD
ENDBRANCH   2   4
ENDBRANCH   1   2
BRANCH   1   6
ATOM      6  C   UNL     1       7.039  -0.143  -2.079  1.00  0.00     0.047 C 
BRANCH   6   7
ATOM      7  C   UNL     1       6.494   0.000  -0.730  1.00  0.00    -0.047 A 
ATOM      8  C   UNL     1       6.605  -1.021   0.185  1.00  0.00     0.004 A 
ATOM      9  C   UNL     1       5.868   1.174  -0.380  1.00  0.00     0.004 A 
ATOM     10  C   UNL     1       6.063  -0.815   1.456  1.00  0.00     0.000 A 
ATOM     11  C   UNL     1       5.332   1.376   0.877  1.00  0.00     0.000 A 
ATOM     12  C   UNL     1       5.438   0.358   1.799  1.00  0.00     0.000 A 
ENDBRANCH   6   7
ENDBRANCH   1   6
TORSDOF 4
ENDMDL
MODEL 2
REMARK VINA RESULT:      -7.3      0.107      1.731
REMARK SMILES O=C(O)CCc1ccccc1
REMARK SMILES IDX 4 1 2 2 1 3 3 4 5 6 6 7 7 8 11 9 8 10 10 11 9 12
REMARK H PARENT 3 5
REMARK Flexibility Score: inf
ROOT
ATOM      1  C   UNL     1       8.413  -0.684  -2.046  1.00  0.00     0.127 C 
ENDROOT
BRANCH   1   2
ATOM      2  C   UNL     1       8.372  -1.914  -2.872  1.00  0.00     0.303 C 
ATOM      3  O   UNL     1       7.281  -2.408  -3.251  1.00  0.00    -0.252 OA
BRANCH   2   4
ATOM      4  O   UNL     1       9.541  -2.555  -3.249  1.00  0.00    -0.481 OA
ATOM      5  H   UNL     1       9.669  -2.829  -4.227  1.00  0.00     0.296 HD
ENDBRANCH   2   4
ENDBRANCH   1   2
BRANCH   1   6
ATOM      6  C   UNL     1       7.049  -0.065  -2.056  1.00  0.00     0.047 C 
BRANCH   6   7
ATOM      7  C   UNL     1       6.465   0.110  -0.727  1.00  0.00    -0.047 A 
ATOM      8  C   UNL     1       5.807   1.271  -0.396  1.00  0.00     0.004 A 
ATOM      9  C   UNL     1       6.580  -0.904   0.195  1.00  0.00     0.004 A 
ATOM     10  C   UNL     1       5.274   1.369   0.892  1.00  0.00     0.000 A 
ATOM     11  C   UNL     1       6.052  -0.806   1.467  1.00  0.00     0.000 A 
ATOM     12  C   UNL     1       5.391   0.355   1.808  1.00  0.00     0.000 A 
ENDBRANCH   6   7
ENDBRANCH   1   6
TORSDOF 4
ENDMDL
MODEL 3
REMARK VINA RESULT:      -7.2      0.626      1.579
REMARK SMILES O=C(O)CCc1ccccc1
REMARK SMILES IDX 4 1 2 2 1 3 3 4 5 6 6 7 7 8 11 9 8 10 10 11 9 12
REMARK H PARENT 3 5
REMARK Flexibility Score: inf
ROOT
ATOM      1  C   UNL     1       8.315  -0.891  -1.915  1.00  0.00     0.127 C 
ENDROOT
BRANCH   1   2
ATOM      2  C   UNL     1       8.418  -2.023  -2.866  1.00  0.00     0.303 C 
ATOM      3  O   UNL     1       9.523  -2.569  -3.110  1.00  0.00    -0.252 OA
BRANCH   2   4
ATOM      4  O   UNL     1       7.295  -2.511  -3.514  1.00  0.00    -0.481 OA
ATOM      5  H   UNL     1       6.367  -2.289  -3.143  1.00  0.00     0.296 HD
ENDBRANCH   2   4
ENDBRANCH   1   2
BRANCH   1   6
ATOM      6  C   UNL     1       7.540  -1.351  -0.718  1.00  0.00     0.047 C 
BRANCH   6   7
ATOM      7  C   UNL     1       6.659  -0.331  -0.152  1.00  0.00    -0.047 A 
ATOM      8  C   UNL     1       6.294   0.771  -0.891  1.00  0.00     0.004 A 
ATOM      9  C   UNL     1       6.193  -0.484   1.133  1.00  0.00     0.004 A 
ATOM     10  C   UNL     1       5.449   1.705  -0.287  1.00  0.00     0.000 A 
ATOM     11  C   UNL     1       5.358   0.440   1.728  1.00  0.00     0.000 A 
ATOM     12  C   UNL     1       4.988   1.547   0.996  1.00  0.00     0.000 A 
ENDBRANCH   6   7
ENDBRANCH   1   6
TORSDOF 4
ENDMDL
MODEL 4
REMARK VINA RESULT:      -6.8      3.368      5.078
REMARK SMILES O=C(O)CCc1ccccc1
REMARK SMILES IDX 4 1 2 2 1 3 3 4 5 6 6 7 7 8 11 9 8 10 10 11 9 12
REMARK H PARENT 3 5
REMARK Flexibility Score: inf
ROOT
ATOM      1  C   UNL     1       5.019   1.773   0.684  1.00  0.00     0.127 C 
ENDROOT
BRANCH   1   2
ATOM      2  C   UNL     1       4.498   1.109   1.902  1.00  0.00     0.303 C 
ATOM      3  O   UNL     1       5.151   0.207   2.482  1.00  0.00    -0.252 OA
BRANCH   2   4
ATOM      4  O   UNL     1       3.271   1.468   2.436  1.00  0.00    -0.481 OA
ATOM      5  H   UNL     1       2.679   2.132   1.929  1.00  0.00     0.296 HD
ENDBRANCH   2   4
ENDBRANCH   1   2
BRANCH   1   6
ATOM      6  C   UNL     1       6.516   1.769   0.749  1.00  0.00     0.047 C 
BRANCH   6   7
ATOM      7  C   UNL     1       7.156   1.024  -0.333  1.00  0.00    -0.047 A 
ATOM      8  C   UNL     1       8.476   1.243  -0.653  1.00  0.00     0.004 A 
ATOM      9  C   UNL     1       6.424   0.093  -1.033  1.00  0.00     0.004 A 
ATOM     10  C   UNL     1       9.023   0.494  -1.697  1.00  0.00     0.000 A 
ATOM     11  C   UNL     1       6.966  -0.645  -2.066  1.00  0.00     0.000 A 
ATOM     12  C   UNL     1       8.287  -0.432  -2.393  1.00  0.00     0.000 A 
ENDBRANCH   6   7
ENDBRANCH   1   6
TORSDOF 4
ENDMDL
MODEL 5
REMARK VINA RESULT:      -6.6      1.952      2.635
REMARK SMILES O=C(O)CCc1ccccc1
REMARK SMILES IDX 4 1 2 2 1 3 3 4 5 6 6 7 7 8 11 9 8 10 10 11 9 12
REMARK H PARENT 3 5
REMARK Flexibility Score: inf
ROOT
ATOM      1  C   UNL     1       8.249   0.150  -2.096  1.00  0.00     0.127 C 
ENDROOT
BRANCH   1   2
ATOM      2  C   UNL     1       9.395   0.331  -1.174  1.00  0.00     0.303 C 
ATOM      3  O   UNL     1       9.516  -0.372  -0.141  1.00  0.00    -0.252 OA
BRANCH   2   4
ATOM      4  O   UNL     1      10.368   1.284  -1.430  1.00  0.00    -0.481 OA
ATOM      5  H   UNL     1      10.224   2.245  -1.108  1.00  0.00     0.296 HD
ENDBRANCH   2   4
ENDBRANCH   1   2
BRANCH   1   6
ATOM      6  C   UNL     1       7.197  -0.649  -1.388  1.00  0.00     0.047 C 
BRANCH   6   7
ATOM      7  C   UNL     1       6.391   0.130  -0.450  1.00  0.00    -0.047 A 
ATOM      8  C   UNL     1       5.868   1.349  -0.814  1.00  0.00     0.004 A 
ATOM      9  C   UNL     1       6.155  -0.372   0.809  1.00  0.00     0.004 A 
ATOM     10  C   UNL     1       5.107   2.037   0.133  1.00  0.00     0.000 A 
ATOM     11  C   UNL     1       5.401   0.310   1.744  1.00  0.00     0.000 A 
ATOM     12  C   UNL     1       4.875   1.532   1.387  1.00  0.00     0.000 A 
ENDBRANCH   6   7
ENDBRANCH   1   6
TORSDOF 4
ENDMDL
