@<TRIPOS>MOLECULE
/home/cewinharhar/GITHUB/reincatalyze/data/processed/docking_pred/2023_Apr_20-15:07/76d14433275938f70f74ce69856b36729c59e426_ligand_2.pdbqt
 12 12 0 0 0
SMALL
GASTEIGER

@<TRIPOS>ATOM
      1  C          5.0190    1.7730    0.6840 C.3     1  UNL1        0.1270
      2  C          4.4980    1.1090    1.9020 C.2     1  UNL1        0.3030
      3  O          5.1510    0.2070    2.4820 O.2     1  UNL1       -0.2520
      4  O          3.2710    1.4680    2.4360 O.3     1  UNL1       -0.4810
      5  H          2.6790    2.1320    1.9290 H       1  UNL1        0.2960
      6  C          6.5160    1.7690    0.7490 C.3     1  UNL1        0.0470
      7  C          7.1560    1.0240   -0.3330 C.2     1  UNL1       -0.0470
      8  C          8.4760    1.2430   -0.6530 C.2     1  UNL1        0.0040
      9  C          6.4240    0.0930   -1.0330 C.2     1  UNL1        0.0040
     10  C          9.0230    0.4940   -1.6970 C.2     1  UNL1        0.0000
     11  C          6.9660   -0.6450   -2.0660 C.2     1  UNL1        0.0000
     12  C          8.2870   -0.4320   -2.3930 C.2     1  UNL1        0.0000
@<TRIPOS>BOND
     1    12    11    2
     2    12    10    1
     3    11     9    1
     4    10     8    2
     5     9     7    2
     6     8     7    1
     7     7     6    1
     8     1     6    1
     9     1     2    1
    10     2     4    1
    11     2     3    2
    12     5     4    1
