@<TRIPOS>MOLECULE
/home/cewinharhar/GITHUB/reincatalyze/data/processed/docking_pred/2023_Apr_20-15:07/76d14433275938f70f74ce69856b36729c59e426_ligand_2.pdbqt
 12 12 0 0 0
SMALL
GASTEIGER

@<TRIPOS>ATOM
      1  C          8.2490    0.1500   -2.0960 C.3     1  UNL1        0.1270
      2  C          9.3950    0.3310   -1.1740 C.2     1  UNL1        0.3030
      3  O          9.5160   -0.3720   -0.1410 O.2     1  UNL1       -0.2520
      4  O         10.3680    1.2840   -1.4300 O.3     1  UNL1       -0.4810
      5  H         10.2240    2.2450   -1.1080 H       1  UNL1        0.2960
      6  C          7.1970   -0.6490   -1.3880 C.3     1  UNL1        0.0470
      7  C          6.3910    0.1300   -0.4500 C.2     1  UNL1       -0.0470
      8  C          5.8680    1.3490   -0.8140 C.2     1  UNL1        0.0040
      9  C          6.1550   -0.3720    0.8090 C.2     1  UNL1        0.0040
     10  C          5.1070    2.0370    0.1330 C.2     1  UNL1        0.0000
     11  C          5.4010    0.3100    1.7440 C.2     1  UNL1        0.0000
     12  C          4.8750    1.5320    1.3870 C.2     1  UNL1        0.0000
@<TRIPOS>BOND
     1     1     6    1
     2     1     2    1
     3     4     2    1
     4     4     5    1
     5     6     7    1
     6     2     3    2
     7     8     7    2
     8     8    10    1
     9     7     9    1
    10    10    12    2
    11     9    11    2
    12    12    11    1
