@<TRIPOS>MOLECULE
/home/cewinharhar/GITHUB/reincatalyze/data/processed/docking_pred/2023_Apr_20-15:07/79094ef31ed65e340e791eab6f4e997ef8bc8970_ligand_2.pdbqt
 12 12 0 0 0
SMALL
GASTEIGER

@<TRIPOS>ATOM
      1  C          8.4170   -0.5470   -2.2370 C.3     1  UNL1        0.1270
      2  C          8.4720   -1.8670   -2.9090 C.2     1  UNL1        0.3030
      3  O          9.5570   -2.4850   -3.0420 O.2     1  UNL1       -0.2520
      4  O          7.3220   -2.4570   -3.4090 O.3     1  UNL1       -0.4810
      5  H          7.3090   -2.7840   -4.3790 H       1  UNL1        0.2960
      6  C          6.9860   -0.1090   -2.1760 C.3     1  UNL1        0.0470
      7  C          6.4680    0.0430   -0.8170 C.2     1  UNL1       -0.0470
      8  C          5.8570    1.2110   -0.4240 C.2     1  UNL1        0.0040
      9  C          6.5970   -1.0000    0.0710 C.2     1  UNL1        0.0040
     10  C          5.3850    1.2850    0.8890 C.2     1  UNL1        0.0000
     11  C          6.1310   -0.9240    1.3680 C.2     1  UNL1        0.0000
     12  C          5.5170    0.2420    1.7700 C.2     1  UNL1        0.0000
@<TRIPOS>BOND
     1     5     4    1
     2     4     2    1
     3     3     2    2
     4     2     1    1
     5     1     6    1
     6     6     7    1
     7     7     8    2
     8     7     9    1
     9     8    10    1
    10     9    11    2
    11    10    12    2
    12    11    12    1
