@<TRIPOS>MOLECULE
/home/cewinharhar/GITHUB/reincatalyze/data/processed/docking_pred/2023_Apr_20-15:07/79094ef31ed65e340e791eab6f4e997ef8bc8970_ligand_2.pdbqt
 12 12 0 0 0
SMALL
GASTEIGER

@<TRIPOS>ATOM
      1  C          5.4930    2.8830   -0.0270 C.3     1  UNL1        0.1270
      2  C          6.2520    3.8590    0.7900 C.2     1  UNL1        0.3030
      3  O          6.9230    4.7740    0.2530 O.2     1  UNL1       -0.2520
      4  O          6.2410    3.7870    2.1730 O.3     1  UNL1       -0.4810
      5  H          5.6750    3.0690    2.6330 H       1  UNL1        0.2960
      6  C          4.9200    1.8460    0.8900 C.3     1  UNL1        0.0470
      7  C          5.6980    0.6100    0.9490 C.2     1  UNL1       -0.0470
      8  C          5.7600   -0.1270    2.1090 C.2     1  UNL1        0.0040
      9  C          6.3720    0.1860   -0.1730 C.2     1  UNL1        0.0040
     10  C          6.5220   -1.2980    2.0930 C.2     1  UNL1        0.0000
     11  C          7.1240   -0.9710   -0.1870 C.2     1  UNL1        0.0000
     12  C          7.1920   -1.7150    0.9710 C.2     1  UNL1        0.0000
@<TRIPOS>BOND
     1    11     9    1
     2    11    12    2
     3     9     7    2
     4     1     2    1
     5     1     6    1
     6     3     2    2
     7     2     4    1
     8     6     7    1
     9     7     8    1
    10    12    10    1
    11    10     8    2
    12     4     5    1
