@<TRIPOS>MOLECULE
/home/cewinharhar/GITHUB/reincatalyze/data/processed/docking_pred/2023_Apr_20-15:07/79094ef31ed65e340e791eab6f4e997ef8bc8970_ligand_2.pdbqt
 12 12 0 0 0
SMALL
GASTEIGER

@<TRIPOS>ATOM
      1  C          4.9880    1.8050    0.7160 C.3     1  UNL1        0.1270
      2  C          4.4670    1.1140    1.9190 C.2     1  UNL1        0.3030
      3  O          5.1190    0.1960    2.4750 O.2     1  UNL1       -0.2520
      4  O          3.2420    1.4630    2.4640 O.3     1  UNL1       -0.4810
      5  H          3.1610    1.5880    3.4770 H       1  UNL1        0.2960
      6  C          6.4850    1.7850    0.7720 C.3     1  UNL1        0.0470
      7  C          7.1110    1.0400   -0.3190 C.2     1  UNL1       -0.0470
      8  C          6.3890    0.1300   -1.0550 C.2     1  UNL1        0.0040
      9  C          8.4380    1.2610   -0.6080 C.2     1  UNL1        0.0040
     10  C          7.0510   -0.5440   -2.0830 C.2     1  UNL1        0.0000
     11  C          9.0910    0.5940   -1.6240 C.2     1  UNL1        0.0000
     12  C          8.3750   -0.3210   -2.3660 C.2     1  UNL1        0.0000
@<TRIPOS>BOND
     1    12    10    2
     2    12    11    1
     3    10     8    1
     4    11     9    2
     5     8     7    2
     6     9     7    1
     7     7     6    1
     8     1     6    1
     9     1     2    1
    10     2     4    1
    11     2     3    2
    12     4     5    1
