@<TRIPOS>MOLECULE
/home/cewinharhar/GITHUB/reincatalyze/data/processed/docking_pred/2023_Apr_20-15:07/79094ef31ed65e340e791eab6f4e997ef8bc8970_ligand_2.pdbqt
 12 12 0 0 0
SMALL
GASTEIGER

@<TRIPOS>ATOM
      1  C          8.1780    0.2580   -2.1310 C.3     1  UNL1        0.1270
      2  C          9.3500    0.3620   -1.2300 C.2     1  UNL1        0.3030
      3  O          9.4600   -0.3740   -0.2180 O.2     1  UNL1       -0.2520
      4  O         10.3590    1.2780   -1.4800 O.3     1  UNL1       -0.4810
      5  H         10.9860    1.5520   -0.7190 H       1  UNL1        0.2960
      6  C          7.1380   -0.5820   -1.4560 C.3     1  UNL1        0.0470
      7  C          6.3570    0.1340   -0.4490 C.2     1  UNL1       -0.0470
      8  C          6.1590   -0.4040    0.8020 C.2     1  UNL1        0.0040
      9  C          5.8180    1.3600   -0.7640 C.2     1  UNL1        0.0040
     10  C          5.4040    0.3360    1.7140 C.2     1  UNL1        0.0000
     11  C          5.0710    2.0900    0.1390 C.2     1  UNL1        0.0000
     12  C          4.8680    1.5580    1.3940 C.2     1  UNL1        0.0000
@<TRIPOS>BOND
     1     1     6    1
     2     1     2    1
     3     4     2    1
     4     4     5    1
     5     6     7    1
     6     2     3    2
     7     9     7    2
     8     9    11    1
     9     7     8    1
    10    11    12    2
    11     8    10    2
    12    12    10    1
