MODEL 1
REMARK VINA RESULT:      -7.3      0.000      0.000
REMARK SMILES O=C(O)CCc1ccccc1
REMARK SMILES IDX 4 1 2 2 1 3 3 4 5 6 6 7 7 8 11 9 8 10 10 11 9 12
REMARK H PARENT 3 5
REMARK Flexibility Score: inf
ROOT
ATOM      1  C   UNL     1       8.441  -0.591  -2.178  1.00  0.00     0.127 C 
ENDROOT
BRANCH   1   2
ATOM      2  C   UNL     1       8.463  -1.884  -2.901  1.00  0.00     0.303 C 
ATOM      3  O   UNL     1       9.532  -2.526  -3.054  1.00  0.00    -0.252 OA
BRANCH   2   4
ATOM      4  O   UNL     1       7.301  -2.421  -3.431  1.00  0.00    -0.481 OA
ATOM      5  H   UNL     1       6.656  -1.813  -3.943  1.00  0.00     0.296 HD
ENDBRANCH   2   4
ENDBRANCH   1   2
BRANCH   1   6
ATOM      6  C   UNL     1       7.026  -0.100  -2.134  1.00  0.00     0.047 C 
BRANCH   6   7
ATOM      7  C   UNL     1       6.488   0.043  -0.782  1.00  0.00    -0.047 A 
ATOM      8  C   UNL     1       6.603  -0.978   0.132  1.00  0.00     0.004 A 
ATOM      9  C   UNL     1       5.863   1.216  -0.429  1.00  0.00     0.004 A 
ATOM     10  C   UNL     1       6.067  -0.772   1.405  1.00  0.00     0.000 A 
ATOM     11  C   UNL     1       5.333   1.419   0.830  1.00  0.00     0.000 A 
ATOM     12  C   UNL     1       5.444   0.400   1.752  1.00  0.00     0.000 A 
ENDBRANCH   6   7
ENDBRANCH   1   6
TORSDOF 4
ENDMDL
MODEL 2
REMARK VINA RESULT:      -7.3      0.097      1.439
REMARK SMILES O=C(O)CCc1ccccc1
REMARK SMILES IDX 4 1 2 2 1 3 3 4 5 6 6 7 7 8 11 9 8 10 10 11 9 12
REMARK H PARENT 3 5
REMARK Flexibility Score: inf
ROOT
ATOM      1  C   UNL     1       8.417  -0.547  -2.237  1.00  0.00     0.127 C 
ENDROOT
BRANCH   1   2
ATOM      2  C   UNL     1       8.472  -1.867  -2.909  1.00  0.00     0.303 C 
ATOM      3  O   UNL     1       9.557  -2.485  -3.042  1.00  0.00    -0.252 OA
BRANCH   2   4
ATOM      4  O   UNL     1       7.322  -2.457  -3.409  1.00  0.00    -0.481 OA
ATOM      5  H   UNL     1       7.309  -2.784  -4.379  1.00  0.00     0.296 HD
ENDBRANCH   2   4
ENDBRANCH   1   2
BRANCH   1   6
ATOM      6  C   UNL     1       6.986  -0.109  -2.176  1.00  0.00     0.047 C 
BRANCH   6   7
ATOM      7  C   UNL     1       6.468   0.043  -0.817  1.00  0.00    -0.047 A 
ATOM      8  C   UNL     1       5.857   1.211  -0.424  1.00  0.00     0.004 A 
ATOM      9  C   UNL     1       6.597  -1.000   0.071  1.00  0.00     0.004 A 
ATOM     10  C   UNL     1       5.385   1.285   0.889  1.00  0.00     0.000 A 
ATOM     11  C   UNL     1       6.131  -0.924   1.368  1.00  0.00     0.000 A 
ATOM     12  C   UNL     1       5.517   0.242   1.770  1.00  0.00     0.000 A 
ENDBRANCH   6   7
ENDBRANCH   1   6
TORSDOF 4
ENDMDL
MODEL 3
REMARK VINA RESULT:      -6.7      3.378      5.057
REMARK SMILES O=C(O)CCc1ccccc1
REMARK SMILES IDX 4 1 2 2 1 3 3 4 5 6 6 7 7 8 11 9 8 10 10 11 9 12
REMARK H PARENT 3 5
REMARK Flexibility Score: inf
ROOT
ATOM      1  C   UNL     1       4.988   1.805   0.716  1.00  0.00     0.127 C 
ENDROOT
BRANCH   1   2
ATOM      2  C   UNL     1       4.467   1.114   1.919  1.00  0.00     0.303 C 
ATOM      3  O   UNL     1       5.119   0.196   2.475  1.00  0.00    -0.252 OA
BRANCH   2   4
ATOM      4  O   UNL     1       3.242   1.463   2.464  1.00  0.00    -0.481 OA
ATOM      5  H   UNL     1       3.161   1.588   3.477  1.00  0.00     0.296 HD
ENDBRANCH   2   4
ENDBRANCH   1   2
BRANCH   1   6
ATOM      6  C   UNL     1       6.485   1.785   0.772  1.00  0.00     0.047 C 
BRANCH   6   7
ATOM      7  C   UNL     1       7.111   1.040  -0.319  1.00  0.00    -0.047 A 
ATOM      8  C   UNL     1       6.389   0.130  -1.055  1.00  0.00     0.004 A 
ATOM      9  C   UNL     1       8.438   1.261  -0.608  1.00  0.00     0.004 A 
ATOM     10  C   UNL     1       7.051  -0.544  -2.083  1.00  0.00     0.000 A 
ATOM     11  C   UNL     1       9.091   0.594  -1.624  1.00  0.00     0.000 A 
ATOM     12  C   UNL     1       8.375  -0.321  -2.366  1.00  0.00     0.000 A 
ENDBRANCH   6   7
ENDBRANCH   1   6
TORSDOF 4
ENDMDL
MODEL 4
REMARK VINA RESULT:      -6.6      1.929      2.245
REMARK SMILES O=C(O)CCc1ccccc1
REMARK SMILES IDX 4 1 2 2 1 3 3 4 5 6 6 7 7 8 11 9 8 10 10 11 9 12
REMARK H PARENT 3 5
REMARK Flexibility Score: inf
ROOT
ATOM      1  C   UNL     1       8.178   0.258  -2.131  1.00  0.00     0.127 C 
ENDROOT
BRANCH   1   2
ATOM      2  C   UNL     1       9.350   0.362  -1.230  1.00  0.00     0.303 C 
ATOM      3  O   UNL     1       9.460  -0.374  -0.218  1.00  0.00    -0.252 OA
BRANCH   2   4
ATOM      4  O   UNL     1      10.359   1.278  -1.480  1.00  0.00    -0.481 OA
ATOM      5  H   UNL     1      10.986   1.552  -0.719  1.00  0.00     0.296 HD
ENDBRANCH   2   4
ENDBRANCH   1   2
BRANCH   1   6
ATOM      6  C   UNL     1       7.138  -0.582  -1.456  1.00  0.00     0.047 C 
BRANCH   6   7
ATOM      7  C   UNL     1       6.357   0.134  -0.449  1.00  0.00    -0.047 A 
ATOM      8  C   UNL     1       6.159  -0.404   0.802  1.00  0.00     0.004 A 
ATOM      9  C   UNL     1       5.818   1.360  -0.764  1.00  0.00     0.004 A 
ATOM     10  C   UNL     1       5.404   0.336   1.714  1.00  0.00     0.000 A 
ATOM     11  C   UNL     1       5.071   2.090   0.139  1.00  0.00     0.000 A 
ATOM     12  C   UNL     1       4.868   1.558   1.394  1.00  0.00     0.000 A 
ENDBRANCH   6   7
ENDBRANCH   1   6
TORSDOF 4
ENDMDL
MODEL 5
REMARK VINA RESULT:      -6.6      3.822      4.918
REMARK SMILES O=C(O)CCc1ccccc1
REMARK SMILES IDX 4 1 2 2 1 3 3 4 5 6 6 7 7 8 11 9 8 10 10 11 9 12
REMARK H PARENT 3 5
REMARK Flexibility Score: inf
ROOT
ATOM      1  C   UNL     1       5.493   2.883  -0.027  1.00  0.00     0.127 C 
ENDROOT
BRANCH   1   2
ATOM      2  C   UNL     1       6.252   3.859   0.790  1.00  0.00     0.303 C 
ATOM      3  O   UNL     1       6.923   4.774   0.253  1.00  0.00    -0.252 OA
BRANCH   2   4
ATOM      4  O   UNL     1       6.241   3.787   2.173  1.00  0.00    -0.481 OA
ATOM      5  H   UNL     1       5.675   3.069   2.633  1.00  0.00     0.296 HD
ENDBRANCH   2   4
ENDBRANCH   1   2
BRANCH   1   6
ATOM      6  C   UNL     1       4.920   1.846   0.890  1.00  0.00     0.047 C 
BRANCH   6   7
ATOM      7  C   UNL     1       5.698   0.610   0.949  1.00  0.00    -0.047 A 
ATOM      8  C   UNL     1       5.760  -0.127   2.109  1.00  0.00     0.004 A 
ATOM      9  C   UNL     1       6.372   0.186  -0.173  1.00  0.00     0.004 A 
ATOM     10  C   UNL     1       6.522  -1.298   2.093  1.00  0.00     0.000 A 
ATOM     11  C   UNL     1       7.124  -0.971  -0.187  1.00  0.00     0.000 A 
ATOM     12  C   UNL     1       7.192  -1.715   0.971  1.00  0.00     0.000 A 
ENDBRANCH   6   7
ENDBRANCH   1   6
TORSDOF 4
ENDMDL
