@<TRIPOS>MOLECULE
/home/cewinharhar/GITHUB/reincatalyze/data/processed/docking_pred/2023_Apr_20-15:07/79495f175fd15f32955b26bb978cae7af324a937_ligand_2.pdbqt
 12 12 0 0 0
SMALL
GASTEIGER

@<TRIPOS>ATOM
      1  C          8.4720   -0.6310   -2.1380 C.3     1  UNL1        0.1270
      2  C          8.4850   -1.9040   -2.8960 C.2     1  UNL1        0.3030
      3  O          9.5510   -2.5440   -3.0750 O.2     1  UNL1       -0.2520
      4  O          7.3180   -2.4240   -3.4310 O.3     1  UNL1       -0.4810
      5  H          6.7770   -3.1030   -2.8890 H       1  UNL1        0.2960
      6  C          7.0690   -0.1060   -2.1220 C.3     1  UNL1        0.0470
      7  C          6.5030    0.0370   -0.7820 C.2     1  UNL1       -0.0470
      8  C          6.6250   -0.9710    0.1450 C.2     1  UNL1        0.0040
      9  C          5.8430    1.1990   -0.4530 C.2     1  UNL1        0.0040
     10  C          6.0600   -0.7650    1.4060 C.2     1  UNL1        0.0000
     11  C          5.2860    1.4020    0.7940 C.2     1  UNL1        0.0000
     12  C          5.4030    0.3960    1.7280 C.2     1  UNL1        0.0000
@<TRIPOS>BOND
     1     4     2    1
     2     4     5    1
     3     3     2    2
     4     2     1    1
     5     1     6    1
     6     6     7    1
     7     7     9    2
     8     7     8    1
     9     9    11    1
    10     8    10    2
    11    11    12    2
    12    10    12    1
