@<TRIPOS>MOLECULE
/home/cewinharhar/GITHUB/reincatalyze/data/processed/docking_pred/2023_Apr_20-15:07/79495f175fd15f32955b26bb978cae7af324a937_ligand_2.pdbqt
 12 12 0 0 0
SMALL
GASTEIGER

@<TRIPOS>ATOM
      1  C          8.4040    0.5080   -1.7910 C.3     1  UNL1        0.1270
      2  C          9.5610    0.2620   -0.8970 C.2     1  UNL1        0.3030
      3  O          9.4690   -0.5130    0.0870 O.2     1  UNL1       -0.2520
      4  O         10.7780    0.8830   -1.1240 O.3     1  UNL1       -0.4810
      5  H         11.0320    1.7050   -0.5700 H       1  UNL1        0.2960
      6  C          7.2670   -0.3550   -1.3370 C.3     1  UNL1        0.0470
      7  C          6.3960    0.2800   -0.3500 C.2     1  UNL1       -0.0470
      8  C          5.8130    1.5000   -0.6070 C.2     1  UNL1        0.0040
      9  C          6.1600   -0.3570    0.8470 C.2     1  UNL1        0.0040
     10  C          4.9920    2.0470    0.3820 C.2     1  UNL1        0.0000
     11  C          5.3480    0.1860    1.8230 C.2     1  UNL1        0.0000
     12  C          4.7620    1.4070    1.5730 C.2     1  UNL1        0.0000
@<TRIPOS>BOND
     1     1     6    1
     2     1     2    1
     3     6     7    1
     4     4     2    1
     5     4     5    1
     6     2     3    2
     7     8     7    2
     8     8    10    1
     9     7     9    1
    10    10    12    2
    11     9    11    2
    12    12    11    1
