@<TRIPOS>MOLECULE
/home/cewinharhar/GITHUB/reincatalyze/data/processed/docking_pred/2023_Apr_20-15:07/79495f175fd15f32955b26bb978cae7af324a937_ligand_2.pdbqt
 12 12 0 0 0
SMALL
GASTEIGER

@<TRIPOS>ATOM
      1  C          5.0030    1.8000    0.7250 C.3     1  UNL1        0.1270
      2  C          4.4720    1.1110    1.9240 C.2     1  UNL1        0.3030
      3  O          5.1180    0.1930    2.4870 O.2     1  UNL1       -0.2520
      4  O          3.2420    1.4610    2.4580 O.3     1  UNL1       -0.4810
      5  H          2.7520    0.7970    3.0640 H       1  UNL1        0.2960
      6  C          6.5000    1.7500    0.7780 C.3     1  UNL1        0.0470
      7  C          7.1080    0.9990   -0.3190 C.2     1  UNL1       -0.0470
      8  C          6.3860    0.0550   -1.0110 C.2     1  UNL1        0.0040
      9  C          8.4180    1.2490   -0.6580 C.2     1  UNL1        0.0040
     10  C          7.0310   -0.6230   -2.0480 C.2     1  UNL1        0.0000
     11  C          9.0540    0.5780   -1.6830 C.2     1  UNL1        0.0000
     12  C          8.3380   -0.3710   -2.3810 C.2     1  UNL1        0.0000
@<TRIPOS>BOND
     1    12    10    2
     2    12    11    1
     3    10     8    1
     4    11     9    2
     5     8     7    2
     6     9     7    1
     7     7     6    1
     8     1     6    1
     9     1     2    1
    10     2     4    1
    11     2     3    2
    12     4     5    1
