MODEL 1
REMARK VINA RESULT:      -7.4      0.000      0.000
REMARK SMILES O=C(O)CCc1ccccc1
REMARK SMILES IDX 4 1 2 2 1 3 3 4 5 6 6 7 7 8 11 9 8 10 10 11 9 12
REMARK H PARENT 3 5
REMARK Flexibility Score: inf
ROOT
ATOM      1  C   UNL     1       8.472  -0.631  -2.138  1.00  0.00     0.127 C 
ENDROOT
BRANCH   1   2
ATOM      2  C   UNL     1       8.485  -1.904  -2.896  1.00  0.00     0.303 C 
ATOM      3  O   UNL     1       9.551  -2.544  -3.075  1.00  0.00    -0.252 OA
BRANCH   2   4
ATOM      4  O   UNL     1       7.318  -2.424  -3.431  1.00  0.00    -0.481 OA
ATOM      5  H   UNL     1       6.777  -3.103  -2.889  1.00  0.00     0.296 HD
ENDBRANCH   2   4
ENDBRANCH   1   2
BRANCH   1   6
ATOM      6  C   UNL     1       7.069  -0.106  -2.122  1.00  0.00     0.047 C 
BRANCH   6   7
ATOM      7  C   UNL     1       6.503   0.037  -0.782  1.00  0.00    -0.047 A 
ATOM      8  C   UNL     1       6.625  -0.971   0.145  1.00  0.00     0.004 A 
ATOM      9  C   UNL     1       5.843   1.199  -0.453  1.00  0.00     0.004 A 
ATOM     10  C   UNL     1       6.060  -0.765   1.406  1.00  0.00     0.000 A 
ATOM     11  C   UNL     1       5.286   1.402   0.794  1.00  0.00     0.000 A 
ATOM     12  C   UNL     1       5.403   0.396   1.728  1.00  0.00     0.000 A 
ENDBRANCH   6   7
ENDBRANCH   1   6
TORSDOF 4
ENDMDL
MODEL 2
REMARK VINA RESULT:      -7.3      0.097      1.439
REMARK SMILES O=C(O)CCc1ccccc1
REMARK SMILES IDX 4 1 2 2 1 3 3 4 5 6 6 7 7 8 11 9 8 10 10 11 9 12
REMARK H PARENT 3 5
REMARK Flexibility Score: inf
ROOT
ATOM      1  C   UNL     1       8.429  -0.591  -2.203  1.00  0.00     0.127 C 
ENDROOT
BRANCH   1   2
ATOM      2  C   UNL     1       8.493  -1.881  -2.931  1.00  0.00     0.303 C 
ATOM      3  O   UNL     1       9.589  -2.458  -3.137  1.00  0.00    -0.252 OA
BRANCH   2   4
ATOM      4  O   UNL     1       7.340  -2.486  -3.405  1.00  0.00    -0.481 OA
ATOM      5  H   UNL     1       6.470  -1.949  -3.439  1.00  0.00     0.296 HD
ENDBRANCH   2   4
ENDBRANCH   1   2
BRANCH   1   6
ATOM      6  C   UNL     1       6.998  -0.150  -2.153  1.00  0.00     0.047 C 
BRANCH   6   7
ATOM      7  C   UNL     1       6.481   0.041  -0.799  1.00  0.00    -0.047 A 
ATOM      8  C   UNL     1       5.860   1.215  -0.441  1.00  0.00     0.004 A 
ATOM      9  C   UNL     1       6.621  -0.972   0.122  1.00  0.00     0.004 A 
ATOM     10  C   UNL     1       5.391   1.328   0.869  1.00  0.00     0.000 A 
ATOM     11  C   UNL     1       6.156  -0.859   1.417  1.00  0.00     0.000 A 
ATOM     12  C   UNL     1       5.533   0.314   1.783  1.00  0.00     0.000 A 
ENDBRANCH   6   7
ENDBRANCH   1   6
TORSDOF 4
ENDMDL
MODEL 3
REMARK VINA RESULT:      -6.8      3.378      5.062
REMARK SMILES O=C(O)CCc1ccccc1
REMARK SMILES IDX 4 1 2 2 1 3 3 4 5 6 6 7 7 8 11 9 8 10 10 11 9 12
REMARK H PARENT 3 5
REMARK Flexibility Score: inf
ROOT
ATOM      1  C   UNL     1       5.003   1.800   0.725  1.00  0.00     0.127 C 
ENDROOT
BRANCH   1   2
ATOM      2  C   UNL     1       4.472   1.111   1.924  1.00  0.00     0.303 C 
ATOM      3  O   UNL     1       5.118   0.193   2.487  1.00  0.00    -0.252 OA
BRANCH   2   4
ATOM      4  O   UNL     1       3.242   1.461   2.458  1.00  0.00    -0.481 OA
ATOM      5  H   UNL     1       2.752   0.797   3.064  1.00  0.00     0.296 HD
ENDBRANCH   2   4
ENDBRANCH   1   2
BRANCH   1   6
ATOM      6  C   UNL     1       6.500   1.750   0.778  1.00  0.00     0.047 C 
BRANCH   6   7
ATOM      7  C   UNL     1       7.108   0.999  -0.319  1.00  0.00    -0.047 A 
ATOM      8  C   UNL     1       6.386   0.055  -1.011  1.00  0.00     0.004 A 
ATOM      9  C   UNL     1       8.418   1.249  -0.658  1.00  0.00     0.004 A 
ATOM     10  C   UNL     1       7.031  -0.623  -2.048  1.00  0.00     0.000 A 
ATOM     11  C   UNL     1       9.054   0.578  -1.683  1.00  0.00     0.000 A 
ATOM     12  C   UNL     1       8.338  -0.371  -2.381  1.00  0.00     0.000 A 
ENDBRANCH   6   7
ENDBRANCH   1   6
TORSDOF 4
ENDMDL
MODEL 4
REMARK VINA RESULT:      -6.7      3.829      4.928
REMARK SMILES O=C(O)CCc1ccccc1
REMARK SMILES IDX 4 1 2 2 1 3 3 4 5 6 6 7 7 8 11 9 8 10 10 11 9 12
REMARK H PARENT 3 5
REMARK Flexibility Score: inf
ROOT
ATOM      1  C   UNL     1       5.466   2.829  -0.032  1.00  0.00     0.127 C 
ENDROOT
BRANCH   1   2
ATOM      2  C   UNL     1       6.208   3.836   0.764  1.00  0.00     0.303 C 
ATOM      3  O   UNL     1       6.830   4.775   0.208  1.00  0.00    -0.252 OA
BRANCH   2   4
ATOM      4  O   UNL     1       6.236   3.767   2.148  1.00  0.00    -0.481 OA
ATOM      5  H   UNL     1       6.094   2.863   2.607  1.00  0.00     0.296 HD
ENDBRANCH   2   4
ENDBRANCH   1   2
BRANCH   1   6
ATOM      6  C   UNL     1       4.924   1.794   0.906  1.00  0.00     0.047 C 
BRANCH   6   7
ATOM      7  C   UNL     1       5.719   0.569   0.964  1.00  0.00    -0.047 A 
ATOM      8  C   UNL     1       5.778  -0.178   2.117  1.00  0.00     0.004 A 
ATOM      9  C   UNL     1       6.410   0.164  -0.155  1.00  0.00     0.004 A 
ATOM     10  C   UNL     1       6.556  -1.337   2.100  1.00  0.00     0.000 A 
ATOM     11  C   UNL     1       7.179  -0.982  -0.170  1.00  0.00     0.000 A 
ATOM     12  C   UNL     1       7.245  -1.735   0.982  1.00  0.00     0.000 A 
ENDBRANCH   6   7
ENDBRANCH   1   6
TORSDOF 4
ENDMDL
MODEL 5
REMARK VINA RESULT:      -6.6      2.043      2.701
REMARK SMILES O=C(O)CCc1ccccc1
REMARK SMILES IDX 4 1 2 2 1 3 3 4 5 6 6 7 7 8 11 9 8 10 10 11 9 12
REMARK H PARENT 3 5
REMARK Flexibility Score: inf
ROOT
ATOM      1  C   UNL     1       8.404   0.508  -1.791  1.00  0.00     0.127 C 
ENDROOT
BRANCH   1   2
ATOM      2  C   UNL     1       9.561   0.262  -0.897  1.00  0.00     0.303 C 
ATOM      3  O   UNL     1       9.469  -0.513   0.087  1.00  0.00    -0.252 OA
BRANCH   2   4
ATOM      4  O   UNL     1      10.778   0.883  -1.124  1.00  0.00    -0.481 OA
ATOM      5  H   UNL     1      11.032   1.705  -0.570  1.00  0.00     0.296 HD
ENDBRANCH   2   4
ENDBRANCH   1   2
BRANCH   1   6
ATOM      6  C   UNL     1       7.267  -0.355  -1.337  1.00  0.00     0.047 C 
BRANCH   6   7
ATOM      7  C   UNL     1       6.396   0.280  -0.350  1.00  0.00    -0.047 A 
ATOM      8  C   UNL     1       5.813   1.500  -0.607  1.00  0.00     0.004 A 
ATOM      9  C   UNL     1       6.160  -0.357   0.847  1.00  0.00     0.004 A 
ATOM     10  C   UNL     1       4.992   2.047   0.382  1.00  0.00     0.000 A 
ATOM     11  C   UNL     1       5.348   0.186   1.823  1.00  0.00     0.000 A 
ATOM     12  C   UNL     1       4.762   1.407   1.573  1.00  0.00     0.000 A 
ENDBRANCH   6   7
ENDBRANCH   1   6
TORSDOF 4
ENDMDL
