@<TRIPOS>MOLECULE
/home/cewinharhar/GITHUB/reincatalyze/data/processed/docking_pred/2023_Apr_20-15:07/79495f175fd15f32955b26bb978cae7af324a937_ligand_2.pdbqt
 12 12 0 0 0
SMALL
GASTEIGER

@<TRIPOS>ATOM
      1  C          5.4660    2.8290   -0.0320 C.3     1  UNL1        0.1270
      2  C          6.2080    3.8360    0.7640 C.2     1  UNL1        0.3030
      3  O          6.8300    4.7750    0.2080 O.2     1  UNL1       -0.2520
      4  O          6.2360    3.7670    2.1480 O.3     1  UNL1       -0.4810
      5  H          6.0940    2.8630    2.6070 H       1  UNL1        0.2960
      6  C          4.9240    1.7940    0.9060 C.3     1  UNL1        0.0470
      7  C          5.7190    0.5690    0.9640 C.2     1  UNL1       -0.0470
      8  C          5.7780   -0.1780    2.1170 C.2     1  UNL1        0.0040
      9  C          6.4100    0.1640   -0.1550 C.2     1  UNL1        0.0040
     10  C          6.5560   -1.3370    2.1000 C.2     1  UNL1        0.0000
     11  C          7.1790   -0.9820   -0.1700 C.2     1  UNL1        0.0000
     12  C          7.2450   -1.7350    0.9820 C.2     1  UNL1        0.0000
@<TRIPOS>BOND
     1    11     9    1
     2    11    12    2
     3     9     7    2
     4     1     2    1
     5     1     6    1
     6     3     2    2
     7     2     4    1
     8     6     7    1
     9     7     8    1
    10    12    10    1
    11    10     8    2
    12     4     5    1
