@<TRIPOS>MOLECULE
/home/cewinharhar/GITHUB/reincatalyze/data/processed/docking_pred/2023_Apr_20-15:07/7ac8f9624e71b352d93dccd4dc48cb56e96c53c0_ligand_2.pdbqt
 12 12 0 0 0
SMALL
GASTEIGER

@<TRIPOS>ATOM
      1  C          8.3480    0.2820   -2.0210 C.3     1  UNL1        0.1270
      2  C          9.4830    0.3870   -1.0740 C.2     1  UNL1        0.3030
      3  O          9.5610   -0.3580   -0.0670 O.2     1  UNL1       -0.2520
      4  O         10.4930    1.3140   -1.2770 O.3     1  UNL1       -0.4810
      5  H         11.4690    1.0060   -1.2490 H       1  UNL1        0.2960
      6  C          7.2850   -0.5650   -1.3890 C.3     1  UNL1        0.0470
      7  C          6.4500    0.1490   -0.4250 C.2     1  UNL1       -0.0470
      8  C          6.2240   -0.3690    0.8290 C.2     1  UNL1        0.0040
      9  C          5.8900    1.3530   -0.7850 C.2     1  UNL1        0.0040
     10  C          5.4170    0.3680    1.6990 C.2     1  UNL1        0.0000
     11  C          5.0920    2.0800    0.0760 C.2     1  UNL1        0.0000
     12  C          4.8600    1.5680    1.3340 C.2     1  UNL1        0.0000
@<TRIPOS>BOND
     1     1     6    1
     2     1     2    1
     3     6     7    1
     4     4     5    1
     5     4     2    1
     6     2     3    2
     7     9     7    2
     8     9    11    1
     9     7     8    1
    10    11    12    2
    11     8    10    2
    12    12    10    1
