MODEL 1
REMARK VINA RESULT:      -7.4      0.000      0.000
REMARK SMILES O=C(O)CCc1ccccc1
REMARK SMILES IDX 4 1 2 2 1 3 3 4 5 6 6 7 7 8 11 9 8 10 10 11 9 12
REMARK H PARENT 3 5
REMARK Flexibility Score: inf
ROOT
ATOM      1  C   UNL     1       8.449  -0.598  -2.165  1.00  0.00     0.127 C 
ENDROOT
BRANCH   1   2
ATOM      2  C   UNL     1       8.487  -1.877  -2.913  1.00  0.00     0.303 C 
ATOM      3  O   UNL     1       9.568  -2.486  -3.108  1.00  0.00    -0.252 OA
BRANCH   2   4
ATOM      4  O   UNL     1       7.325  -2.438  -3.419  1.00  0.00    -0.481 OA
ATOM      5  H   UNL     1       7.006  -2.171  -4.355  1.00  0.00     0.296 HD
ENDBRANCH   2   4
ENDBRANCH   1   2
BRANCH   1   6
ATOM      6  C   UNL     1       7.033  -0.109  -2.139  1.00  0.00     0.047 C 
BRANCH   6   7
ATOM      7  C   UNL     1       6.487   0.057  -0.793  1.00  0.00    -0.047 A 
ATOM      8  C   UNL     1       6.620  -0.938   0.148  1.00  0.00     0.004 A 
ATOM      9  C   UNL     1       5.835   1.225  -0.473  1.00  0.00     0.004 A 
ATOM     10  C   UNL     1       6.074  -0.710   1.413  1.00  0.00     0.000 A 
ATOM     11  C   UNL     1       5.295   1.448   0.778  1.00  0.00     0.000 A 
ATOM     12  C   UNL     1       5.424   0.456   1.726  1.00  0.00     0.000 A 
ENDBRANCH   6   7
ENDBRANCH   1   6
TORSDOF 4
ENDMDL
MODEL 2
REMARK VINA RESULT:      -7.4      0.069      1.438
REMARK SMILES O=C(O)CCc1ccccc1
REMARK SMILES IDX 4 1 2 2 1 3 3 4 5 6 6 7 7 8 11 9 8 10 10 11 9 12
REMARK H PARENT 3 5
REMARK Flexibility Score: inf
ROOT
ATOM      1  C   UNL     1       8.448  -0.656  -2.095  1.00  0.00     0.127 C 
ENDROOT
BRANCH   1   2
ATOM      2  C   UNL     1       8.483  -1.907  -2.889  1.00  0.00     0.303 C 
ATOM      3  O   UNL     1       9.562  -2.514  -3.099  1.00  0.00    -0.252 OA
BRANCH   2   4
ATOM      4  O   UNL     1       7.322  -2.442  -3.423  1.00  0.00    -0.481 OA
ATOM      5  H   UNL     1       6.463  -2.430  -2.866  1.00  0.00     0.296 HD
ENDBRANCH   2   4
ENDBRANCH   1   2
BRANCH   1   6
ATOM      6  C   UNL     1       7.044  -0.131  -2.105  1.00  0.00     0.047 C 
BRANCH   6   7
ATOM      7  C   UNL     1       6.474   0.067  -0.773  1.00  0.00    -0.047 A 
ATOM      8  C   UNL     1       5.835   1.241  -0.450  1.00  0.00     0.004 A 
ATOM      9  C   UNL     1       6.581  -0.939   0.159  1.00  0.00     0.004 A 
ATOM     10  C   UNL     1       5.313   1.360   0.841  1.00  0.00     0.000 A 
ATOM     11  C   UNL     1       6.066  -0.819   1.434  1.00  0.00     0.000 A 
ATOM     12  C   UNL     1       5.424   0.354   1.767  1.00  0.00     0.000 A 
ENDBRANCH   6   7
ENDBRANCH   1   6
TORSDOF 4
ENDMDL
MODEL 3
REMARK VINA RESULT:      -6.7      3.373      5.064
REMARK SMILES O=C(O)CCc1ccccc1
REMARK SMILES IDX 4 1 2 2 1 3 3 4 5 6 6 7 7 8 11 9 8 10 10 11 9 12
REMARK H PARENT 3 5
REMARK Flexibility Score: inf
ROOT
ATOM      1  C   UNL     1       5.009   1.815   0.698  1.00  0.00     0.127 C 
ENDROOT
BRANCH   1   2
ATOM      2  C   UNL     1       4.503   1.133   1.912  1.00  0.00     0.303 C 
ATOM      3  O   UNL     1       5.178   0.244   2.488  1.00  0.00    -0.252 OA
BRANCH   2   4
ATOM      4  O   UNL     1       3.267   1.458   2.447  1.00  0.00    -0.481 OA
ATOM      5  H   UNL     1       2.456   0.873   2.226  1.00  0.00     0.296 HD
ENDBRANCH   2   4
ENDBRANCH   1   2
BRANCH   1   6
ATOM      6  C   UNL     1       6.507   1.800   0.739  1.00  0.00     0.047 C 
BRANCH   6   7
ATOM      7  C   UNL     1       7.124   1.035  -0.343  1.00  0.00    -0.047 A 
ATOM      8  C   UNL     1       6.386   0.135  -1.077  1.00  0.00     0.004 A 
ATOM      9  C   UNL     1       8.457   1.225  -0.624  1.00  0.00     0.004 A 
ATOM     10  C   UNL     1       7.041  -0.561  -2.096  1.00  0.00     0.000 A 
ATOM     11  C   UNL     1       9.102   0.536  -1.632  1.00  0.00     0.000 A 
ATOM     12  C   UNL     1       8.371  -0.368  -2.372  1.00  0.00     0.000 A 
ENDBRANCH   6   7
ENDBRANCH   1   6
TORSDOF 4
ENDMDL
MODEL 4
REMARK VINA RESULT:      -6.6      1.992      2.319
REMARK SMILES O=C(O)CCc1ccccc1
REMARK SMILES IDX 4 1 2 2 1 3 3 4 5 6 6 7 7 8 11 9 8 10 10 11 9 12
REMARK H PARENT 3 5
REMARK Flexibility Score: inf
ROOT
ATOM      1  C   UNL     1       8.348   0.282  -2.021  1.00  0.00     0.127 C 
ENDROOT
BRANCH   1   2
ATOM      2  C   UNL     1       9.483   0.387  -1.074  1.00  0.00     0.303 C 
ATOM      3  O   UNL     1       9.561  -0.358  -0.067  1.00  0.00    -0.252 OA
BRANCH   2   4
ATOM      4  O   UNL     1      10.493   1.314  -1.277  1.00  0.00    -0.481 OA
ATOM      5  H   UNL     1      11.469   1.006  -1.249  1.00  0.00     0.296 HD
ENDBRANCH   2   4
ENDBRANCH   1   2
BRANCH   1   6
ATOM      6  C   UNL     1       7.285  -0.565  -1.389  1.00  0.00     0.047 C 
BRANCH   6   7
ATOM      7  C   UNL     1       6.450   0.149  -0.425  1.00  0.00    -0.047 A 
ATOM      8  C   UNL     1       6.224  -0.369   0.829  1.00  0.00     0.004 A 
ATOM      9  C   UNL     1       5.890   1.353  -0.785  1.00  0.00     0.004 A 
ATOM     10  C   UNL     1       5.417   0.368   1.699  1.00  0.00     0.000 A 
ATOM     11  C   UNL     1       5.092   2.080   0.076  1.00  0.00     0.000 A 
ATOM     12  C   UNL     1       4.860   1.568   1.334  1.00  0.00     0.000 A 
ENDBRANCH   6   7
ENDBRANCH   1   6
TORSDOF 4
ENDMDL
