@<TRIPOS>MOLECULE
/home/cewinharhar/GITHUB/reincatalyze/data/processed/docking_pred/2023_Apr_20-15:07/7ac8f9624e71b352d93dccd4dc48cb56e96c53c0_ligand_2.pdbqt
 12 12 0 0 0
SMALL
GASTEIGER

@<TRIPOS>ATOM
      1  C          5.4160    2.8980    0.0360 C.3     1  UNL1        0.1270
      2  C          6.2260    3.8720    0.8040 C.2     1  UNL1        0.3030
      3  O          6.9360    4.7300    0.2230 O.2     1  UNL1       -0.2520
      4  O          6.2220    3.8630    2.1900 O.3     1  UNL1       -0.4810
      5  H          5.3640    4.1090    2.6900 H       1  UNL1        0.2960
      6  C          4.9440    1.8320    0.9770 C.3     1  UNL1        0.0470
      7  C          5.7430    0.6080    0.9370 C.2     1  UNL1       -0.0470
      8  C          5.8270   -0.2130    2.0370 C.2     1  UNL1        0.0040
      9  C          6.4130    0.2810   -0.2200 C.2     1  UNL1        0.0040
     10  C          6.6080   -1.3670    1.9270 C.2     1  UNL1        0.0000
     11  C          7.1840   -0.8590   -0.3270 C.2     1  UNL1        0.0000
     12  C          7.2740   -1.6870    0.7710 C.2     1  UNL1        0.0000
@<TRIPOS>BOND
     1    11     9    1
     2    11    12    2
     3     9     7    2
     4     1     2    1
     5     1     6    1
     6     3     2    2
     7    12    10    1
     8     2     4    1
     9     7     6    1
    10     7     8    1
    11    10     8    2
    12     4     5    1
