@<TRIPOS>MOLECULE
/home/cewinharhar/GITHUB/reincatalyze/data/processed/docking_pred/2023_Apr_20-15:07/7ac8f9624e71b352d93dccd4dc48cb56e96c53c0_ligand_2.pdbqt
 12 12 0 0 0
SMALL
GASTEIGER

@<TRIPOS>ATOM
      1  C          8.4480   -0.6560   -2.0950 C.3     1  UNL1        0.1270
      2  C          8.4830   -1.9070   -2.8890 C.2     1  UNL1        0.3030
      3  O          9.5620   -2.5140   -3.0990 O.2     1  UNL1       -0.2520
      4  O          7.3220   -2.4420   -3.4230 O.3     1  UNL1       -0.4810
      5  H          6.4630   -2.4300   -2.8660 H       1  UNL1        0.2960
      6  C          7.0440   -0.1310   -2.1050 C.3     1  UNL1        0.0470
      7  C          6.4740    0.0670   -0.7730 C.2     1  UNL1       -0.0470
      8  C          5.8350    1.2410   -0.4500 C.2     1  UNL1        0.0040
      9  C          6.5810   -0.9390    0.1590 C.2     1  UNL1        0.0040
     10  C          5.3130    1.3600    0.8410 C.2     1  UNL1        0.0000
     11  C          6.0660   -0.8190    1.4340 C.2     1  UNL1        0.0000
     12  C          5.4240    0.3540    1.7670 C.2     1  UNL1        0.0000
@<TRIPOS>BOND
     1     4     2    1
     2     4     5    1
     3     3     2    2
     4     2     1    1
     5     6     1    1
     6     6     7    1
     7     7     8    2
     8     7     9    1
     9     8    10    1
    10     9    11    2
    11    10    12    2
    12    11    12    1
