@<TRIPOS>MOLECULE
/home/cewinharhar/GITHUB/reincatalyze/data/processed/docking_pred/2023_Apr_20-15:07/7ac8f9624e71b352d93dccd4dc48cb56e96c53c0_ligand_2.pdbqt
 12 12 0 0 0
SMALL
GASTEIGER

@<TRIPOS>ATOM
      1  C          8.4490   -0.5980   -2.1650 C.3     1  UNL1        0.1270
      2  C          8.4870   -1.8770   -2.9130 C.2     1  UNL1        0.3030
      3  O          9.5680   -2.4860   -3.1080 O.2     1  UNL1       -0.2520
      4  O          7.3250   -2.4380   -3.4190 O.3     1  UNL1       -0.4810
      5  H          7.0060   -2.1710   -4.3550 H       1  UNL1        0.2960
      6  C          7.0330   -0.1090   -2.1390 C.3     1  UNL1        0.0470
      7  C          6.4870    0.0570   -0.7930 C.2     1  UNL1       -0.0470
      8  C          6.6200   -0.9380    0.1480 C.2     1  UNL1        0.0040
      9  C          5.8350    1.2250   -0.4730 C.2     1  UNL1        0.0040
     10  C          6.0740   -0.7100    1.4130 C.2     1  UNL1        0.0000
     11  C          5.2950    1.4480    0.7780 C.2     1  UNL1        0.0000
     12  C          5.4240    0.4560    1.7260 C.2     1  UNL1        0.0000
@<TRIPOS>BOND
     1     5     4    1
     2     4     2    1
     3     3     2    2
     4     2     1    1
     5     1     6    1
     6     6     7    1
     7     7     9    2
     8     7     8    1
     9     9    11    1
    10     8    10    2
    11    11    12    2
    12    10    12    1
