@<TRIPOS>MOLECULE
/home/cewinharhar/GITHUB/reincatalyze/data/processed/docking_pred/2023_Apr_20-15:07/7c86502248d8ce059d377094dc2c2500eee92fd7_ligand_2.pdbqt
 12 12 0 0 0
SMALL
GASTEIGER

@<TRIPOS>ATOM
      1  C          4.9960    1.7950    0.7090 C.3     1  UNL1        0.1270
      2  C          4.4730    1.1110    1.9150 C.2     1  UNL1        0.3030
      3  O          5.1230    0.1950    2.4770 O.2     1  UNL1       -0.2520
      4  O          3.2480    1.4650    2.4570 O.3     1  UNL1       -0.4810
      5  H          2.4980    1.7810    1.8350 H       1  UNL1        0.2960
      6  C          6.4930    1.7590    0.7600 C.3     1  UNL1        0.0470
      7  C          7.1070    1.0070   -0.3330 C.2     1  UNL1       -0.0470
      8  C          6.3810    0.0790   -1.0430 C.2     1  UNL1        0.0040
      9  C          8.4260    1.2390   -0.6500 C.2     1  UNL1        0.0040
     10  C          7.0320   -0.6020   -2.0740 C.2     1  UNL1        0.0000
     11  C          9.0680    0.5650   -1.6700 C.2     1  UNL1        0.0000
     12  C          8.3480   -0.3680   -2.3850 C.2     1  UNL1        0.0000
@<TRIPOS>BOND
     1    12    10    2
     2    12    11    1
     3    10     8    1
     4    11     9    2
     5     8     7    2
     6     9     7    1
     7     7     6    1
     8     1     6    1
     9     1     2    1
    10     5     4    1
    11     2     4    1
    12     2     3    2
