@<TRIPOS>MOLECULE
/home/cewinharhar/GITHUB/reincatalyze/data/processed/docking_pred/2023_Apr_20-15:07/7c86502248d8ce059d377094dc2c2500eee92fd7_ligand_2.pdbqt
 12 12 0 0 0
SMALL
GASTEIGER

@<TRIPOS>ATOM
      1  C          8.3890   -0.5700   -2.1880 C.3     1  UNL1        0.1270
      2  C          8.3620   -1.8630   -2.9130 C.2     1  UNL1        0.3030
      3  O          7.2770   -2.4000   -3.2460 O.2     1  UNL1       -0.2520
      4  O          9.5390   -2.5160   -3.2430 O.3     1  UNL1       -0.4810
      5  H          9.5890   -3.0460   -4.1170 H       1  UNL1        0.2960
      6  C          6.9890   -0.0420   -2.1150 C.3     1  UNL1        0.0470
      7  C          6.4630    0.0590   -0.7540 C.2     1  UNL1       -0.0470
      8  C          6.5850   -0.9900    0.1270 C.2     1  UNL1        0.0040
      9  C          5.8410    1.2210   -0.3600 C.2     1  UNL1        0.0040
     10  C          6.0600   -0.8230    1.4110 C.2     1  UNL1        0.0000
     11  C          5.3230    1.3850    0.9090 C.2     1  UNL1        0.0000
     12  C          5.4410    0.3390    1.7980 C.2     1  UNL1        0.0000
@<TRIPOS>BOND
     1     5     4    1
     2     3     2    2
     3     4     2    1
     4     2     1    1
     5     1     6    1
     6     6     7    1
     7     7     9    2
     8     7     8    1
     9     9    11    1
    10     8    10    2
    11    11    12    2
    12    10    12    1
