@<TRIPOS>MOLECULE
/home/cewinharhar/GITHUB/reincatalyze/data/processed/docking_pred/2023_Apr_20-15:07/7c86502248d8ce059d377094dc2c2500eee92fd7_ligand_2.pdbqt
 12 12 0 0 0
SMALL
GASTEIGER

@<TRIPOS>ATOM
      1  C          7.9280   -2.2730    0.8450 C.3     1  UNL1        0.1270
      2  C          8.7670   -3.3890    0.3470 C.2     1  UNL1        0.3030
      3  O          9.6610   -3.9010    1.0650 O.2     1  UNL1       -0.2520
      4  O          8.5870   -3.8980   -0.9280 O.3     1  UNL1       -0.4810
      5  H          8.5620   -3.2560   -1.7250 H       1  UNL1        0.2960
      6  C          7.4940   -1.4500   -0.3290 C.3     1  UNL1        0.0470
      7  C          6.6340   -0.3210    0.0210 C.2     1  UNL1       -0.0470
      8  C          6.3720    0.6730   -0.8930 C.2     1  UNL1        0.0040
      9  C          6.0840   -0.2620    1.2800 C.2     1  UNL1        0.0040
     10  C          5.5420    1.7220   -0.4900 C.2     1  UNL1        0.0000
     11  C          5.2630    0.7750    1.6770 C.2     1  UNL1        0.0000
     12  C          4.9960    1.7760    0.7680 C.2     1  UNL1        0.0000
@<TRIPOS>BOND
     1     5     4    1
     2     4     2    1
     3     8    10    1
     4     8     7    2
     5    10    12    2
     6     6     7    1
     7     6     1    1
     8     7     9    1
     9     2     1    1
    10     2     3    2
    11    12    11    1
    12     9    11    2
