@<TRIPOS>MOLECULE
/home/cewinharhar/GITHUB/reincatalyze/data/processed/docking_pred/2023_Apr_20-15:07/7c86502248d8ce059d377094dc2c2500eee92fd7_ligand_2.pdbqt
 12 12 0 0 0
SMALL
GASTEIGER

@<TRIPOS>ATOM
      1  C          7.3050   -1.3290   -2.1480 C.3     1  UNL1        0.1270
      2  C          8.7470   -1.3520   -2.4880 C.2     1  UNL1        0.3030
      3  O          9.2400   -2.2820   -3.1720 O.2     1  UNL1       -0.2520
      4  O          9.5940   -0.3430   -2.0560 O.3     1  UNL1       -0.4810
      5  H          9.9680   -0.3760   -1.1040 H       1  UNL1        0.2960
      6  C          7.1700   -1.4090   -0.6580 C.3     1  UNL1        0.0470
      7  C          6.4110   -0.3070   -0.0700 C.2     1  UNL1       -0.0470
      8  C          5.9580   -0.3790    1.2270 C.2     1  UNL1        0.0040
      9  C          6.1530    0.8110   -0.8290 C.2     1  UNL1        0.0040
     10  C          5.2400    0.7110    1.7240 C.2     1  UNL1        0.0000
     11  C          5.4440    1.8880   -0.3360 C.2     1  UNL1        0.0000
     12  C          4.9850    1.8240    0.9620 C.2     1  UNL1        0.0000
@<TRIPOS>BOND
     1     3     2    2
     2     2     1    1
     3     2     4    1
     4     1     6    1
     5     4     5    1
     6     9    11    1
     7     9     7    2
     8     6     7    1
     9    11    12    2
    10     7     8    1
    11    12    10    1
    12     8    10    2
