@<TRIPOS>MOLECULE
/home/cewinharhar/GITHUB/reincatalyze/data/processed/docking_pred/2023_Apr_20-15:07/7d60c2a66717a3f4b6d307e9593656cfb0aaeeb8_ligand_2.pdbqt
 12 12 0 0 0
SMALL
GASTEIGER

@<TRIPOS>ATOM
      1  C          8.4470   -0.6490   -2.0880 C.3     1  UNL1        0.1270
      2  C          8.3960   -1.9030   -2.8770 C.2     1  UNL1        0.3030
      3  O          7.3010   -2.4160   -3.2140 O.2     1  UNL1       -0.2520
      4  O          9.5610   -2.5450   -3.2650 O.3     1  UNL1       -0.4810
      5  H         10.1760   -2.9430   -2.5500 H       1  UNL1        0.2960
      6  C          7.0770   -0.0410   -2.0830 C.3     1  UNL1        0.0470
      7  C          6.4970    0.1050   -0.7490 C.2     1  UNL1       -0.0470
      8  C          6.6310   -0.8920    0.1890 C.2     1  UNL1        0.0040
      9  C          5.8120    1.2570   -0.4370 C.2     1  UNL1        0.0040
     10  C          6.0520   -0.6840    1.4430 C.2     1  UNL1        0.0000
     11  C          5.2400    1.4600    0.8020 C.2     1  UNL1        0.0000
     12  C          5.3690    0.4660    1.7480 C.2     1  UNL1        0.0000
@<TRIPOS>BOND
     1     4     2    1
     2     4     5    1
     3     3     2    2
     4     2     1    1
     5     1     6    1
     6     6     7    1
     7     7     9    2
     8     7     8    1
     9     9    11    1
    10     8    10    2
    11    11    12    2
    12    10    12    1
