@<TRIPOS>MOLECULE
/home/cewinharhar/GITHUB/reincatalyze/data/processed/docking_pred/2023_Apr_20-15:07/7d60c2a66717a3f4b6d307e9593656cfb0aaeeb8_ligand_2.pdbqt
 12 12 0 0 0
SMALL
GASTEIGER

@<TRIPOS>ATOM
      1  C          5.3460    2.9370    0.1090 C.3     1  UNL1        0.1270
      2  C          6.2110    3.8810    0.8540 C.2     1  UNL1        0.3030
      3  O          6.8620    4.7750    0.2600 O.2     1  UNL1       -0.2520
      4  O          6.3260    3.8010    2.2330 O.3     1  UNL1       -0.4810
      5  H          6.8170    4.5440    2.7380 H       1  UNL1        0.2960
      6  C          5.3190    1.6360    0.8510 C.3     1  UNL1        0.0470
      7  C          6.0440    0.5550    0.1850 C.2     1  UNL1       -0.0470
      8  C          6.4700   -0.5460    0.8910 C.2     1  UNL1        0.0040
      9  C          6.2970    0.6490   -1.1640 C.2     1  UNL1        0.0040
     10  C          7.1570   -1.5390    0.1900 C.2     1  UNL1        0.0000
     11  C          6.9760   -0.3350   -1.8560 C.2     1  UNL1        0.0000
     12  C          7.4070   -1.4410   -1.1560 C.2     1  UNL1        0.0000
@<TRIPOS>BOND
     1    11     9    1
     2    11    12    2
     3     9     7    2
     4    12    10    1
     5     1     6    1
     6     1     2    1
     7     7     6    1
     8     7     8    1
     9    10     8    2
    10     3     2    2
    11     2     4    1
    12     4     5    1
