@<TRIPOS>MOLECULE
/home/cewinharhar/GITHUB/reincatalyze/data/processed/docking_pred/2023_Apr_20-15:07/7d60c2a66717a3f4b6d307e9593656cfb0aaeeb8_ligand_2.pdbqt
 12 12 0 0 0
SMALL
GASTEIGER

@<TRIPOS>ATOM
      1  C          4.9770    1.7980    0.6770 C.3     1  UNL1        0.1270
      2  C          4.4810    1.1230    1.9000 C.2     1  UNL1        0.3030
      3  O          5.1550    0.2290    2.4680 O.2     1  UNL1       -0.2520
      4  O          3.2560    1.4620    2.4510 O.3     1  UNL1       -0.4810
      5  H          2.5590    0.7290    2.6120 H       1  UNL1        0.2960
      6  C          6.4750    1.8130    0.7220 C.3     1  UNL1        0.0470
      7  C          7.1090    1.0500   -0.3520 C.2     1  UNL1       -0.0470
      8  C          6.3820    0.1560   -1.1040 C.2     1  UNL1        0.0040
      9  C          8.4480    1.2370   -0.6080 C.2     1  UNL1        0.0040
     10  C          7.0530   -0.5370   -2.1140 C.2     1  UNL1        0.0000
     11  C          9.1090    0.5500   -1.6070 C.2     1  UNL1        0.0000
     12  C          8.3880   -0.3480   -2.3640 C.2     1  UNL1        0.0000
@<TRIPOS>BOND
     1    12    10    2
     2    12    11    1
     3    10     8    1
     4    11     9    2
     5     8     7    2
     6     9     7    1
     7     7     6    1
     8     1     6    1
     9     1     2    1
    10     2     4    1
    11     2     3    2
    12     4     5    1
