@<TRIPOS>MOLECULE
/home/cewinharhar/GITHUB/reincatalyze/data/processed/docking_pred/2023_Apr_20-15:07/7d60c2a66717a3f4b6d307e9593656cfb0aaeeb8_ligand_2.pdbqt
 12 12 0 0 0
SMALL
GASTEIGER

@<TRIPOS>ATOM
      1  C          8.4310   -0.5980   -2.1750 C.3     1  UNL1        0.1270
      2  C          8.4820   -1.8830   -2.9120 C.2     1  UNL1        0.3030
      3  O          9.5710   -2.4730   -3.1180 O.2     1  UNL1       -0.2520
      4  O          7.3230   -2.4710   -3.3940 O.3     1  UNL1       -0.4810
      5  H          7.3790   -3.3820   -3.8580 H       1  UNL1        0.2960
      6  C          7.0070   -0.1370   -2.1310 C.3     1  UNL1        0.0470
      7  C          6.4800    0.0350   -0.7780 C.2     1  UNL1       -0.0470
      8  C          5.8570    1.2050   -0.4090 C.2     1  UNL1        0.0040
      9  C          6.6110   -0.9900    0.1300 C.2     1  UNL1        0.0040
     10  C          5.3770    1.3000    0.8990 C.2     1  UNL1        0.0000
     11  C          6.1360   -0.8950    1.4230 C.2     1  UNL1        0.0000
     12  C          5.5120    0.2740    1.8000 C.2     1  UNL1        0.0000
@<TRIPOS>BOND
     1     5     4    1
     2     4     2    1
     3     3     2    2
     4     2     1    1
     5     1     6    1
     6     6     7    1
     7     7     8    2
     8     7     9    1
     9     8    10    1
    10     9    11    2
    11    10    12    2
    12    11    12    1
