@<TRIPOS>MOLECULE
/home/cewinharhar/GITHUB/reincatalyze/data/processed/docking_pred/2023_Apr_20-15:07/7d60c2a66717a3f4b6d307e9593656cfb0aaeeb8_ligand_2.pdbqt
 12 12 0 0 0
SMALL
GASTEIGER

@<TRIPOS>ATOM
      1  C          8.4830    0.6230   -1.6790 C.3     1  UNL1        0.1270
      2  C          9.6340    0.2620   -0.8190 C.2     1  UNL1        0.3030
      3  O          9.4980   -0.5130    0.1600 O.2     1  UNL1       -0.2520
      4  O         10.8970    0.7730   -1.0720 O.3     1  UNL1       -0.4810
      5  H         11.0010    1.7680   -1.2890 H       1  UNL1        0.2960
      6  C          7.3340   -0.2730   -1.3280 C.3     1  UNL1        0.0470
      7  C          6.4370    0.2790   -0.3140 C.2     1  UNL1       -0.0470
      8  C          6.1970   -0.4010    0.8570 C.2     1  UNL1        0.0040
      9  C          5.8330    1.4930   -0.5420 C.2     1  UNL1        0.0040
     10  C          5.3300    0.1860    1.7820 C.2     1  UNL1        0.0000
     11  C          4.9760    2.0720    0.3730 C.2     1  UNL1        0.0000
     12  C          4.7290    1.3970    1.5490 C.2     1  UNL1        0.0000
@<TRIPOS>BOND
     1     1     6    1
     2     1     2    1
     3     6     7    1
     4     5     4    1
     5     4     2    1
     6     2     3    2
     7     9     7    2
     8     9    11    1
     9     7     8    1
    10    11    12    2
    11     8    10    2
    12    12    10    1
