MODEL 1
REMARK VINA RESULT:      -7.3      0.000      0.000
REMARK SMILES O=C(O)CCc1ccccc1
REMARK SMILES IDX 4 1 2 2 1 3 3 4 5 6 6 7 7 8 11 9 8 10 10 11 9 12
REMARK H PARENT 3 5
REMARK Flexibility Score: inf
ROOT
ATOM      1  C   UNL     1       8.431  -0.598  -2.175  1.00  0.00     0.127 C 
ENDROOT
BRANCH   1   2
ATOM      2  C   UNL     1       8.482  -1.883  -2.912  1.00  0.00     0.303 C 
ATOM      3  O   UNL     1       9.571  -2.473  -3.118  1.00  0.00    -0.252 OA
BRANCH   2   4
ATOM      4  O   UNL     1       7.323  -2.471  -3.394  1.00  0.00    -0.481 OA
ATOM      5  H   UNL     1       7.379  -3.382  -3.858  1.00  0.00     0.296 HD
ENDBRANCH   2   4
ENDBRANCH   1   2
BRANCH   1   6
ATOM      6  C   UNL     1       7.007  -0.137  -2.131  1.00  0.00     0.047 C 
BRANCH   6   7
ATOM      7  C   UNL     1       6.480   0.035  -0.778  1.00  0.00    -0.047 A 
ATOM      8  C   UNL     1       5.857   1.205  -0.409  1.00  0.00     0.004 A 
ATOM      9  C   UNL     1       6.611  -0.990   0.130  1.00  0.00     0.004 A 
ATOM     10  C   UNL     1       5.377   1.300   0.899  1.00  0.00     0.000 A 
ATOM     11  C   UNL     1       6.136  -0.895   1.423  1.00  0.00     0.000 A 
ATOM     12  C   UNL     1       5.512   0.274   1.800  1.00  0.00     0.000 A 
ENDBRANCH   6   7
ENDBRANCH   1   6
TORSDOF 4
ENDMDL
MODEL 2
REMARK VINA RESULT:      -7.3      0.162      1.734
REMARK SMILES O=C(O)CCc1ccccc1
REMARK SMILES IDX 4 1 2 2 1 3 3 4 5 6 6 7 7 8 11 9 8 10 10 11 9 12
REMARK H PARENT 3 5
REMARK Flexibility Score: inf
ROOT
ATOM      1  C   UNL     1       8.447  -0.649  -2.088  1.00  0.00     0.127 C 
ENDROOT
BRANCH   1   2
ATOM      2  C   UNL     1       8.396  -1.903  -2.877  1.00  0.00     0.303 C 
ATOM      3  O   UNL     1       7.301  -2.416  -3.214  1.00  0.00    -0.252 OA
BRANCH   2   4
ATOM      4  O   UNL     1       9.561  -2.545  -3.265  1.00  0.00    -0.481 OA
ATOM      5  H   UNL     1      10.176  -2.943  -2.550  1.00  0.00     0.296 HD
ENDBRANCH   2   4
ENDBRANCH   1   2
BRANCH   1   6
ATOM      6  C   UNL     1       7.077  -0.041  -2.083  1.00  0.00     0.047 C 
BRANCH   6   7
ATOM      7  C   UNL     1       6.497   0.105  -0.749  1.00  0.00    -0.047 A 
ATOM      8  C   UNL     1       6.631  -0.892   0.189  1.00  0.00     0.004 A 
ATOM      9  C   UNL     1       5.812   1.257  -0.437  1.00  0.00     0.004 A 
ATOM     10  C   UNL     1       6.052  -0.684   1.443  1.00  0.00     0.000 A 
ATOM     11  C   UNL     1       5.240   1.460   0.802  1.00  0.00     0.000 A 
ATOM     12  C   UNL     1       5.369   0.466   1.748  1.00  0.00     0.000 A 
ENDBRANCH   6   7
ENDBRANCH   1   6
TORSDOF 4
ENDMDL
MODEL 3
REMARK VINA RESULT:      -6.8      3.381      5.082
REMARK SMILES O=C(O)CCc1ccccc1
REMARK SMILES IDX 4 1 2 2 1 3 3 4 5 6 6 7 7 8 11 9 8 10 10 11 9 12
REMARK H PARENT 3 5
REMARK Flexibility Score: inf
ROOT
ATOM      1  C   UNL     1       4.977   1.798   0.677  1.00  0.00     0.127 C 
ENDROOT
BRANCH   1   2
ATOM      2  C   UNL     1       4.481   1.123   1.900  1.00  0.00     0.303 C 
ATOM      3  O   UNL     1       5.155   0.229   2.468  1.00  0.00    -0.252 OA
BRANCH   2   4
ATOM      4  O   UNL     1       3.256   1.462   2.451  1.00  0.00    -0.481 OA
ATOM      5  H   UNL     1       2.559   0.729   2.612  1.00  0.00     0.296 HD
ENDBRANCH   2   4
ENDBRANCH   1   2
BRANCH   1   6
ATOM      6  C   UNL     1       6.475   1.813   0.722  1.00  0.00     0.047 C 
BRANCH   6   7
ATOM      7  C   UNL     1       7.109   1.050  -0.352  1.00  0.00    -0.047 A 
ATOM      8  C   UNL     1       6.382   0.156  -1.104  1.00  0.00     0.004 A 
ATOM      9  C   UNL     1       8.448   1.237  -0.608  1.00  0.00     0.004 A 
ATOM     10  C   UNL     1       7.053  -0.537  -2.114  1.00  0.00     0.000 A 
ATOM     11  C   UNL     1       9.109   0.550  -1.607  1.00  0.00     0.000 A 
ATOM     12  C   UNL     1       8.388  -0.348  -2.364  1.00  0.00     0.000 A 
ENDBRANCH   6   7
ENDBRANCH   1   6
TORSDOF 4
ENDMDL
MODEL 4
REMARK VINA RESULT:      -6.6      3.741      5.114
REMARK SMILES O=C(O)CCc1ccccc1
REMARK SMILES IDX 4 1 2 2 1 3 3 4 5 6 6 7 7 8 11 9 8 10 10 11 9 12
REMARK H PARENT 3 5
REMARK Flexibility Score: inf
ROOT
ATOM      1  C   UNL     1       5.346   2.937   0.109  1.00  0.00     0.127 C 
ENDROOT
BRANCH   1   2
ATOM      2  C   UNL     1       6.211   3.881   0.854  1.00  0.00     0.303 C 
ATOM      3  O   UNL     1       6.862   4.775   0.260  1.00  0.00    -0.252 OA
BRANCH   2   4
ATOM      4  O   UNL     1       6.326   3.801   2.233  1.00  0.00    -0.481 OA
ATOM      5  H   UNL     1       6.817   4.544   2.738  1.00  0.00     0.296 HD
ENDBRANCH   2   4
ENDBRANCH   1   2
BRANCH   1   6
ATOM      6  C   UNL     1       5.319   1.636   0.851  1.00  0.00     0.047 C 
BRANCH   6   7
ATOM      7  C   UNL     1       6.044   0.555   0.185  1.00  0.00    -0.047 A 
ATOM      8  C   UNL     1       6.470  -0.546   0.891  1.00  0.00     0.004 A 
ATOM      9  C   UNL     1       6.297   0.649  -1.164  1.00  0.00     0.004 A 
ATOM     10  C   UNL     1       7.157  -1.539   0.190  1.00  0.00     0.000 A 
ATOM     11  C   UNL     1       6.976  -0.335  -1.856  1.00  0.00     0.000 A 
ATOM     12  C   UNL     1       7.407  -1.441  -1.156  1.00  0.00     0.000 A 
ENDBRANCH   6   7
ENDBRANCH   1   6
TORSDOF 4
ENDMDL
MODEL 5
REMARK VINA RESULT:      -6.6      2.080      2.749
REMARK SMILES O=C(O)CCc1ccccc1
REMARK SMILES IDX 4 1 2 2 1 3 3 4 5 6 6 7 7 8 11 9 8 10 10 11 9 12
REMARK H PARENT 3 5
REMARK Flexibility Score: inf
ROOT
ATOM      1  C   UNL     1       8.483   0.623  -1.679  1.00  0.00     0.127 C 
ENDROOT
BRANCH   1   2
ATOM      2  C   UNL     1       9.634   0.262  -0.819  1.00  0.00     0.303 C 
ATOM      3  O   UNL     1       9.498  -0.513   0.160  1.00  0.00    -0.252 OA
BRANCH   2   4
ATOM      4  O   UNL     1      10.897   0.773  -1.072  1.00  0.00    -0.481 OA
ATOM      5  H   UNL     1      11.001   1.768  -1.289  1.00  0.00     0.296 HD
ENDBRANCH   2   4
ENDBRANCH   1   2
BRANCH   1   6
ATOM      6  C   UNL     1       7.334  -0.273  -1.328  1.00  0.00     0.047 C 
BRANCH   6   7
ATOM      7  C   UNL     1       6.437   0.279  -0.314  1.00  0.00    -0.047 A 
ATOM      8  C   UNL     1       6.197  -0.401   0.857  1.00  0.00     0.004 A 
ATOM      9  C   UNL     1       5.833   1.493  -0.542  1.00  0.00     0.004 A 
ATOM     10  C   UNL     1       5.330   0.186   1.782  1.00  0.00     0.000 A 
ATOM     11  C   UNL     1       4.976   2.072   0.373  1.00  0.00     0.000 A 
ATOM     12  C   UNL     1       4.729   1.397   1.549  1.00  0.00     0.000 A 
ENDBRANCH   6   7
ENDBRANCH   1   6
TORSDOF 4
ENDMDL
