@<TRIPOS>MOLECULE
/home/cewinharhar/GITHUB/reincatalyze/data/processed/docking_pred/2023_Apr_20-15:07/7e2b2812a39c1bf8d23d6aab3a18bb39f1acac0e_ligand_2.pdbqt
 12 12 0 0 0
SMALL
GASTEIGER

@<TRIPOS>ATOM
      1  C          5.0090    1.7960    0.7170 C.3     1  UNL1        0.1270
      2  C          4.4840    1.1110    1.9220 C.2     1  UNL1        0.3030
      3  O          5.1360    0.2000    2.4890 O.2     1  UNL1       -0.2520
      4  O          3.2540    1.4590    2.4570 O.3     1  UNL1       -0.4810
      5  H          2.7690    0.7970    3.0690 H       1  UNL1        0.2960
      6  C          6.5060    1.7570    0.7680 C.3     1  UNL1        0.0470
      7  C          7.1190    1.0080   -0.3280 C.2     1  UNL1       -0.0470
      8  C          6.3900    0.0870   -1.0440 C.2     1  UNL1        0.0040
      9  C          8.4390    1.2350   -0.6400 C.2     1  UNL1        0.0040
     10  C          7.0400   -0.5910   -2.0780 C.2     1  UNL1        0.0000
     11  C          9.0800    0.5640   -1.6620 C.2     1  UNL1        0.0000
     12  C          8.3580   -0.3610   -2.3850 C.2     1  UNL1        0.0000
@<TRIPOS>BOND
     1    12    10    2
     2    12    11    1
     3    10     8    1
     4    11     9    2
     5     8     7    2
     6     9     7    1
     7     7     6    1
     8     1     6    1
     9     1     2    1
    10     2     4    1
    11     2     3    2
    12     4     5    1
