@<TRIPOS>MOLECULE
/home/cewinharhar/GITHUB/reincatalyze/data/processed/docking_pred/2023_Apr_20-15:07/7e2b2812a39c1bf8d23d6aab3a18bb39f1acac0e_ligand_2.pdbqt
 12 12 0 0 0
SMALL
GASTEIGER

@<TRIPOS>ATOM
      1  C          7.9660   -0.6990   -2.1240 C.3     1  UNL1        0.1270
      2  C          8.2560   -1.8950   -2.9490 C.2     1  UNL1        0.3030
      3  O          9.4280   -2.3260   -3.0830 O.2     1  UNL1       -0.2520
      4  O          7.2370   -2.5730   -3.5990 O.3     1  UNL1       -0.4810
      5  H          6.3290   -2.6750   -3.1370 H       1  UNL1        0.2960
      6  C          7.4250   -1.1570   -0.8040 C.3     1  UNL1        0.0470
      7  C          6.5540   -0.1830   -0.1480 C.2     1  UNL1       -0.0470
      8  C          6.1670    0.9650   -0.7990 C.2     1  UNL1        0.0040
      9  C          6.1200   -0.4270    1.1340 C.2     1  UNL1        0.0040
     10  C          5.3330    1.8500   -0.1120 C.2     1  UNL1        0.0000
     11  C          5.2960    0.4490    1.8120 C.2     1  UNL1        0.0000
     12  C          4.9040    1.6020    1.1670 C.2     1  UNL1        0.0000
@<TRIPOS>BOND
     1     4     5    1
     2     4     2    1
     3     3     2    2
     4     2     1    1
     5     1     6    1
     6     6     7    1
     7     8     7    2
     8     8    10    1
     9     7     9    1
    10    10    12    2
    11     9    11    2
    12    12    11    1
