@<TRIPOS>MOLECULE
/home/cewinharhar/GITHUB/reincatalyze/data/processed/docking_pred/2023_Apr_20-15:07/7e2b2812a39c1bf8d23d6aab3a18bb39f1acac0e_ligand_2.pdbqt
 12 12 0 0 0
SMALL
GASTEIGER

@<TRIPOS>ATOM
      1  C          5.5520    3.0400   -0.0910 C.3     1  UNL1        0.1270
      2  C          6.3100    3.9660    0.7830 C.2     1  UNL1        0.3030
      3  O          7.1520    4.7680    0.3080 O.2     1  UNL1       -0.2520
      4  O          6.1100    3.9710    2.1540 O.3     1  UNL1       -0.4810
      5  H          6.5360    4.7100    2.7200 H       1  UNL1        0.2960
      6  C          4.8750    2.0230    0.7760 C.3     1  UNL1        0.0470
      7  C          5.5920    0.7530    0.8730 C.2     1  UNL1       -0.0470
      8  C          5.6460    0.0650    2.0630 C.2     1  UNL1        0.0040
      9  C          6.2150    0.2460   -0.2440 C.2     1  UNL1        0.0040
     10  C          6.3470   -1.1420    2.0830 C.2     1  UNL1        0.0000
     11  C          6.9090   -0.9480   -0.2220 C.2     1  UNL1        0.0000
     12  C          6.9680   -1.6420    0.9670 C.2     1  UNL1        0.0000
@<TRIPOS>BOND
     1     9    11    1
     2     9     7    2
     3    11    12    2
     4     1     6    1
     5     1     2    1
     6     3     2    2
     7     6     7    1
     8     2     4    1
     9     7     8    1
    10    12    10    1
    11     8    10    2
    12     4     5    1
