@<TRIPOS>MOLECULE
/home/cewinharhar/GITHUB/reincatalyze/data/processed/docking_pred/2023_Apr_20-15:07/7e2b2812a39c1bf8d23d6aab3a18bb39f1acac0e_ligand_2.pdbqt
 12 12 0 0 0
SMALL
GASTEIGER

@<TRIPOS>ATOM
      1  C          8.4340   -0.6170   -2.1260 C.3     1  UNL1        0.1270
      2  C          8.4670   -1.8830   -2.8950 C.2     1  UNL1        0.3030
      3  O          9.5440   -2.5010   -3.0860 O.2     1  UNL1       -0.2520
      4  O          7.3070   -2.4220   -3.4260 O.3     1  UNL1       -0.4810
      5  H          7.0870   -3.4070   -3.2540 H       1  UNL1        0.2960
      6  C          7.0200   -0.1210   -2.0970 C.3     1  UNL1        0.0470
      7  C          6.4830    0.0660   -0.7500 C.2     1  UNL1       -0.0470
      8  C          5.8390    1.2310   -0.4050 C.2     1  UNL1        0.0040
      9  C          6.6270   -0.9410    0.1760 C.2     1  UNL1        0.0040
     10  C          5.3500    1.3410    0.8980 C.2     1  UNL1        0.0000
     11  C          6.1430   -0.8310    1.4640 C.2     1  UNL1        0.0000
     12  C          5.4970    0.3330    1.8180 C.2     1  UNL1        0.0000
@<TRIPOS>BOND
     1     4     5    1
     2     4     2    1
     3     3     2    2
     4     2     1    1
     5     1     6    1
     6     6     7    1
     7     7     8    2
     8     7     9    1
     9     8    10    1
    10     9    11    2
    11    10    12    2
    12    11    12    1
