MODEL 1
REMARK VINA RESULT:      -7.3      0.000      0.000
REMARK SMILES O=C(O)CCc1ccccc1
REMARK SMILES IDX 4 1 2 2 1 3 3 4 5 6 6 7 7 8 11 9 8 10 10 11 9 12
REMARK H PARENT 3 5
REMARK Flexibility Score: inf
ROOT
ATOM      1  C   UNL     1       8.434  -0.617  -2.126  1.00  0.00     0.127 C 
ENDROOT
BRANCH   1   2
ATOM      2  C   UNL     1       8.467  -1.883  -2.895  1.00  0.00     0.303 C 
ATOM      3  O   UNL     1       9.544  -2.501  -3.086  1.00  0.00    -0.252 OA
BRANCH   2   4
ATOM      4  O   UNL     1       7.307  -2.422  -3.426  1.00  0.00    -0.481 OA
ATOM      5  H   UNL     1       7.087  -3.407  -3.254  1.00  0.00     0.296 HD
ENDBRANCH   2   4
ENDBRANCH   1   2
BRANCH   1   6
ATOM      6  C   UNL     1       7.020  -0.121  -2.097  1.00  0.00     0.047 C 
BRANCH   6   7
ATOM      7  C   UNL     1       6.483   0.066  -0.750  1.00  0.00    -0.047 A 
ATOM      8  C   UNL     1       5.839   1.231  -0.405  1.00  0.00     0.004 A 
ATOM      9  C   UNL     1       6.627  -0.941   0.176  1.00  0.00     0.004 A 
ATOM     10  C   UNL     1       5.350   1.341   0.898  1.00  0.00     0.000 A 
ATOM     11  C   UNL     1       6.143  -0.831   1.464  1.00  0.00     0.000 A 
ATOM     12  C   UNL     1       5.497   0.333   1.818  1.00  0.00     0.000 A 
ENDBRANCH   6   7
ENDBRANCH   1   6
TORSDOF 4
ENDMDL
MODEL 2
REMARK VINA RESULT:      -7.3      0.080      1.439
REMARK SMILES O=C(O)CCc1ccccc1
REMARK SMILES IDX 4 1 2 2 1 3 3 4 5 6 6 7 7 8 11 9 8 10 10 11 9 12
REMARK H PARENT 3 5
REMARK Flexibility Score: inf
ROOT
ATOM      1  C   UNL     1       8.435  -0.570  -2.200  1.00  0.00     0.127 C 
ENDROOT
BRANCH   1   2
ATOM      2  C   UNL     1       8.489  -1.863  -2.922  1.00  0.00     0.303 C 
ATOM      3  O   UNL     1       9.577  -2.465  -3.099  1.00  0.00    -0.252 OA
BRANCH   2   4
ATOM      4  O   UNL     1       7.335  -2.445  -3.422  1.00  0.00    -0.481 OA
ATOM      5  H   UNL     1       6.467  -1.902  -3.440  1.00  0.00     0.296 HD
ENDBRANCH   2   4
ENDBRANCH   1   2
BRANCH   1   6
ATOM      6  C   UNL     1       7.008  -0.117  -2.151  1.00  0.00     0.047 C 
BRANCH   6   7
ATOM      7  C   UNL     1       6.478   0.037  -0.797  1.00  0.00    -0.047 A 
ATOM      8  C   UNL     1       6.608  -0.973   0.128  1.00  0.00     0.004 A 
ATOM      9  C   UNL     1       5.847   1.210  -0.453  1.00  0.00     0.004 A 
ATOM     10  C   UNL     1       6.080  -0.756   1.402  1.00  0.00     0.000 A 
ATOM     11  C   UNL     1       5.325   1.422   0.808  1.00  0.00     0.000 A 
ATOM     12  C   UNL     1       5.450   0.415   1.740  1.00  0.00     0.000 A 
ENDBRANCH   6   7
ENDBRANCH   1   6
TORSDOF 4
ENDMDL
MODEL 3
REMARK VINA RESULT:      -7.1      0.616      1.028
REMARK SMILES O=C(O)CCc1ccccc1
REMARK SMILES IDX 4 1 2 2 1 3 3 4 5 6 6 7 7 8 11 9 8 10 10 11 9 12
REMARK H PARENT 3 5
REMARK Flexibility Score: inf
ROOT
ATOM      1  C   UNL     1       7.966  -0.699  -2.124  1.00  0.00     0.127 C 
ENDROOT
BRANCH   1   2
ATOM      2  C   UNL     1       8.256  -1.895  -2.949  1.00  0.00     0.303 C 
ATOM      3  O   UNL     1       9.428  -2.326  -3.083  1.00  0.00    -0.252 OA
BRANCH   2   4
ATOM      4  O   UNL     1       7.237  -2.573  -3.599  1.00  0.00    -0.481 OA
ATOM      5  H   UNL     1       6.329  -2.675  -3.137  1.00  0.00     0.296 HD
ENDBRANCH   2   4
ENDBRANCH   1   2
BRANCH   1   6
ATOM      6  C   UNL     1       7.425  -1.157  -0.804  1.00  0.00     0.047 C 
BRANCH   6   7
ATOM      7  C   UNL     1       6.554  -0.183  -0.148  1.00  0.00    -0.047 A 
ATOM      8  C   UNL     1       6.167   0.965  -0.799  1.00  0.00     0.004 A 
ATOM      9  C   UNL     1       6.120  -0.427   1.134  1.00  0.00     0.004 A 
ATOM     10  C   UNL     1       5.333   1.850  -0.112  1.00  0.00     0.000 A 
ATOM     11  C   UNL     1       5.296   0.449   1.812  1.00  0.00     0.000 A 
ATOM     12  C   UNL     1       4.904   1.602   1.167  1.00  0.00     0.000 A 
ENDBRANCH   6   7
ENDBRANCH   1   6
TORSDOF 4
ENDMDL
MODEL 4
REMARK VINA RESULT:      -6.8      3.376      5.080
REMARK SMILES O=C(O)CCc1ccccc1
REMARK SMILES IDX 4 1 2 2 1 3 3 4 5 6 6 7 7 8 11 9 8 10 10 11 9 12
REMARK H PARENT 3 5
REMARK Flexibility Score: inf
ROOT
ATOM      1  C   UNL     1       5.009   1.796   0.717  1.00  0.00     0.127 C 
ENDROOT
BRANCH   1   2
ATOM      2  C   UNL     1       4.484   1.111   1.922  1.00  0.00     0.303 C 
ATOM      3  O   UNL     1       5.136   0.200   2.489  1.00  0.00    -0.252 OA
BRANCH   2   4
ATOM      4  O   UNL     1       3.254   1.459   2.457  1.00  0.00    -0.481 OA
ATOM      5  H   UNL     1       2.769   0.797   3.069  1.00  0.00     0.296 HD
ENDBRANCH   2   4
ENDBRANCH   1   2
BRANCH   1   6
ATOM      6  C   UNL     1       6.506   1.757   0.768  1.00  0.00     0.047 C 
BRANCH   6   7
ATOM      7  C   UNL     1       7.119   1.008  -0.328  1.00  0.00    -0.047 A 
ATOM      8  C   UNL     1       6.390   0.087  -1.044  1.00  0.00     0.004 A 
ATOM      9  C   UNL     1       8.439   1.235  -0.640  1.00  0.00     0.004 A 
ATOM     10  C   UNL     1       7.040  -0.591  -2.078  1.00  0.00     0.000 A 
ATOM     11  C   UNL     1       9.080   0.564  -1.662  1.00  0.00     0.000 A 
ATOM     12  C   UNL     1       8.358  -0.361  -2.385  1.00  0.00     0.000 A 
ENDBRANCH   6   7
ENDBRANCH   1   6
TORSDOF 4
ENDMDL
MODEL 5
REMARK VINA RESULT:      -6.6      3.805      4.965
REMARK SMILES O=C(O)CCc1ccccc1
REMARK SMILES IDX 4 1 2 2 1 3 3 4 5 6 6 7 7 8 11 9 8 10 10 11 9 12
REMARK H PARENT 3 5
REMARK Flexibility Score: inf
ROOT
ATOM      1  C   UNL     1       5.552   3.040  -0.091  1.00  0.00     0.127 C 
ENDROOT
BRANCH   1   2
ATOM      2  C   UNL     1       6.310   3.966   0.783  1.00  0.00     0.303 C 
ATOM      3  O   UNL     1       7.152   4.768   0.308  1.00  0.00    -0.252 OA
BRANCH   2   4
ATOM      4  O   UNL     1       6.110   3.971   2.154  1.00  0.00    -0.481 OA
ATOM      5  H   UNL     1       6.536   4.710   2.720  1.00  0.00     0.296 HD
ENDBRANCH   2   4
ENDBRANCH   1   2
BRANCH   1   6
ATOM      6  C   UNL     1       4.875   2.023   0.776  1.00  0.00     0.047 C 
BRANCH   6   7
ATOM      7  C   UNL     1       5.592   0.753   0.873  1.00  0.00    -0.047 A 
ATOM      8  C   UNL     1       5.646   0.065   2.063  1.00  0.00     0.004 A 
ATOM      9  C   UNL     1       6.215   0.246  -0.244  1.00  0.00     0.004 A 
ATOM     10  C   UNL     1       6.347  -1.142   2.083  1.00  0.00     0.000 A 
ATOM     11  C   UNL     1       6.909  -0.948  -0.222  1.00  0.00     0.000 A 
ATOM     12  C   UNL     1       6.968  -1.642   0.967  1.00  0.00     0.000 A 
ENDBRANCH   6   7
ENDBRANCH   1   6
TORSDOF 4
ENDMDL
