@<TRIPOS>MOLECULE
/home/cewinharhar/GITHUB/reincatalyze/data/processed/docking_pred/2023_Apr_20-15:07/7e2b2812a39c1bf8d23d6aab3a18bb39f1acac0e_ligand_2.pdbqt
 12 12 0 0 0
SMALL
GASTEIGER

@<TRIPOS>ATOM
      1  C          8.4350   -0.5700   -2.2000 C.3     1  UNL1        0.1270
      2  C          8.4890   -1.8630   -2.9220 C.2     1  UNL1        0.3030
      3  O          9.5770   -2.4650   -3.0990 O.2     1  UNL1       -0.2520
      4  O          7.3350   -2.4450   -3.4220 O.3     1  UNL1       -0.4810
      5  H          6.4670   -1.9020   -3.4400 H       1  UNL1        0.2960
      6  C          7.0080   -0.1170   -2.1510 C.3     1  UNL1        0.0470
      7  C          6.4780    0.0370   -0.7970 C.2     1  UNL1       -0.0470
      8  C          6.6080   -0.9730    0.1280 C.2     1  UNL1        0.0040
      9  C          5.8470    1.2100   -0.4530 C.2     1  UNL1        0.0040
     10  C          6.0800   -0.7560    1.4020 C.2     1  UNL1        0.0000
     11  C          5.3250    1.4220    0.8080 C.2     1  UNL1        0.0000
     12  C          5.4500    0.4150    1.7400 C.2     1  UNL1        0.0000
@<TRIPOS>BOND
     1     5     4    1
     2     4     2    1
     3     3     2    2
     4     2     1    1
     5     1     6    1
     6     6     7    1
     7     7     9    2
     8     7     8    1
     9     9    11    1
    10     8    10    2
    11    11    12    2
    12    10    12    1
