@<TRIPOS>MOLECULE
/home/cewinharhar/GITHUB/reincatalyze/data/processed/docking_pred/2023_Apr_20-15:07/80c9945afd0f5f9f0270d56cce32b054e5c09707_ligand_2.pdbqt
 12 12 0 0 0
SMALL
GASTEIGER

@<TRIPOS>ATOM
      1  C          8.4240   -0.5920   -2.1820 C.3     1  UNL1        0.1270
      2  C          8.3970   -1.8790   -2.9160 C.2     1  UNL1        0.3030
      3  O          7.3110   -2.4230   -3.2360 O.2     1  UNL1       -0.2520
      4  O          9.5740   -2.5180   -3.2720 O.3     1  UNL1       -0.4810
      5  H          9.6270   -3.0060   -4.1700 H       1  UNL1        0.2960
      6  C          7.0280   -0.0510   -2.1280 C.3     1  UNL1        0.0470
      7  C          6.4900    0.0730   -0.7750 C.2     1  UNL1       -0.0470
      8  C          6.5960   -0.9640    0.1220 C.2     1  UNL1        0.0040
      9  C          5.8740    1.2460   -0.4020 C.2     1  UNL1        0.0040
     10  C          6.0600   -0.7750    1.3980 C.2     1  UNL1        0.0000
     11  C          5.3440    1.4310    0.8590 C.2     1  UNL1        0.0000
     12  C          5.4450    0.3960    1.7640 C.2     1  UNL1        0.0000
@<TRIPOS>BOND
     1     5     4    1
     2     4     2    1
     3     3     2    2
     4     2     1    1
     5     1     6    1
     6     6     7    1
     7     7     9    2
     8     7     8    1
     9     9    11    1
    10     8    10    2
    11    11    12    2
    12    10    12    1
