@<TRIPOS>MOLECULE
/home/cewinharhar/GITHUB/reincatalyze/data/processed/docking_pred/2023_Apr_20-15:07/80c9945afd0f5f9f0270d56cce32b054e5c09707_ligand_2.pdbqt
 12 12 0 0 0
SMALL
GASTEIGER

@<TRIPOS>ATOM
      1  C          5.0630    1.7950    0.7480 C.3     1  UNL1        0.1270
      2  C          4.4850    1.1050    1.9250 C.2     1  UNL1        0.3030
      3  O          5.0930    0.1620    2.4900 O.2     1  UNL1       -0.2520
      4  O          3.2540    1.4820    2.4360 O.3     1  UNL1       -0.4810
      5  H          2.4520    0.8560    2.3260 H       1  UNL1        0.2960
      6  C          6.5560    1.6930    0.8290 C.3     1  UNL1        0.0470
      7  C          7.1650    0.9820   -0.2940 C.2     1  UNL1       -0.0470
      8  C          8.4540    1.2600   -0.6870 C.2     1  UNL1        0.0040
      9  C          6.4340    0.0250   -0.9580 C.2     1  UNL1        0.0040
     10  C          8.9710    0.5420   -1.7670 C.2     1  UNL1        0.0000
     11  C          6.9470   -0.6840   -2.0260 C.2     1  UNL1        0.0000
     12  C          8.2370   -0.4120   -2.4260 C.2     1  UNL1        0.0000
@<TRIPOS>BOND
     1    12    11    2
     2    12    10    1
     3    11     9    1
     4    10     8    2
     5     9     7    2
     6     8     7    1
     7     7     6    1
     8     1     6    1
     9     1     2    1
    10     2     4    1
    11     2     3    2
    12     5     4    1
