@<TRIPOS>MOLECULE
/home/cewinharhar/GITHUB/reincatalyze/data/processed/docking_pred/2023_Apr_20-15:07/80c9945afd0f5f9f0270d56cce32b054e5c09707_ligand_2.pdbqt
 12 12 0 0 0
SMALL
GASTEIGER

@<TRIPOS>ATOM
      1  C          5.3270    2.9750    0.0780 C.3     1  UNL1        0.1270
      2  C          6.2150    3.8850    0.8400 C.2     1  UNL1        0.3030
      3  O          6.8880    4.7740    0.2610 O.2     1  UNL1       -0.2520
      4  O          6.3280    3.7790    2.2170 O.3     1  UNL1       -0.4810
      5  H          7.1970    4.0700    2.6720 H       1  UNL1        0.2960
      6  C          5.2130    1.6870    0.8350 C.3     1  UNL1        0.0470
      7  C          5.9820    0.5870    0.2550 C.2     1  UNL1       -0.0470
      8  C          6.3780   -0.4780    1.0300 C.2     1  UNL1        0.0040
      9  C          6.3060    0.6250   -1.0810 C.2     1  UNL1        0.0040
     10  C          7.1100   -1.4940    0.4100 C.2     1  UNL1        0.0000
     11  C          7.0290   -0.3790   -1.6920 C.2     1  UNL1        0.0000
     12  C          7.4310   -1.4500   -0.9230 C.2     1  UNL1        0.0000
@<TRIPOS>BOND
     1    11     9    1
     2    11    12    2
     3     9     7    2
     4    12    10    1
     5     1     6    1
     6     1     2    1
     7     7     6    1
     8     7     8    1
     9     3     2    2
    10    10     8    2
    11     2     4    1
    12     4     5    1
