@<TRIPOS>MOLECULE
/home/cewinharhar/GITHUB/reincatalyze/data/processed/docking_pred/2023_Apr_20-15:07/80c9945afd0f5f9f0270d56cce32b054e5c09707_ligand_2.pdbqt
 12 12 0 0 0
SMALL
GASTEIGER

@<TRIPOS>ATOM
      1  C          8.4610   -0.7340   -1.9130 C.3     1  UNL1        0.1270
      2  C          8.3940   -1.9160   -2.8050 C.2     1  UNL1        0.3030
      3  O          7.2910   -2.3870   -3.1780 O.2     1  UNL1       -0.2520
      4  O          9.5500   -2.5340   -3.2530 O.3     1  UNL1       -0.4810
      5  H         10.4370   -2.3380   -2.7820 H       1  UNL1        0.2960
      6  C          7.1480   -0.0170   -1.9820 C.3     1  UNL1        0.0470
      7  C          6.5040    0.1710   -0.6830 C.2     1  UNL1       -0.0470
      8  C          5.8170    1.3290   -0.3990 C.2     1  UNL1        0.0040
      9  C          6.5890   -0.8280    0.2590 C.2     1  UNL1        0.0040
     10  C          5.2260    1.4400    0.8610 C.2     1  UNL1        0.0000
     11  C          6.0050   -0.7160    1.5050 C.2     1  UNL1        0.0000
     12  C          5.3160    0.4400    1.7980 C.2     1  UNL1        0.0000
@<TRIPOS>BOND
     1     4     2    1
     2     4     5    1
     3     3     2    2
     4     2     1    1
     5     6     1    1
     6     6     7    1
     7     7     8    2
     8     7     9    1
     9     8    10    1
    10     9    11    2
    11    10    12    2
    12    11    12    1
