MODEL 1
REMARK VINA RESULT:      -7.2      0.000      0.000
REMARK SMILES O=C(O)CCc1ccccc1
REMARK SMILES IDX 4 1 2 2 1 3 3 4 5 6 6 7 7 8 11 9 8 10 10 11 9 12
REMARK H PARENT 3 5
REMARK Flexibility Score: inf
ROOT
ATOM      1  C   UNL     1       8.461  -0.734  -1.913  1.00  0.00     0.127 C 
ENDROOT
BRANCH   1   2
ATOM      2  C   UNL     1       8.394  -1.916  -2.805  1.00  0.00     0.303 C 
ATOM      3  O   UNL     1       7.291  -2.387  -3.178  1.00  0.00    -0.252 OA
BRANCH   2   4
ATOM      4  O   UNL     1       9.550  -2.534  -3.253  1.00  0.00    -0.481 OA
ATOM      5  H   UNL     1      10.437  -2.338  -2.782  1.00  0.00     0.296 HD
ENDBRANCH   2   4
ENDBRANCH   1   2
BRANCH   1   6
ATOM      6  C   UNL     1       7.148  -0.017  -1.982  1.00  0.00     0.047 C 
BRANCH   6   7
ATOM      7  C   UNL     1       6.504   0.171  -0.683  1.00  0.00    -0.047 A 
ATOM      8  C   UNL     1       5.817   1.329  -0.399  1.00  0.00     0.004 A 
ATOM      9  C   UNL     1       6.589  -0.828   0.259  1.00  0.00     0.004 A 
ATOM     10  C   UNL     1       5.226   1.440   0.861  1.00  0.00     0.000 A 
ATOM     11  C   UNL     1       6.005  -0.716   1.505  1.00  0.00     0.000 A 
ATOM     12  C   UNL     1       5.316   0.440   1.798  1.00  0.00     0.000 A 
ENDBRANCH   6   7
ENDBRANCH   1   6
TORSDOF 4
ENDMDL
MODEL 2
REMARK VINA RESULT:      -7.2      0.156      1.444
REMARK SMILES O=C(O)CCc1ccccc1
REMARK SMILES IDX 4 1 2 2 1 3 3 4 5 6 6 7 7 8 11 9 8 10 10 11 9 12
REMARK H PARENT 3 5
REMARK Flexibility Score: inf
ROOT
ATOM      1  C   UNL     1       8.424  -0.592  -2.182  1.00  0.00     0.127 C 
ENDROOT
BRANCH   1   2
ATOM      2  C   UNL     1       8.397  -1.879  -2.916  1.00  0.00     0.303 C 
ATOM      3  O   UNL     1       7.311  -2.423  -3.236  1.00  0.00    -0.252 OA
BRANCH   2   4
ATOM      4  O   UNL     1       9.574  -2.518  -3.272  1.00  0.00    -0.481 OA
ATOM      5  H   UNL     1       9.627  -3.006  -4.170  1.00  0.00     0.296 HD
ENDBRANCH   2   4
ENDBRANCH   1   2
BRANCH   1   6
ATOM      6  C   UNL     1       7.028  -0.051  -2.128  1.00  0.00     0.047 C 
BRANCH   6   7
ATOM      7  C   UNL     1       6.490   0.073  -0.775  1.00  0.00    -0.047 A 
ATOM      8  C   UNL     1       6.596  -0.964   0.122  1.00  0.00     0.004 A 
ATOM      9  C   UNL     1       5.874   1.246  -0.402  1.00  0.00     0.004 A 
ATOM     10  C   UNL     1       6.060  -0.775   1.398  1.00  0.00     0.000 A 
ATOM     11  C   UNL     1       5.344   1.431   0.859  1.00  0.00     0.000 A 
ATOM     12  C   UNL     1       5.445   0.396   1.764  1.00  0.00     0.000 A 
ENDBRANCH   6   7
ENDBRANCH   1   6
TORSDOF 4
ENDMDL
MODEL 3
REMARK VINA RESULT:      -6.7      3.283      5.110
REMARK SMILES O=C(O)CCc1ccccc1
REMARK SMILES IDX 4 1 2 2 1 3 3 4 5 6 6 7 7 8 11 9 8 10 10 11 9 12
REMARK H PARENT 3 5
REMARK Flexibility Score: inf
ROOT
ATOM      1  C   UNL     1       5.063   1.795   0.748  1.00  0.00     0.127 C 
ENDROOT
BRANCH   1   2
ATOM      2  C   UNL     1       4.485   1.105   1.925  1.00  0.00     0.303 C 
ATOM      3  O   UNL     1       5.093   0.162   2.490  1.00  0.00    -0.252 OA
BRANCH   2   4
ATOM      4  O   UNL     1       3.254   1.482   2.436  1.00  0.00    -0.481 OA
ATOM      5  H   UNL     1       2.452   0.856   2.326  1.00  0.00     0.296 HD
ENDBRANCH   2   4
ENDBRANCH   1   2
BRANCH   1   6
ATOM      6  C   UNL     1       6.556   1.693   0.829  1.00  0.00     0.047 C 
BRANCH   6   7
ATOM      7  C   UNL     1       7.165   0.982  -0.294  1.00  0.00    -0.047 A 
ATOM      8  C   UNL     1       8.454   1.260  -0.687  1.00  0.00     0.004 A 
ATOM      9  C   UNL     1       6.434   0.025  -0.958  1.00  0.00     0.004 A 
ATOM     10  C   UNL     1       8.971   0.542  -1.767  1.00  0.00     0.000 A 
ATOM     11  C   UNL     1       6.947  -0.684  -2.026  1.00  0.00     0.000 A 
ATOM     12  C   UNL     1       8.237  -0.412  -2.426  1.00  0.00     0.000 A 
ENDBRANCH   6   7
ENDBRANCH   1   6
TORSDOF 4
ENDMDL
MODEL 4
REMARK VINA RESULT:      -6.7      1.921      2.592
REMARK SMILES O=C(O)CCc1ccccc1
REMARK SMILES IDX 4 1 2 2 1 3 3 4 5 6 6 7 7 8 11 9 8 10 10 11 9 12
REMARK H PARENT 3 5
REMARK Flexibility Score: inf
ROOT
ATOM      1  C   UNL     1       8.250   0.255  -2.168  1.00  0.00     0.127 C 
ENDROOT
BRANCH   1   2
ATOM      2  C   UNL     1       9.384   0.375  -1.222  1.00  0.00     0.303 C 
ATOM      3  O   UNL     1       9.482  -0.382  -0.224  1.00  0.00    -0.252 OA
BRANCH   2   4
ATOM      4  O   UNL     1      10.370   1.329  -1.413  1.00  0.00    -0.481 OA
ATOM      5  H   UNL     1      10.712   1.513  -2.361  1.00  0.00     0.296 HD
ENDBRANCH   2   4
ENDBRANCH   1   2
BRANCH   1   6
ATOM      6  C   UNL     1       7.158  -0.524  -1.499  1.00  0.00     0.047 C 
BRANCH   6   7
ATOM      7  C   UNL     1       6.364   0.259  -0.554  1.00  0.00    -0.047 A 
ATOM      8  C   UNL     1       6.145  -0.196   0.726  1.00  0.00     0.004 A 
ATOM      9  C   UNL     1       5.835   1.463  -0.957  1.00  0.00     0.004 A 
ATOM     10  C   UNL     1       5.377   0.605   1.576  1.00  0.00     0.000 A 
ATOM     11  C   UNL     1       5.076   2.253  -0.116  1.00  0.00     0.000 A 
ATOM     12  C   UNL     1       4.852   1.804   1.168  1.00  0.00     0.000 A 
ENDBRANCH   6   7
ENDBRANCH   1   6
TORSDOF 4
ENDMDL
MODEL 5
REMARK VINA RESULT:      -6.6      3.673      5.111
REMARK SMILES O=C(O)CCc1ccccc1
REMARK SMILES IDX 4 1 2 2 1 3 3 4 5 6 6 7 7 8 11 9 8 10 10 11 9 12
REMARK H PARENT 3 5
REMARK Flexibility Score: inf
ROOT
ATOM      1  C   UNL     1       5.327   2.975   0.078  1.00  0.00     0.127 C 
ENDROOT
BRANCH   1   2
ATOM      2  C   UNL     1       6.215   3.885   0.840  1.00  0.00     0.303 C 
ATOM      3  O   UNL     1       6.888   4.774   0.261  1.00  0.00    -0.252 OA
BRANCH   2   4
ATOM      4  O   UNL     1       6.328   3.779   2.217  1.00  0.00    -0.481 OA
ATOM      5  H   UNL     1       7.197   4.070   2.672  1.00  0.00     0.296 HD
ENDBRANCH   2   4
ENDBRANCH   1   2
BRANCH   1   6
ATOM      6  C   UNL     1       5.213   1.687   0.835  1.00  0.00     0.047 C 
BRANCH   6   7
ATOM      7  C   UNL     1       5.982   0.587   0.255  1.00  0.00    -0.047 A 
ATOM      8  C   UNL     1       6.378  -0.478   1.030  1.00  0.00     0.004 A 
ATOM      9  C   UNL     1       6.306   0.625  -1.081  1.00  0.00     0.004 A 
ATOM     10  C   UNL     1       7.110  -1.494   0.410  1.00  0.00     0.000 A 
ATOM     11  C   UNL     1       7.029  -0.379  -1.692  1.00  0.00     0.000 A 
ATOM     12  C   UNL     1       7.431  -1.450  -0.923  1.00  0.00     0.000 A 
ENDBRANCH   6   7
ENDBRANCH   1   6
TORSDOF 4
ENDMDL
