@<TRIPOS>MOLECULE
/home/cewinharhar/GITHUB/reincatalyze/data/processed/docking_pred/2023_Apr_20-15:07/80c9945afd0f5f9f0270d56cce32b054e5c09707_ligand_2.pdbqt
 12 12 0 0 0
SMALL
GASTEIGER

@<TRIPOS>ATOM
      1  C          8.2500    0.2550   -2.1680 C.3     1  UNL1        0.1270
      2  C          9.3840    0.3750   -1.2220 C.2     1  UNL1        0.3030
      3  O          9.4820   -0.3820   -0.2240 O.2     1  UNL1       -0.2520
      4  O         10.3700    1.3290   -1.4130 O.3     1  UNL1       -0.4810
      5  H         10.7120    1.5130   -2.3610 H       1  UNL1        0.2960
      6  C          7.1580   -0.5240   -1.4990 C.3     1  UNL1        0.0470
      7  C          6.3640    0.2590   -0.5540 C.2     1  UNL1       -0.0470
      8  C          6.1450   -0.1960    0.7260 C.2     1  UNL1        0.0040
      9  C          5.8350    1.4630   -0.9570 C.2     1  UNL1        0.0040
     10  C          5.3770    0.6050    1.5760 C.2     1  UNL1        0.0000
     11  C          5.0760    2.2530   -0.1160 C.2     1  UNL1        0.0000
     12  C          4.8520    1.8040    1.1680 C.2     1  UNL1        0.0000
@<TRIPOS>BOND
     1     5     4    1
     2     1     6    1
     3     1     2    1
     4     6     7    1
     5     4     2    1
     6     2     3    2
     7     9     7    2
     8     9    11    1
     9     7     8    1
    10    11    12    2
    11     8    10    2
    12    12    10    1
