@<TRIPOS>MOLECULE
/home/cewinharhar/GITHUB/reincatalyze/data/processed/docking_pred/2023_Apr_20-15:07/82066193004a6cdbe54a2a950d109d8cafa96b54_ligand_2.pdbqt
 12 12 0 0 0
SMALL
GASTEIGER

@<TRIPOS>ATOM
      1  C          5.0110    1.7640    0.6780 C.3     1  UNL1        0.1270
      2  C          4.4930    1.1060    1.9010 C.2     1  UNL1        0.3030
      3  O          5.1470    0.2030    2.4800 O.2     1  UNL1       -0.2520
      4  O          3.2700    1.4690    2.4390 O.3     1  UNL1       -0.4810
      5  H          2.4140    1.2840    1.9080 H       1  UNL1        0.2960
      6  C          6.5080    1.7730    0.7460 C.3     1  UNL1        0.0470
      7  C          7.1560    1.0300   -0.3330 C.2     1  UNL1       -0.0470
      8  C          8.4760    1.2560   -0.6480 C.2     1  UNL1        0.0040
      9  C          6.4310    0.0950   -1.0340 C.2     1  UNL1        0.0040
     10  C          9.0310    0.5090   -1.6900 C.2     1  UNL1        0.0000
     11  C          6.9810   -0.6420   -2.0640 C.2     1  UNL1        0.0000
     12  C          8.3020   -0.4220   -2.3870 C.2     1  UNL1        0.0000
@<TRIPOS>BOND
     1    12    11    2
     2    12    10    1
     3    11     9    1
     4    10     8    2
     5     9     7    2
     6     8     7    1
     7     7     6    1
     8     1     6    1
     9     1     2    1
    10     2     4    1
    11     2     3    2
    12     5     4    1
