@<TRIPOS>MOLECULE
/home/cewinharhar/GITHUB/reincatalyze/data/processed/docking_pred/2023_Apr_20-15:07/82066193004a6cdbe54a2a950d109d8cafa96b54_ligand_2.pdbqt
 12 12 0 0 0
SMALL
GASTEIGER

@<TRIPOS>ATOM
      1  C          8.4240   -0.5810   -2.1750 C.3     1  UNL1        0.1270
      2  C          8.4860   -1.8720   -2.9010 C.2     1  UNL1        0.3030
      3  O          9.5790   -2.4600   -3.0900 O.2     1  UNL1       -0.2520
      4  O          7.3350   -2.4660   -3.3930 O.3     1  UNL1       -0.4810
      5  H          6.4700   -1.9200   -3.4400 H       1  UNL1        0.2960
      6  C          6.9960   -0.1270   -2.1430 C.3     1  UNL1        0.0470
      7  C          6.4600    0.0550   -0.7960 C.2     1  UNL1       -0.0470
      8  C          5.8210    1.2220   -0.4450 C.2     1  UNL1        0.0040
      9  C          6.5990   -0.9570    0.1250 C.2     1  UNL1        0.0040
     10  C          5.3330    1.3270    0.8600 C.2     1  UNL1        0.0000
     11  C          6.1170   -0.8520    1.4140 C.2     1  UNL1        0.0000
     12  C          5.4760    0.3140    1.7740 C.2     1  UNL1        0.0000
@<TRIPOS>BOND
     1     5     4    1
     2     4     2    1
     3     3     2    2
     4     2     1    1
     5     1     6    1
     6     6     7    1
     7     7     8    2
     8     7     9    1
     9     8    10    1
    10     9    11    2
    11    10    12    2
    12    11    12    1
