@<TRIPOS>MOLECULE
/home/cewinharhar/GITHUB/reincatalyze/data/processed/docking_pred/2023_Apr_20-15:07/82066193004a6cdbe54a2a950d109d8cafa96b54_ligand_2.pdbqt
 12 12 0 0 0
SMALL
GASTEIGER

@<TRIPOS>ATOM
      1  C          8.4710   -0.6560   -2.0710 C.3     1  UNL1        0.1270
      2  C          8.4010   -1.9010   -2.8720 C.2     1  UNL1        0.3030
      3  O          7.2980   -2.3970   -3.2080 O.2     1  UNL1       -0.2520
      4  O          9.5560   -2.5530   -3.2720 O.3     1  UNL1       -0.4810
      5  H         10.1440   -3.0080   -2.5680 H       1  UNL1        0.2960
      6  C          7.1160   -0.0170   -2.0740 C.3     1  UNL1        0.0470
      7  C          6.5170    0.1140   -0.7470 C.2     1  UNL1       -0.0470
      8  C          6.6380   -0.8930    0.1820 C.2     1  UNL1        0.0040
      9  C          5.8290    1.2630   -0.4320 C.2     1  UNL1        0.0040
     10  C          6.0420   -0.6990    1.4300 C.2     1  UNL1        0.0000
     11  C          5.2390    1.4530    0.8020 C.2     1  UNL1        0.0000
     12  C          5.3550    0.4490    1.7380 C.2     1  UNL1        0.0000
@<TRIPOS>BOND
     1     4     2    1
     2     4     5    1
     3     3     2    2
     4     2     1    1
     5     6     1    1
     6     6     7    1
     7     7     9    2
     8     7     8    1
     9     9    11    1
    10     8    10    2
    11    11    12    2
    12    10    12    1
