MODEL 1
REMARK VINA RESULT:      -7.3      0.000      0.000
REMARK SMILES O=C(O)CCc1ccccc1
REMARK SMILES IDX 4 1 2 2 1 3 3 4 5 6 6 7 7 8 11 9 8 10 10 11 9 12
REMARK H PARENT 3 5
REMARK Flexibility Score: inf
ROOT
ATOM      1  C   UNL     1       8.424  -0.581  -2.175  1.00  0.00     0.127 C 
ENDROOT
BRANCH   1   2
ATOM      2  C   UNL     1       8.486  -1.872  -2.901  1.00  0.00     0.303 C 
ATOM      3  O   UNL     1       9.579  -2.460  -3.090  1.00  0.00    -0.252 OA
BRANCH   2   4
ATOM      4  O   UNL     1       7.335  -2.466  -3.393  1.00  0.00    -0.481 OA
ATOM      5  H   UNL     1       6.470  -1.920  -3.440  1.00  0.00     0.296 HD
ENDBRANCH   2   4
ENDBRANCH   1   2
BRANCH   1   6
ATOM      6  C   UNL     1       6.996  -0.127  -2.143  1.00  0.00     0.047 C 
BRANCH   6   7
ATOM      7  C   UNL     1       6.460   0.055  -0.796  1.00  0.00    -0.047 A 
ATOM      8  C   UNL     1       5.821   1.222  -0.445  1.00  0.00     0.004 A 
ATOM      9  C   UNL     1       6.599  -0.957   0.125  1.00  0.00     0.004 A 
ATOM     10  C   UNL     1       5.333   1.327   0.860  1.00  0.00     0.000 A 
ATOM     11  C   UNL     1       6.117  -0.852   1.414  1.00  0.00     0.000 A 
ATOM     12  C   UNL     1       5.476   0.314   1.774  1.00  0.00     0.000 A 
ENDBRANCH   6   7
ENDBRANCH   1   6
TORSDOF 4
ENDMDL
MODEL 2
REMARK VINA RESULT:      -7.3      0.152      1.733
REMARK SMILES O=C(O)CCc1ccccc1
REMARK SMILES IDX 4 1 2 2 1 3 3 4 5 6 6 7 7 8 11 9 8 10 10 11 9 12
REMARK H PARENT 3 5
REMARK Flexibility Score: inf
ROOT
ATOM      1  C   UNL     1       8.471  -0.656  -2.071  1.00  0.00     0.127 C 
ENDROOT
BRANCH   1   2
ATOM      2  C   UNL     1       8.401  -1.901  -2.872  1.00  0.00     0.303 C 
ATOM      3  O   UNL     1       7.298  -2.397  -3.208  1.00  0.00    -0.252 OA
BRANCH   2   4
ATOM      4  O   UNL     1       9.556  -2.553  -3.272  1.00  0.00    -0.481 OA
ATOM      5  H   UNL     1      10.144  -3.008  -2.568  1.00  0.00     0.296 HD
ENDBRANCH   2   4
ENDBRANCH   1   2
BRANCH   1   6
ATOM      6  C   UNL     1       7.116  -0.017  -2.074  1.00  0.00     0.047 C 
BRANCH   6   7
ATOM      7  C   UNL     1       6.517   0.114  -0.747  1.00  0.00    -0.047 A 
ATOM      8  C   UNL     1       6.638  -0.893   0.182  1.00  0.00     0.004 A 
ATOM      9  C   UNL     1       5.829   1.263  -0.432  1.00  0.00     0.004 A 
ATOM     10  C   UNL     1       6.042  -0.699   1.430  1.00  0.00     0.000 A 
ATOM     11  C   UNL     1       5.239   1.453   0.802  1.00  0.00     0.000 A 
ATOM     12  C   UNL     1       5.355   0.449   1.738  1.00  0.00     0.000 A 
ENDBRANCH   6   7
ENDBRANCH   1   6
TORSDOF 4
ENDMDL
MODEL 3
REMARK VINA RESULT:      -6.8      3.376      5.045
REMARK SMILES O=C(O)CCc1ccccc1
REMARK SMILES IDX 4 1 2 2 1 3 3 4 5 6 6 7 7 8 11 9 8 10 10 11 9 12
REMARK H PARENT 3 5
REMARK Flexibility Score: inf
ROOT
ATOM      1  C   UNL     1       5.011   1.764   0.678  1.00  0.00     0.127 C 
ENDROOT
BRANCH   1   2
ATOM      2  C   UNL     1       4.493   1.106   1.901  1.00  0.00     0.303 C 
ATOM      3  O   UNL     1       5.147   0.203   2.480  1.00  0.00    -0.252 OA
BRANCH   2   4
ATOM      4  O   UNL     1       3.270   1.469   2.439  1.00  0.00    -0.481 OA
ATOM      5  H   UNL     1       2.414   1.284   1.908  1.00  0.00     0.296 HD
ENDBRANCH   2   4
ENDBRANCH   1   2
BRANCH   1   6
ATOM      6  C   UNL     1       6.508   1.773   0.746  1.00  0.00     0.047 C 
BRANCH   6   7
ATOM      7  C   UNL     1       7.156   1.030  -0.333  1.00  0.00    -0.047 A 
ATOM      8  C   UNL     1       8.476   1.256  -0.648  1.00  0.00     0.004 A 
ATOM      9  C   UNL     1       6.431   0.095  -1.034  1.00  0.00     0.004 A 
ATOM     10  C   UNL     1       9.031   0.509  -1.690  1.00  0.00     0.000 A 
ATOM     11  C   UNL     1       6.981  -0.642  -2.064  1.00  0.00     0.000 A 
ATOM     12  C   UNL     1       8.302  -0.422  -2.387  1.00  0.00     0.000 A 
ENDBRANCH   6   7
ENDBRANCH   1   6
TORSDOF 4
ENDMDL
MODEL 4
REMARK VINA RESULT:      -6.7      3.827      4.880
REMARK SMILES O=C(O)CCc1ccccc1
REMARK SMILES IDX 4 1 2 2 1 3 3 4 5 6 6 7 7 8 11 9 8 10 10 11 9 12
REMARK H PARENT 3 5
REMARK Flexibility Score: inf
ROOT
ATOM      1  C   UNL     1       5.544   2.853  -0.059  1.00  0.00     0.127 C 
ENDROOT
BRANCH   1   2
ATOM      2  C   UNL     1       6.287   3.835   0.766  1.00  0.00     0.303 C 
ATOM      3  O   UNL     1       6.931   4.774   0.237  1.00  0.00    -0.252 OA
BRANCH   2   4
ATOM      4  O   UNL     1       6.290   3.742   2.149  1.00  0.00    -0.481 OA
ATOM      5  H   UNL     1       5.412   3.558   2.641  1.00  0.00     0.296 HD
ENDBRANCH   2   4
ENDBRANCH   1   2
BRANCH   1   6
ATOM      6  C   UNL     1       4.955   1.821   0.854  1.00  0.00     0.047 C 
BRANCH   6   7
ATOM      7  C   UNL     1       5.705   0.567   0.896  1.00  0.00    -0.047 A 
ATOM      8  C   UNL     1       6.370   0.107  -0.217  1.00  0.00     0.004 A 
ATOM      9  C   UNL     1       5.742  -0.154   2.068  1.00  0.00     0.004 A 
ATOM     10  C   UNL     1       7.067  -1.098  -0.103  1.00  0.00     0.000 A 
ATOM     11  C   UNL     1       6.431  -1.345   2.178  1.00  0.00     0.000 A 
ATOM     12  C   UNL     1       7.099  -1.813   1.067  1.00  0.00     0.000 A 
ENDBRANCH   6   7
ENDBRANCH   1   6
TORSDOF 4
ENDMDL
MODEL 5
REMARK VINA RESULT:      -6.7      1.908      2.653
REMARK SMILES O=C(O)CCc1ccccc1
REMARK SMILES IDX 4 1 2 2 1 3 3 4 5 6 6 7 7 8 11 9 8 10 10 11 9 12
REMARK H PARENT 3 5
REMARK Flexibility Score: inf
ROOT
ATOM      1  C   UNL     1       8.196   0.243  -2.211  1.00  0.00     0.127 C 
ENDROOT
BRANCH   1   2
ATOM      2  C   UNL     1       9.328   0.346  -1.260  1.00  0.00     0.303 C 
ATOM      3  O   UNL     1       9.423  -0.427  -0.275  1.00  0.00    -0.252 OA
BRANCH   2   4
ATOM      4  O   UNL     1      10.316   1.302  -1.433  1.00  0.00    -0.481 OA
ATOM      5  H   UNL     1      10.566   1.911  -0.650  1.00  0.00     0.296 HD
ENDBRANCH   2   4
ENDBRANCH   1   2
BRANCH   1   6
ATOM      6  C   UNL     1       7.086  -0.510  -1.543  1.00  0.00     0.047 C 
BRANCH   6   7
ATOM      7  C   UNL     1       6.318   0.287  -0.588  1.00  0.00    -0.047 A 
ATOM      8  C   UNL     1       6.098  -0.167   0.692  1.00  0.00     0.004 A 
ATOM      9  C   UNL     1       5.815   1.506  -0.982  1.00  0.00     0.004 A 
ATOM     10  C   UNL     1       5.356   0.648   1.550  1.00  0.00     0.000 A 
ATOM     11  C   UNL     1       5.082   2.309  -0.132  1.00  0.00     0.000 A 
ATOM     12  C   UNL     1       4.856   1.861   1.151  1.00  0.00     0.000 A 
ENDBRANCH   6   7
ENDBRANCH   1   6
TORSDOF 4
ENDMDL
