@<TRIPOS>MOLECULE
/home/cewinharhar/GITHUB/reincatalyze/data/processed/docking_pred/2023_Apr_20-15:07/82066193004a6cdbe54a2a950d109d8cafa96b54_ligand_2.pdbqt
 12 12 0 0 0
SMALL
GASTEIGER

@<TRIPOS>ATOM
      1  C          8.1960    0.2430   -2.2110 C.3     1  UNL1        0.1270
      2  C          9.3280    0.3460   -1.2600 C.2     1  UNL1        0.3030
      3  O          9.4230   -0.4270   -0.2750 O.2     1  UNL1       -0.2520
      4  O         10.3160    1.3020   -1.4330 O.3     1  UNL1       -0.4810
      5  H         10.5660    1.9110   -0.6500 H       1  UNL1        0.2960
      6  C          7.0860   -0.5100   -1.5430 C.3     1  UNL1        0.0470
      7  C          6.3180    0.2870   -0.5880 C.2     1  UNL1       -0.0470
      8  C          6.0980   -0.1670    0.6920 C.2     1  UNL1        0.0040
      9  C          5.8150    1.5060   -0.9820 C.2     1  UNL1        0.0040
     10  C          5.3560    0.6480    1.5500 C.2     1  UNL1        0.0000
     11  C          5.0820    2.3090   -0.1320 C.2     1  UNL1        0.0000
     12  C          4.8560    1.8610    1.1510 C.2     1  UNL1        0.0000
@<TRIPOS>BOND
     1     1     6    1
     2     1     2    1
     3     6     7    1
     4     4     2    1
     5     4     5    1
     6     2     3    2
     7     9     7    2
     8     9    11    1
     9     7     8    1
    10    11    12    2
    11     8    10    2
    12    12    10    1
