@<TRIPOS>MOLECULE
/home/cewinharhar/GITHUB/reincatalyze/data/processed/docking_pred/2023_Apr_20-15:07/82066193004a6cdbe54a2a950d109d8cafa96b54_ligand_2.pdbqt
 12 12 0 0 0
SMALL
GASTEIGER

@<TRIPOS>ATOM
      1  C          5.5440    2.8530   -0.0590 C.3     1  UNL1        0.1270
      2  C          6.2870    3.8350    0.7660 C.2     1  UNL1        0.3030
      3  O          6.9310    4.7740    0.2370 O.2     1  UNL1       -0.2520
      4  O          6.2900    3.7420    2.1490 O.3     1  UNL1       -0.4810
      5  H          5.4120    3.5580    2.6410 H       1  UNL1        0.2960
      6  C          4.9550    1.8210    0.8540 C.3     1  UNL1        0.0470
      7  C          5.7050    0.5670    0.8960 C.2     1  UNL1       -0.0470
      8  C          6.3700    0.1070   -0.2170 C.2     1  UNL1        0.0040
      9  C          5.7420   -0.1540    2.0680 C.2     1  UNL1        0.0040
     10  C          7.0670   -1.0980   -0.1030 C.2     1  UNL1        0.0000
     11  C          6.4310   -1.3450    2.1780 C.2     1  UNL1        0.0000
     12  C          7.0990   -1.8130    1.0670 C.2     1  UNL1        0.0000
@<TRIPOS>BOND
     1     8    10    1
     2     8     7    2
     3    10    12    2
     4     1     2    1
     5     1     6    1
     6     3     2    2
     7     2     4    1
     8     6     7    1
     9     7     9    1
    10    12    11    1
    11     9    11    2
    12     4     5    1
