@<TRIPOS>MOLECULE
/home/cewinharhar/GITHUB/reincatalyze/data/processed/docking_pred/2023_Apr_20-15:07/84f6a015bafc2578e701aafee66be27aa4cb1192_ligand_2.pdbqt
 12 12 0 0 0
SMALL
GASTEIGER

@<TRIPOS>ATOM
      1  C          8.4810   -0.6490   -2.0820 C.3     1  UNL1        0.1270
      2  C          8.4980   -1.8830   -2.9020 C.2     1  UNL1        0.3030
      3  O          9.5740   -2.4720   -3.1710 O.2     1  UNL1       -0.2520
      4  O          7.3210   -2.4230   -3.3960 O.3     1  UNL1       -0.4810
      5  H          7.3010   -2.7890   -4.3520 H       1  UNL1        0.2960
      6  C          7.0920   -0.0870   -2.1040 C.3     1  UNL1        0.0470
      7  C          6.5020    0.0920   -0.7790 C.2     1  UNL1       -0.0470
      8  C          6.6270   -0.8820    0.1840 C.2     1  UNL1        0.0040
      9  C          5.8170    1.2520   -0.5000 C.2     1  UNL1        0.0040
     10  C          6.0390   -0.6430    1.4280 C.2     1  UNL1        0.0000
     11  C          5.2360    1.4870    0.7300 C.2     1  UNL1        0.0000
     12  C          5.3560    0.5160    1.7000 C.2     1  UNL1        0.0000
@<TRIPOS>BOND
     1     5     4    1
     2     4     2    1
     3     3     2    2
     4     2     1    1
     5     6     1    1
     6     6     7    1
     7     7     9    2
     8     7     8    1
     9     9    11    1
    10     8    10    2
    11    11    12    2
    12    10    12    1
