MODEL 1
REMARK VINA RESULT:      -7.3      0.000      0.000
REMARK SMILES O=C(O)CCc1ccccc1
REMARK SMILES IDX 4 1 2 2 1 3 3 4 5 6 6 7 7 8 11 9 8 10 10 11 9 12
REMARK H PARENT 3 5
REMARK Flexibility Score: inf
ROOT
ATOM      1  C   UNL     1       8.481  -0.649  -2.082  1.00  0.00     0.127 C 
ENDROOT
BRANCH   1   2
ATOM      2  C   UNL     1       8.498  -1.883  -2.902  1.00  0.00     0.303 C 
ATOM      3  O   UNL     1       9.574  -2.472  -3.171  1.00  0.00    -0.252 OA
BRANCH   2   4
ATOM      4  O   UNL     1       7.321  -2.423  -3.396  1.00  0.00    -0.481 OA
ATOM      5  H   UNL     1       7.301  -2.789  -4.352  1.00  0.00     0.296 HD
ENDBRANCH   2   4
ENDBRANCH   1   2
BRANCH   1   6
ATOM      6  C   UNL     1       7.092  -0.087  -2.104  1.00  0.00     0.047 C 
BRANCH   6   7
ATOM      7  C   UNL     1       6.502   0.092  -0.779  1.00  0.00    -0.047 A 
ATOM      8  C   UNL     1       6.627  -0.882   0.184  1.00  0.00     0.004 A 
ATOM      9  C   UNL     1       5.817   1.252  -0.500  1.00  0.00     0.004 A 
ATOM     10  C   UNL     1       6.039  -0.643   1.428  1.00  0.00     0.000 A 
ATOM     11  C   UNL     1       5.236   1.487   0.730  1.00  0.00     0.000 A 
ATOM     12  C   UNL     1       5.356   0.516   1.700  1.00  0.00     0.000 A 
ENDBRANCH   6   7
ENDBRANCH   1   6
TORSDOF 4
ENDMDL
MODEL 2
REMARK VINA RESULT:      -7.3      0.137      1.442
REMARK SMILES O=C(O)CCc1ccccc1
REMARK SMILES IDX 4 1 2 2 1 3 3 4 5 6 6 7 7 8 11 9 8 10 10 11 9 12
REMARK H PARENT 3 5
REMARK Flexibility Score: inf
ROOT
ATOM      1  C   UNL     1       8.432  -0.600  -2.164  1.00  0.00     0.127 C 
ENDROOT
BRANCH   1   2
ATOM      2  C   UNL     1       8.483  -1.881  -2.908  1.00  0.00     0.303 C 
ATOM      3  O   UNL     1       9.569  -2.484  -3.090  1.00  0.00    -0.252 OA
BRANCH   2   4
ATOM      4  O   UNL     1       7.330  -2.449  -3.425  1.00  0.00    -0.481 OA
ATOM      5  H   UNL     1       7.340  -3.432  -3.710  1.00  0.00     0.296 HD
ENDBRANCH   2   4
ENDBRANCH   1   2
BRANCH   1   6
ATOM      6  C   UNL     1       7.010  -0.128  -2.138  1.00  0.00     0.047 C 
BRANCH   6   7
ATOM      7  C   UNL     1       6.470   0.056  -0.792  1.00  0.00    -0.047 A 
ATOM      8  C   UNL     1       5.836   1.226  -0.442  1.00  0.00     0.004 A 
ATOM      9  C   UNL     1       6.600  -0.958   0.129  1.00  0.00     0.004 A 
ATOM     10  C   UNL     1       5.344   1.332   0.861  1.00  0.00     0.000 A 
ATOM     11  C   UNL     1       6.113  -0.851   1.416  1.00  0.00     0.000 A 
ATOM     12  C   UNL     1       5.477   0.318   1.775  1.00  0.00     0.000 A 
ENDBRANCH   6   7
ENDBRANCH   1   6
TORSDOF 4
ENDMDL
MODEL 3
REMARK VINA RESULT:      -6.8      3.363      5.083
REMARK SMILES O=C(O)CCc1ccccc1
REMARK SMILES IDX 4 1 2 2 1 3 3 4 5 6 6 7 7 8 11 9 8 10 10 11 9 12
REMARK H PARENT 3 5
REMARK Flexibility Score: inf
ROOT
ATOM      1  C   UNL     1       4.990   1.822   0.721  1.00  0.00     0.127 C 
ENDROOT
BRANCH   1   2
ATOM      2  C   UNL     1       4.480   1.120   1.923  1.00  0.00     0.303 C 
ATOM      3  O   UNL     1       5.146   0.211   2.477  1.00  0.00    -0.252 OA
BRANCH   2   4
ATOM      4  O   UNL     1       3.250   1.450   2.469  1.00  0.00    -0.481 OA
ATOM      5  H   UNL     1       3.090   1.301   3.469  1.00  0.00     0.296 HD
ENDBRANCH   2   4
ENDBRANCH   1   2
BRANCH   1   6
ATOM      6  C   UNL     1       6.488   1.803   0.765  1.00  0.00     0.047 C 
BRANCH   6   7
ATOM      7  C   UNL     1       7.105   1.064  -0.335  1.00  0.00    -0.047 A 
ATOM      8  C   UNL     1       6.360   0.208  -1.113  1.00  0.00     0.004 A 
ATOM      9  C   UNL     1       8.446   1.234  -0.589  1.00  0.00     0.004 A 
ATOM     10  C   UNL     1       7.016  -0.464  -2.147  1.00  0.00     0.000 A 
ATOM     11  C   UNL     1       9.093   0.569  -1.612  1.00  0.00     0.000 A 
ATOM     12  C   UNL     1       8.354  -0.291  -2.395  1.00  0.00     0.000 A 
ENDBRANCH   6   7
ENDBRANCH   1   6
TORSDOF 4
ENDMDL
MODEL 4
REMARK VINA RESULT:      -6.6      1.996      2.318
REMARK SMILES O=C(O)CCc1ccccc1
REMARK SMILES IDX 4 1 2 2 1 3 3 4 5 6 6 7 7 8 11 9 8 10 10 11 9 12
REMARK H PARENT 3 5
REMARK Flexibility Score: inf
ROOT
ATOM      1  C   UNL     1       8.425   0.454  -1.938  1.00  0.00     0.127 C 
ENDROOT
BRANCH   1   2
ATOM      2  C   UNL     1       9.546   0.243  -0.992  1.00  0.00     0.303 C 
ATOM      3  O   UNL     1       9.425  -0.517   0.000  1.00  0.00    -0.252 OA
BRANCH   2   4
ATOM      4  O   UNL     1      10.762   0.880  -1.178  1.00  0.00    -0.481 OA
ATOM      5  H   UNL     1      11.556   0.628  -0.584  1.00  0.00     0.296 HD
ENDBRANCH   2   4
ENDBRANCH   1   2
BRANCH   1   6
ATOM      6  C   UNL     1       7.253  -0.352  -1.467  1.00  0.00     0.047 C 
BRANCH   6   7
ATOM      7  C   UNL     1       6.400   0.345  -0.507  1.00  0.00    -0.047 A 
ATOM      8  C   UNL     1       6.184  -0.174   0.749  1.00  0.00     0.004 A 
ATOM      9  C   UNL     1       5.812   1.535  -0.871  1.00  0.00     0.004 A 
ATOM     10  C   UNL     1       5.358   0.547   1.615  1.00  0.00     0.000 A 
ATOM     11  C   UNL     1       4.996   2.245  -0.014  1.00  0.00     0.000 A 
ATOM     12  C   UNL     1       4.773   1.732   1.246  1.00  0.00     0.000 A 
ENDBRANCH   6   7
ENDBRANCH   1   6
TORSDOF 4
ENDMDL
MODEL 5
REMARK VINA RESULT:      -6.5      3.711      4.985
REMARK SMILES O=C(O)CCc1ccccc1
REMARK SMILES IDX 4 1 2 2 1 3 3 4 5 6 6 7 7 8 11 9 8 10 10 11 9 12
REMARK H PARENT 3 5
REMARK Flexibility Score: inf
ROOT
ATOM      1  C   UNL     1       5.372   2.920   0.127  1.00  0.00     0.127 C 
ENDROOT
BRANCH   1   2
ATOM      2  C   UNL     1       6.234   3.866   0.876  1.00  0.00     0.303 C 
ATOM      3  O   UNL     1       6.869   4.774   0.286  1.00  0.00    -0.252 OA
BRANCH   2   4
ATOM      4  O   UNL     1       6.362   3.772   2.252  1.00  0.00    -0.481 OA
ATOM      5  H   UNL     1       6.503   4.624   2.801  1.00  0.00     0.296 HD
ENDBRANCH   2   4
ENDBRANCH   1   2
BRANCH   1   6
ATOM      6  C   UNL     1       5.339   1.622   0.873  1.00  0.00     0.047 C 
BRANCH   6   7
ATOM      7  C   UNL     1       6.067   0.539   0.215  1.00  0.00    -0.047 A 
ATOM      8  C   UNL     1       6.478  -0.566   0.924  1.00  0.00     0.004 A 
ATOM      9  C   UNL     1       6.337   0.632  -1.131  1.00  0.00     0.004 A 
ATOM     10  C   UNL     1       7.168  -1.562   0.230  1.00  0.00     0.000 A 
ATOM     11  C   UNL     1       7.019  -0.354  -1.815  1.00  0.00     0.000 A 
ATOM     12  C   UNL     1       7.436  -1.463  -1.112  1.00  0.00     0.000 A 
ENDBRANCH   6   7
ENDBRANCH   1   6
TORSDOF 4
ENDMDL
