@<TRIPOS>MOLECULE
/home/cewinharhar/GITHUB/reincatalyze/data/processed/docking_pred/2023_Apr_20-15:07/84f6a015bafc2578e701aafee66be27aa4cb1192_ligand_2.pdbqt
 12 12 0 0 0
SMALL
GASTEIGER

@<TRIPOS>ATOM
      1  C          5.3720    2.9200    0.1270 C.3     1  UNL1        0.1270
      2  C          6.2340    3.8660    0.8760 C.2     1  UNL1        0.3030
      3  O          6.8690    4.7740    0.2860 O.2     1  UNL1       -0.2520
      4  O          6.3620    3.7720    2.2520 O.3     1  UNL1       -0.4810
      5  H          6.5030    4.6240    2.8010 H       1  UNL1        0.2960
      6  C          5.3390    1.6220    0.8730 C.3     1  UNL1        0.0470
      7  C          6.0670    0.5390    0.2150 C.2     1  UNL1       -0.0470
      8  C          6.4780   -0.5660    0.9240 C.2     1  UNL1        0.0040
      9  C          6.3370    0.6320   -1.1310 C.2     1  UNL1        0.0040
     10  C          7.1680   -1.5620    0.2300 C.2     1  UNL1        0.0000
     11  C          7.0190   -0.3540   -1.8150 C.2     1  UNL1        0.0000
     12  C          7.4360   -1.4630   -1.1120 C.2     1  UNL1        0.0000
@<TRIPOS>BOND
     1    11     9    1
     2    11    12    2
     3     9     7    2
     4    12    10    1
     5     1     6    1
     6     1     2    1
     7     7     6    1
     8     7     8    1
     9    10     8    2
    10     3     2    2
    11     2     4    1
    12     4     5    1
