@<TRIPOS>MOLECULE
/home/cewinharhar/GITHUB/reincatalyze/data/processed/docking_pred/2023_Apr_20-15:07/84f6a015bafc2578e701aafee66be27aa4cb1192_ligand_2.pdbqt
 12 12 0 0 0
SMALL
GASTEIGER

@<TRIPOS>ATOM
      1  C          8.4320   -0.6000   -2.1640 C.3     1  UNL1        0.1270
      2  C          8.4830   -1.8810   -2.9080 C.2     1  UNL1        0.3030
      3  O          9.5690   -2.4840   -3.0900 O.2     1  UNL1       -0.2520
      4  O          7.3300   -2.4490   -3.4250 O.3     1  UNL1       -0.4810
      5  H          7.3400   -3.4320   -3.7100 H       1  UNL1        0.2960
      6  C          7.0100   -0.1280   -2.1380 C.3     1  UNL1        0.0470
      7  C          6.4700    0.0560   -0.7920 C.2     1  UNL1       -0.0470
      8  C          5.8360    1.2260   -0.4420 C.2     1  UNL1        0.0040
      9  C          6.6000   -0.9580    0.1290 C.2     1  UNL1        0.0040
     10  C          5.3440    1.3320    0.8610 C.2     1  UNL1        0.0000
     11  C          6.1130   -0.8510    1.4160 C.2     1  UNL1        0.0000
     12  C          5.4770    0.3180    1.7750 C.2     1  UNL1        0.0000
@<TRIPOS>BOND
     1     5     4    1
     2     4     2    1
     3     3     2    2
     4     2     1    1
     5     1     6    1
     6     6     7    1
     7     7     8    2
     8     7     9    1
     9     8    10    1
    10     9    11    2
    11    10    12    2
    12    11    12    1
