@<TRIPOS>MOLECULE
/home/cewinharhar/GITHUB/reincatalyze/data/processed/docking_pred/2023_Apr_20-15:07/84f6a015bafc2578e701aafee66be27aa4cb1192_ligand_2.pdbqt
 12 12 0 0 0
SMALL
GASTEIGER

@<TRIPOS>ATOM
      1  C          8.4250    0.4540   -1.9380 C.3     1  UNL1        0.1270
      2  C          9.5460    0.2430   -0.9920 C.2     1  UNL1        0.3030
      3  O          9.4250   -0.5170    0.0000 O.2     1  UNL1       -0.2520
      4  O         10.7620    0.8800   -1.1780 O.3     1  UNL1       -0.4810
      5  H         11.5560    0.6280   -0.5840 H       1  UNL1        0.2960
      6  C          7.2530   -0.3520   -1.4670 C.3     1  UNL1        0.0470
      7  C          6.4000    0.3450   -0.5070 C.2     1  UNL1       -0.0470
      8  C          6.1840   -0.1740    0.7490 C.2     1  UNL1        0.0040
      9  C          5.8120    1.5350   -0.8710 C.2     1  UNL1        0.0040
     10  C          5.3580    0.5470    1.6150 C.2     1  UNL1        0.0000
     11  C          4.9960    2.2450   -0.0140 C.2     1  UNL1        0.0000
     12  C          4.7730    1.7320    1.2460 C.2     1  UNL1        0.0000
@<TRIPOS>BOND
     1     1     6    1
     2     1     2    1
     3     6     7    1
     4     4     2    1
     5     4     5    1
     6     2     3    2
     7     9     7    2
     8     9    11    1
     9     7     8    1
    10    11    12    2
    11     8    10    2
    12    12    10    1
