@<TRIPOS>MOLECULE
/home/cewinharhar/GITHUB/reincatalyze/data/processed/docking_pred/2023_Apr_20-15:07/84f6a015bafc2578e701aafee66be27aa4cb1192_ligand_2.pdbqt
 12 12 0 0 0
SMALL
GASTEIGER

@<TRIPOS>ATOM
      1  C          4.9900    1.8220    0.7210 C.3     1  UNL1        0.1270
      2  C          4.4800    1.1200    1.9230 C.2     1  UNL1        0.3030
      3  O          5.1460    0.2110    2.4770 O.2     1  UNL1       -0.2520
      4  O          3.2500    1.4500    2.4690 O.3     1  UNL1       -0.4810
      5  H          3.0900    1.3010    3.4690 H       1  UNL1        0.2960
      6  C          6.4880    1.8030    0.7650 C.3     1  UNL1        0.0470
      7  C          7.1050    1.0640   -0.3350 C.2     1  UNL1       -0.0470
      8  C          6.3600    0.2080   -1.1130 C.2     1  UNL1        0.0040
      9  C          8.4460    1.2340   -0.5890 C.2     1  UNL1        0.0040
     10  C          7.0160   -0.4640   -2.1470 C.2     1  UNL1        0.0000
     11  C          9.0930    0.5690   -1.6120 C.2     1  UNL1        0.0000
     12  C          8.3540   -0.2910   -2.3950 C.2     1  UNL1        0.0000
@<TRIPOS>BOND
     1    12    10    2
     2    12    11    1
     3    10     8    1
     4    11     9    2
     5     8     7    2
     6     9     7    1
     7     7     6    1
     8     1     6    1
     9     1     2    1
    10     2     4    1
    11     2     3    2
    12     4     5    1
