@<TRIPOS>MOLECULE
/home/cewinharhar/GITHUB/reincatalyze/data/processed/docking_pred/2023_Apr_20-15:07/8651a6b7cbc4b018fd9bb7015a505d05e6fdae34_ligand_2.pdbqt
 12 12 0 0 0
SMALL
GASTEIGER

@<TRIPOS>ATOM
      1  C          7.4240   -1.0170   -2.3520 C.3     1  UNL1        0.1270
      2  C          8.2500   -2.0910   -2.9520 C.2     1  UNL1        0.3030
      3  O          9.5010   -2.0860   -2.8450 O.2     1  UNL1       -0.2520
      4  O          7.6620   -3.1340   -3.6490 O.3     1  UNL1       -0.4810
      5  H          6.6860   -3.0500   -3.9470 H       1  UNL1        0.2960
      6  C          7.2800   -1.2960   -0.8870 C.3     1  UNL1        0.0470
      7  C          6.4860   -0.3000   -0.1680 C.2     1  UNL1       -0.0470
      8  C          6.0890   -0.5220    1.1300 C.2     1  UNL1        0.0040
      9  C          6.1390    0.8690   -0.8040 C.2     1  UNL1        0.0040
     10  C          5.3340    0.4730    1.7560 C.2     1  UNL1        0.0000
     11  C          5.3920    1.8510   -0.1840 C.2     1  UNL1        0.0000
     12  C          4.9900    1.6370    1.1160 C.2     1  UNL1        0.0000
@<TRIPOS>BOND
     1     5     4    1
     2     4     2    1
     3     2     3    2
     4     2     1    1
     5     1     6    1
     6     6     7    1
     7     9    11    1
     8     9     7    2
     9    11    12    2
    10     7     8    1
    11    12    10    1
    12     8    10    2
