@<TRIPOS>MOLECULE
/home/cewinharhar/GITHUB/reincatalyze/data/processed/docking_pred/2023_Apr_20-15:07/8651a6b7cbc4b018fd9bb7015a505d05e6fdae34_ligand_2.pdbqt
 12 12 0 0 0
SMALL
GASTEIGER

@<TRIPOS>ATOM
      1  C          8.3160    0.3260   -1.8950 C.3     1  UNL1        0.1270
      2  C          9.4730    0.2040   -0.9780 C.2     1  UNL1        0.3030
      3  O          9.4240   -0.5350    0.0370 O.2     1  UNL1       -0.2520
      4  O         10.6450    0.9040   -1.2160 O.3     1  UNL1       -0.4810
      5  H         10.6540    1.6360   -1.9310 H       1  UNL1        0.2960
      6  C          7.1930   -0.5020   -1.3490 C.3     1  UNL1        0.0470
      7  C          6.3620    0.1940   -0.3680 C.2     1  UNL1       -0.0470
      8  C          5.8120    1.4210   -0.6570 C.2     1  UNL1        0.0040
      9  C          6.1330   -0.3930    0.8550 C.2     1  UNL1        0.0040
     10  C          5.0280    2.0280    0.3270 C.2     1  UNL1        0.0000
     11  C          5.3590    0.2090    1.8270 C.2     1  UNL1        0.0000
     12  C          4.8040    1.4380    1.5460 C.2     1  UNL1        0.0000
@<TRIPOS>BOND
     1     5     4    1
     2     1     6    1
     3     1     2    1
     4     6     7    1
     5     4     2    1
     6     2     3    2
     7     8     7    2
     8     8    10    1
     9     7     9    1
    10    10    12    2
    11     9    11    2
    12    12    11    1
