MODEL 1
REMARK VINA RESULT:      -6.7      0.000      0.000
REMARK SMILES O=C(O)CCc1ccccc1
REMARK SMILES IDX 4 1 2 2 1 3 3 4 5 6 6 7 7 8 11 9 8 10 10 11 9 12
REMARK H PARENT 3 5
REMARK Flexibility Score: inf
ROOT
ATOM      1  C   UNL     1       4.989   1.797   0.686  1.00  0.00     0.127 C 
ENDROOT
BRANCH   1   2
ATOM      2  C   UNL     1       4.486   1.129   1.909  1.00  0.00     0.303 C 
ATOM      3  O   UNL     1       5.156   0.237   2.486  1.00  0.00    -0.252 OA
BRANCH   2   4
ATOM      4  O   UNL     1       3.257   1.470   2.450  1.00  0.00    -0.481 OA
ATOM      5  H   UNL     1       2.936   1.000   3.301  1.00  0.00     0.296 HD
ENDBRANCH   2   4
ENDBRANCH   1   2
BRANCH   1   6
ATOM      6  C   UNL     1       6.486   1.799   0.733  1.00  0.00     0.047 C 
BRANCH   6   7
ATOM      7  C   UNL     1       7.117   1.045  -0.349  1.00  0.00    -0.047 A 
ATOM      8  C   UNL     1       6.386   0.160  -1.108  1.00  0.00     0.004 A 
ATOM      9  C   UNL     1       8.456   1.230  -0.605  1.00  0.00     0.004 A 
ATOM     10  C   UNL     1       7.053  -0.526  -2.125  1.00  0.00     0.000 A 
ATOM     11  C   UNL     1       9.113   0.550  -1.612  1.00  0.00     0.000 A 
ATOM     12  C   UNL     1       8.389  -0.339  -2.376  1.00  0.00     0.000 A 
ENDBRANCH   6   7
ENDBRANCH   1   6
TORSDOF 4
ENDMDL
MODEL 2
REMARK VINA RESULT:      -6.7      3.333      5.137
REMARK SMILES O=C(O)CCc1ccccc1
REMARK SMILES IDX 4 1 2 2 1 3 3 4 5 6 6 7 7 8 11 9 8 10 10 11 9 12
REMARK H PARENT 3 5
REMARK Flexibility Score: inf
ROOT
ATOM      1  C   UNL     1       8.412  -0.507  -2.133  1.00  0.00     0.127 C 
ENDROOT
BRANCH   1   2
ATOM      2  C   UNL     1       8.439  -1.805  -2.848  1.00  0.00     0.303 C 
ATOM      3  O   UNL     1       7.385  -2.324  -3.293  1.00  0.00    -0.252 OA
BRANCH   2   4
ATOM      4  O   UNL     1       9.631  -2.483  -3.044  1.00  0.00    -0.481 OA
ATOM      5  H   UNL     1       9.633  -3.339  -3.606  1.00  0.00     0.296 HD
ENDBRANCH   2   4
ENDBRANCH   1   2
BRANCH   1   6
ATOM      6  C   UNL     1       6.994  -0.026  -2.083  1.00  0.00     0.047 C 
BRANCH   6   7
ATOM      7  C   UNL     1       6.457   0.098  -0.729  1.00  0.00    -0.047 A 
ATOM      8  C   UNL     1       5.827   1.252  -0.324  1.00  0.00     0.004 A 
ATOM      9  C   UNL     1       6.584  -0.959   0.143  1.00  0.00     0.004 A 
ATOM     10  C   UNL     1       5.337   1.300   0.983  1.00  0.00     0.000 A 
ATOM     11  C   UNL     1       6.099  -0.910   1.435  1.00  0.00     0.000 A 
ATOM     12  C   UNL     1       5.468   0.244   1.848  1.00  0.00     0.000 A 
ENDBRANCH   6   7
ENDBRANCH   1   6
TORSDOF 4
ENDMDL
MODEL 3
REMARK VINA RESULT:      -6.7      3.680      5.153
REMARK SMILES O=C(O)CCc1ccccc1
REMARK SMILES IDX 4 1 2 2 1 3 3 4 5 6 6 7 7 8 11 9 8 10 10 11 9 12
REMARK H PARENT 3 5
REMARK Flexibility Score: inf
ROOT
ATOM      1  C   UNL     1       7.424  -1.017  -2.352  1.00  0.00     0.127 C 
ENDROOT
BRANCH   1   2
ATOM      2  C   UNL     1       8.250  -2.091  -2.952  1.00  0.00     0.303 C 
ATOM      3  O   UNL     1       9.501  -2.086  -2.845  1.00  0.00    -0.252 OA
BRANCH   2   4
ATOM      4  O   UNL     1       7.662  -3.134  -3.649  1.00  0.00    -0.481 OA
ATOM      5  H   UNL     1       6.686  -3.050  -3.947  1.00  0.00     0.296 HD
ENDBRANCH   2   4
ENDBRANCH   1   2
BRANCH   1   6
ATOM      6  C   UNL     1       7.280  -1.296  -0.887  1.00  0.00     0.047 C 
BRANCH   6   7
ATOM      7  C   UNL     1       6.486  -0.300  -0.168  1.00  0.00    -0.047 A 
ATOM      8  C   UNL     1       6.089  -0.522   1.130  1.00  0.00     0.004 A 
ATOM      9  C   UNL     1       6.139   0.869  -0.804  1.00  0.00     0.004 A 
ATOM     10  C   UNL     1       5.334   0.473   1.756  1.00  0.00     0.000 A 
ATOM     11  C   UNL     1       5.392   1.851  -0.184  1.00  0.00     0.000 A 
ATOM     12  C   UNL     1       4.990   1.637   1.116  1.00  0.00     0.000 A 
ENDBRANCH   6   7
ENDBRANCH   1   6
TORSDOF 4
ENDMDL
MODEL 4
REMARK VINA RESULT:      -6.5      2.388      2.787
REMARK SMILES O=C(O)CCc1ccccc1
REMARK SMILES IDX 4 1 2 2 1 3 3 4 5 6 6 7 7 8 11 9 8 10 10 11 9 12
REMARK H PARENT 3 5
REMARK Flexibility Score: inf
ROOT
ATOM      1  C   UNL     1       5.323   2.926   0.082  1.00  0.00     0.127 C 
ENDROOT
BRANCH   1   2
ATOM      2  C   UNL     1       6.193   3.860   0.834  1.00  0.00     0.303 C 
ATOM      3  O   UNL     1       6.840   4.762   0.248  1.00  0.00    -0.252 OA
BRANCH   2   4
ATOM      4  O   UNL     1       6.316   3.763   2.211  1.00  0.00    -0.481 OA
ATOM      5  H   UNL     1       6.412   2.838   2.641  1.00  0.00     0.296 HD
ENDBRANCH   2   4
ENDBRANCH   1   2
BRANCH   1   6
ATOM      6  C   UNL     1       5.262   1.631   0.832  1.00  0.00     0.047 C 
BRANCH   6   7
ATOM      7  C   UNL     1       6.011   0.544   0.204  1.00  0.00    -0.047 A 
ATOM      8  C   UNL     1       6.407  -0.552   0.936  1.00  0.00     0.004 A 
ATOM      9  C   UNL     1       6.318   0.625  -1.134  1.00  0.00     0.004 A 
ATOM     10  C   UNL     1       7.119  -1.553   0.270  1.00  0.00     0.000 A 
ATOM     11  C   UNL     1       7.022  -0.365  -1.790  1.00  0.00     0.000 A 
ATOM     12  C   UNL     1       7.422  -1.466  -1.065  1.00  0.00     0.000 A 
ENDBRANCH   6   7
ENDBRANCH   1   6
TORSDOF 4
ENDMDL
MODEL 5
REMARK VINA RESULT:      -6.5      2.723      4.718
REMARK SMILES O=C(O)CCc1ccccc1
REMARK SMILES IDX 4 1 2 2 1 3 3 4 5 6 6 7 7 8 11 9 8 10 10 11 9 12
REMARK H PARENT 3 5
REMARK Flexibility Score: inf
ROOT
ATOM      1  C   UNL     1       8.316   0.326  -1.895  1.00  0.00     0.127 C 
ENDROOT
BRANCH   1   2
ATOM      2  C   UNL     1       9.473   0.204  -0.978  1.00  0.00     0.303 C 
ATOM      3  O   UNL     1       9.424  -0.535   0.037  1.00  0.00    -0.252 OA
BRANCH   2   4
ATOM      4  O   UNL     1      10.645   0.904  -1.216  1.00  0.00    -0.481 OA
ATOM      5  H   UNL     1      10.654   1.636  -1.931  1.00  0.00     0.296 HD
ENDBRANCH   2   4
ENDBRANCH   1   2
BRANCH   1   6
ATOM      6  C   UNL     1       7.193  -0.502  -1.349  1.00  0.00     0.047 C 
BRANCH   6   7
ATOM      7  C   UNL     1       6.362   0.194  -0.368  1.00  0.00    -0.047 A 
ATOM      8  C   UNL     1       5.812   1.421  -0.657  1.00  0.00     0.004 A 
ATOM      9  C   UNL     1       6.133  -0.393   0.855  1.00  0.00     0.004 A 
ATOM     10  C   UNL     1       5.028   2.028   0.327  1.00  0.00     0.000 A 
ATOM     11  C   UNL     1       5.359   0.209   1.827  1.00  0.00     0.000 A 
ATOM     12  C   UNL     1       4.804   1.438   1.546  1.00  0.00     0.000 A 
ENDBRANCH   6   7
ENDBRANCH   1   6
TORSDOF 4
ENDMDL
