@<TRIPOS>MOLECULE
/home/cewinharhar/GITHUB/reincatalyze/data/processed/docking_pred/2023_Apr_20-15:07/8651a6b7cbc4b018fd9bb7015a505d05e6fdae34_ligand_2.pdbqt
 12 12 0 0 0
SMALL
GASTEIGER

@<TRIPOS>ATOM
      1  C          5.3230    2.9260    0.0820 C.3     1  UNL1        0.1270
      2  C          6.1930    3.8600    0.8340 C.2     1  UNL1        0.3030
      3  O          6.8400    4.7620    0.2480 O.2     1  UNL1       -0.2520
      4  O          6.3160    3.7630    2.2110 O.3     1  UNL1       -0.4810
      5  H          6.4120    2.8380    2.6410 H       1  UNL1        0.2960
      6  C          5.2620    1.6310    0.8320 C.3     1  UNL1        0.0470
      7  C          6.0110    0.5440    0.2040 C.2     1  UNL1       -0.0470
      8  C          6.4070   -0.5520    0.9360 C.2     1  UNL1        0.0040
      9  C          6.3180    0.6250   -1.1340 C.2     1  UNL1        0.0040
     10  C          7.1190   -1.5530    0.2700 C.2     1  UNL1        0.0000
     11  C          7.0220   -0.3650   -1.7900 C.2     1  UNL1        0.0000
     12  C          7.4220   -1.4660   -1.0650 C.2     1  UNL1        0.0000
@<TRIPOS>BOND
     1    11     9    1
     2    11    12    2
     3     9     7    2
     4    12    10    1
     5     1     6    1
     6     1     2    1
     7     7     6    1
     8     7     8    1
     9     3     2    2
    10    10     8    2
    11     2     4    1
    12     4     5    1
