@<TRIPOS>MOLECULE
/home/cewinharhar/GITHUB/reincatalyze/data/processed/docking_pred/2023_Apr_20-15:07/8651a6b7cbc4b018fd9bb7015a505d05e6fdae34_ligand_2.pdbqt
 12 12 0 0 0
SMALL
GASTEIGER

@<TRIPOS>ATOM
      1  C          4.9890    1.7970    0.6860 C.3     1  UNL1        0.1270
      2  C          4.4860    1.1290    1.9090 C.2     1  UNL1        0.3030
      3  O          5.1560    0.2370    2.4860 O.2     1  UNL1       -0.2520
      4  O          3.2570    1.4700    2.4500 O.3     1  UNL1       -0.4810
      5  H          2.9360    1.0000    3.3010 H       1  UNL1        0.2960
      6  C          6.4860    1.7990    0.7330 C.3     1  UNL1        0.0470
      7  C          7.1170    1.0450   -0.3490 C.2     1  UNL1       -0.0470
      8  C          6.3860    0.1600   -1.1080 C.2     1  UNL1        0.0040
      9  C          8.4560    1.2300   -0.6050 C.2     1  UNL1        0.0040
     10  C          7.0530   -0.5260   -2.1250 C.2     1  UNL1        0.0000
     11  C          9.1130    0.5500   -1.6120 C.2     1  UNL1        0.0000
     12  C          8.3890   -0.3390   -2.3760 C.2     1  UNL1        0.0000
@<TRIPOS>BOND
     1    12    10    2
     2    12    11    1
     3    10     8    1
     4    11     9    2
     5     8     7    2
     6     9     7    1
     7     7     6    1
     8     1     6    1
     9     1     2    1
    10     2     4    1
    11     2     3    2
    12     4     5    1
