@<TRIPOS>MOLECULE
/home/cewinharhar/GITHUB/reincatalyze/data/processed/docking_pred/2023_Apr_20-15:07/8651a6b7cbc4b018fd9bb7015a505d05e6fdae34_ligand_2.pdbqt
 12 12 0 0 0
SMALL
GASTEIGER

@<TRIPOS>ATOM
      1  C          8.4120   -0.5070   -2.1330 C.3     1  UNL1        0.1270
      2  C          8.4390   -1.8050   -2.8480 C.2     1  UNL1        0.3030
      3  O          7.3850   -2.3240   -3.2930 O.2     1  UNL1       -0.2520
      4  O          9.6310   -2.4830   -3.0440 O.3     1  UNL1       -0.4810
      5  H          9.6330   -3.3390   -3.6060 H       1  UNL1        0.2960
      6  C          6.9940   -0.0260   -2.0830 C.3     1  UNL1        0.0470
      7  C          6.4570    0.0980   -0.7290 C.2     1  UNL1       -0.0470
      8  C          5.8270    1.2520   -0.3240 C.2     1  UNL1        0.0040
      9  C          6.5840   -0.9590    0.1430 C.2     1  UNL1        0.0040
     10  C          5.3370    1.3000    0.9830 C.2     1  UNL1        0.0000
     11  C          6.0990   -0.9100    1.4350 C.2     1  UNL1        0.0000
     12  C          5.4680    0.2440    1.8480 C.2     1  UNL1        0.0000
@<TRIPOS>BOND
     1     5     4    1
     2     3     2    2
     3     4     2    1
     4     2     1    1
     5     1     6    1
     6     6     7    1
     7     7     8    2
     8     7     9    1
     9     8    10    1
    10     9    11    2
    11    10    12    2
    12    11    12    1
