@<TRIPOS>MOLECULE
/home/cewinharhar/GITHUB/reincatalyze/data/processed/docking_pred/2023_Apr_20-15:07/86abca178b5bca4973d3a72a1df8ea50f2d75826_ligand_2.pdbqt
 12 12 0 0 0
SMALL
GASTEIGER

@<TRIPOS>ATOM
      1  C          8.4510   -0.6270   -2.1280 C.3     1  UNL1        0.1270
      2  C          8.4000   -1.8960   -2.8930 C.2     1  UNL1        0.3030
      3  O          7.3040   -2.4100   -3.2280 O.2     1  UNL1       -0.2520
      4  O          9.5650   -2.5510   -3.2600 O.3     1  UNL1       -0.4810
      5  H          9.5650   -3.1420   -4.0960 H       1  UNL1        0.2960
      6  C          7.0760   -0.0320   -2.1130 C.3     1  UNL1        0.0470
      7  C          6.5040    0.1070   -0.7750 C.2     1  UNL1       -0.0470
      8  C          6.6570   -0.8870    0.1630 C.2     1  UNL1        0.0040
      9  C          5.8070    1.2510   -0.4580 C.2     1  UNL1        0.0040
     10  C          6.0840   -0.6860    1.4210 C.2     1  UNL1        0.0000
     11  C          5.2420    1.4480    0.7860 C.2     1  UNL1        0.0000
     12  C          5.3900    0.4560    1.7310 C.2     1  UNL1        0.0000
@<TRIPOS>BOND
     1     5     4    1
     2     4     2    1
     3     3     2    2
     4     2     1    1
     5     1     6    1
     6     6     7    1
     7     7     9    2
     8     7     8    1
     9     9    11    1
    10     8    10    2
    11    11    12    2
    12    10    12    1
