@<TRIPOS>MOLECULE
/home/cewinharhar/GITHUB/reincatalyze/data/processed/docking_pred/2023_Apr_20-15:07/86abca178b5bca4973d3a72a1df8ea50f2d75826_ligand_2.pdbqt
 12 12 0 0 0
SMALL
GASTEIGER

@<TRIPOS>ATOM
      1  C          8.1600    0.3430   -2.1520 C.3     1  UNL1        0.1270
      2  C          9.3350    0.3760   -1.2490 C.2     1  UNL1        0.3030
      3  O          9.4330   -0.4170   -0.2800 O.2     1  UNL1       -0.2520
      4  O         10.3590    1.2870   -1.4500 O.3     1  UNL1       -0.4810
      5  H         10.1910    2.1090   -2.0370 H       1  UNL1        0.2960
      6  C          7.0980   -0.4990   -1.5120 C.3     1  UNL1        0.0470
      7  C          6.3290    0.1960   -0.4810 C.2     1  UNL1       -0.0470
      8  C          6.1540   -0.3640    0.7630 C.2     1  UNL1        0.0040
      9  C          5.7800    1.4240   -0.7670 C.2     1  UNL1        0.0040
     10  C          5.4090    0.3570    1.6990 C.2     1  UNL1        0.0000
     11  C          5.0430    2.1350    0.1590 C.2     1  UNL1        0.0000
     12  C          4.8620    1.5810    1.4080 C.2     1  UNL1        0.0000
@<TRIPOS>BOND
     1     1     6    1
     2     1     2    1
     3     5     4    1
     4     6     7    1
     5     4     2    1
     6     2     3    2
     7     9     7    2
     8     9    11    1
     9     7     8    1
    10    11    12    2
    11     8    10    2
    12    12    10    1
