@<TRIPOS>MOLECULE
/home/cewinharhar/GITHUB/reincatalyze/data/processed/docking_pred/2023_Apr_20-15:07/86abca178b5bca4973d3a72a1df8ea50f2d75826_ligand_2.pdbqt
 12 12 0 0 0
SMALL
GASTEIGER

@<TRIPOS>ATOM
      1  C          8.4370   -0.6040   -2.1590 C.3     1  UNL1        0.1270
      2  C          8.4790   -1.8880   -2.8970 C.2     1  UNL1        0.3030
      3  O          9.5610   -2.5020   -3.0730 O.2     1  UNL1       -0.2520
      4  O          7.3230   -2.4470   -3.4160 O.3     1  UNL1       -0.4810
      5  H          6.6990   -1.8690   -3.9860 H       1  UNL1        0.2960
      6  C          7.0180   -0.1240   -2.1290 C.3     1  UNL1        0.0470
      7  C          6.4750    0.0440   -0.7820 C.2     1  UNL1       -0.0470
      8  C          5.8370    1.2080   -0.4210 C.2     1  UNL1        0.0040
      9  C          6.6080   -0.9790    0.1280 C.2     1  UNL1        0.0040
     10  C          5.3420    1.2990    0.8820 C.2     1  UNL1        0.0000
     11  C          6.1190   -0.8870    1.4160 C.2     1  UNL1        0.0000
     12  C          5.4790    0.2760    1.7860 C.2     1  UNL1        0.0000
@<TRIPOS>BOND
     1     5     4    1
     2     4     2    1
     3     3     2    2
     4     2     1    1
     5     1     6    1
     6     6     7    1
     7     7     8    2
     8     7     9    1
     9     8    10    1
    10     9    11    2
    11    10    12    2
    12    11    12    1
