@<TRIPOS>MOLECULE
/home/cewinharhar/GITHUB/reincatalyze/data/processed/docking_pred/2023_Apr_20-15:07/86abca178b5bca4973d3a72a1df8ea50f2d75826_ligand_2.pdbqt
 12 12 0 0 0
SMALL
GASTEIGER

@<TRIPOS>ATOM
      1  C          4.9800    1.7940    0.6970 C.3     1  UNL1        0.1270
      2  C          4.4760    1.1060    1.9090 C.2     1  UNL1        0.3030
      3  O          5.1380    0.1950    2.4630 O.2     1  UNL1       -0.2520
      4  O          3.2540    1.4510    2.4640 O.3     1  UNL1       -0.4810
      5  H          3.0240    2.4400    2.5930 H       1  UNL1        0.2960
      6  C          6.4780    1.7920    0.7440 C.3     1  UNL1        0.0470
      7  C          7.1060    1.0410   -0.3410 C.2     1  UNL1       -0.0470
      8  C          6.3790    0.1450   -1.0900 C.2     1  UNL1        0.0040
      9  C          8.4400    1.2410   -0.6110 C.2     1  UNL1        0.0040
     10  C          7.0440   -0.5360   -2.1120 C.2     1  UNL1        0.0000
     11  C          9.0960    0.5660   -1.6220 C.2     1  UNL1        0.0000
     12  C          8.3750   -0.3340   -2.3760 C.2     1  UNL1        0.0000
@<TRIPOS>BOND
     1    12    10    2
     2    12    11    1
     3    10     8    1
     4    11     9    2
     5     8     7    2
     6     9     7    1
     7     7     6    1
     8     1     6    1
     9     1     2    1
    10     2     3    2
    11     2     4    1
    12     4     5    1
