MODEL 1
REMARK VINA RESULT:      -7.3      0.000      0.000
REMARK SMILES O=C(O)CCc1ccccc1
REMARK SMILES IDX 4 1 2 2 1 3 3 4 5 6 6 7 7 8 11 9 8 10 10 11 9 12
REMARK H PARENT 3 5
REMARK Flexibility Score: inf
ROOT
ATOM      1  C   UNL     1       8.437  -0.604  -2.159  1.00  0.00     0.127 C 
ENDROOT
BRANCH   1   2
ATOM      2  C   UNL     1       8.479  -1.888  -2.897  1.00  0.00     0.303 C 
ATOM      3  O   UNL     1       9.561  -2.502  -3.073  1.00  0.00    -0.252 OA
BRANCH   2   4
ATOM      4  O   UNL     1       7.323  -2.447  -3.416  1.00  0.00    -0.481 OA
ATOM      5  H   UNL     1       6.699  -1.869  -3.986  1.00  0.00     0.296 HD
ENDBRANCH   2   4
ENDBRANCH   1   2
BRANCH   1   6
ATOM      6  C   UNL     1       7.018  -0.124  -2.129  1.00  0.00     0.047 C 
BRANCH   6   7
ATOM      7  C   UNL     1       6.475   0.044  -0.782  1.00  0.00    -0.047 A 
ATOM      8  C   UNL     1       5.837   1.208  -0.421  1.00  0.00     0.004 A 
ATOM      9  C   UNL     1       6.608  -0.979   0.128  1.00  0.00     0.004 A 
ATOM     10  C   UNL     1       5.342   1.299   0.882  1.00  0.00     0.000 A 
ATOM     11  C   UNL     1       6.119  -0.887   1.416  1.00  0.00     0.000 A 
ATOM     12  C   UNL     1       5.479   0.276   1.786  1.00  0.00     0.000 A 
ENDBRANCH   6   7
ENDBRANCH   1   6
TORSDOF 4
ENDMDL
MODEL 2
REMARK VINA RESULT:      -7.3      0.148      1.732
REMARK SMILES O=C(O)CCc1ccccc1
REMARK SMILES IDX 4 1 2 2 1 3 3 4 5 6 6 7 7 8 11 9 8 10 10 11 9 12
REMARK H PARENT 3 5
REMARK Flexibility Score: inf
ROOT
ATOM      1  C   UNL     1       8.451  -0.627  -2.128  1.00  0.00     0.127 C 
ENDROOT
BRANCH   1   2
ATOM      2  C   UNL     1       8.400  -1.896  -2.893  1.00  0.00     0.303 C 
ATOM      3  O   UNL     1       7.304  -2.410  -3.228  1.00  0.00    -0.252 OA
BRANCH   2   4
ATOM      4  O   UNL     1       9.565  -2.551  -3.260  1.00  0.00    -0.481 OA
ATOM      5  H   UNL     1       9.565  -3.142  -4.096  1.00  0.00     0.296 HD
ENDBRANCH   2   4
ENDBRANCH   1   2
BRANCH   1   6
ATOM      6  C   UNL     1       7.076  -0.032  -2.113  1.00  0.00     0.047 C 
BRANCH   6   7
ATOM      7  C   UNL     1       6.504   0.107  -0.775  1.00  0.00    -0.047 A 
ATOM      8  C   UNL     1       6.657  -0.887   0.163  1.00  0.00     0.004 A 
ATOM      9  C   UNL     1       5.807   1.251  -0.458  1.00  0.00     0.004 A 
ATOM     10  C   UNL     1       6.084  -0.686   1.421  1.00  0.00     0.000 A 
ATOM     11  C   UNL     1       5.242   1.448   0.786  1.00  0.00     0.000 A 
ATOM     12  C   UNL     1       5.390   0.456   1.731  1.00  0.00     0.000 A 
ENDBRANCH   6   7
ENDBRANCH   1   6
TORSDOF 4
ENDMDL
MODEL 3
REMARK VINA RESULT:      -6.8      3.381      5.079
REMARK SMILES O=C(O)CCc1ccccc1
REMARK SMILES IDX 4 1 2 2 1 3 3 4 5 6 6 7 7 8 11 9 8 10 10 11 9 12
REMARK H PARENT 3 5
REMARK Flexibility Score: inf
ROOT
ATOM      1  C   UNL     1       4.980   1.794   0.697  1.00  0.00     0.127 C 
ENDROOT
BRANCH   1   2
ATOM      2  C   UNL     1       4.476   1.106   1.909  1.00  0.00     0.303 C 
ATOM      3  O   UNL     1       5.138   0.195   2.463  1.00  0.00    -0.252 OA
BRANCH   2   4
ATOM      4  O   UNL     1       3.254   1.451   2.464  1.00  0.00    -0.481 OA
ATOM      5  H   UNL     1       3.024   2.440   2.593  1.00  0.00     0.296 HD
ENDBRANCH   2   4
ENDBRANCH   1   2
BRANCH   1   6
ATOM      6  C   UNL     1       6.478   1.792   0.744  1.00  0.00     0.047 C 
BRANCH   6   7
ATOM      7  C   UNL     1       7.106   1.041  -0.341  1.00  0.00    -0.047 A 
ATOM      8  C   UNL     1       6.379   0.145  -1.090  1.00  0.00     0.004 A 
ATOM      9  C   UNL     1       8.440   1.241  -0.611  1.00  0.00     0.004 A 
ATOM     10  C   UNL     1       7.044  -0.536  -2.112  1.00  0.00     0.000 A 
ATOM     11  C   UNL     1       9.096   0.566  -1.622  1.00  0.00     0.000 A 
ATOM     12  C   UNL     1       8.375  -0.334  -2.376  1.00  0.00     0.000 A 
ENDBRANCH   6   7
ENDBRANCH   1   6
TORSDOF 4
ENDMDL
MODEL 4
REMARK VINA RESULT:      -6.6      1.914      2.634
REMARK SMILES O=C(O)CCc1ccccc1
REMARK SMILES IDX 4 1 2 2 1 3 3 4 5 6 6 7 7 8 11 9 8 10 10 11 9 12
REMARK H PARENT 3 5
REMARK Flexibility Score: inf
ROOT
ATOM      1  C   UNL     1       8.160   0.343  -2.152  1.00  0.00     0.127 C 
ENDROOT
BRANCH   1   2
ATOM      2  C   UNL     1       9.335   0.376  -1.249  1.00  0.00     0.303 C 
ATOM      3  O   UNL     1       9.433  -0.417  -0.280  1.00  0.00    -0.252 OA
BRANCH   2   4
ATOM      4  O   UNL     1      10.359   1.287  -1.450  1.00  0.00    -0.481 OA
ATOM      5  H   UNL     1      10.191   2.109  -2.037  1.00  0.00     0.296 HD
ENDBRANCH   2   4
ENDBRANCH   1   2
BRANCH   1   6
ATOM      6  C   UNL     1       7.098  -0.499  -1.512  1.00  0.00     0.047 C 
BRANCH   6   7
ATOM      7  C   UNL     1       6.329   0.196  -0.481  1.00  0.00    -0.047 A 
ATOM      8  C   UNL     1       6.154  -0.364   0.763  1.00  0.00     0.004 A 
ATOM      9  C   UNL     1       5.780   1.424  -0.767  1.00  0.00     0.004 A 
ATOM     10  C   UNL     1       5.409   0.357   1.699  1.00  0.00     0.000 A 
ATOM     11  C   UNL     1       5.043   2.135   0.159  1.00  0.00     0.000 A 
ATOM     12  C   UNL     1       4.862   1.581   1.408  1.00  0.00     0.000 A 
ENDBRANCH   6   7
ENDBRANCH   1   6
TORSDOF 4
ENDMDL
MODEL 5
REMARK VINA RESULT:      -6.6      1.994      2.531
REMARK SMILES O=C(O)CCc1ccccc1
REMARK SMILES IDX 4 1 2 2 1 3 3 4 5 6 6 7 7 8 11 9 8 10 10 11 9 12
REMARK H PARENT 3 5
REMARK Flexibility Score: inf
ROOT
ATOM      1  C   UNL     1       7.999  -2.063   0.830  1.00  0.00     0.127 C 
ENDROOT
BRANCH   1   2
ATOM      2  C   UNL     1       8.710  -3.267   0.339  1.00  0.00     0.303 C 
ATOM      3  O   UNL     1       9.530  -3.880   1.066  1.00  0.00    -0.252 OA
BRANCH   2   4
ATOM      4  O   UNL     1       8.488  -3.750  -0.941  1.00  0.00    -0.481 OA
ATOM      5  H   UNL     1       7.939  -4.605  -1.065  1.00  0.00     0.296 HD
ENDBRANCH   2   4
ENDBRANCH   1   2
BRANCH   1   6
ATOM      6  C   UNL     1       7.385  -1.366  -0.346  1.00  0.00     0.047 C 
BRANCH   6   7
ATOM      7  C   UNL     1       6.532  -0.234   0.012  1.00  0.00    -0.047 A 
ATOM      8  C   UNL     1       6.277   0.768  -0.894  1.00  0.00     0.004 A 
ATOM      9  C   UNL     1       5.981  -0.182   1.271  1.00  0.00     0.004 A 
ATOM     10  C   UNL     1       5.452   1.818  -0.484  1.00  0.00     0.000 A 
ATOM     11  C   UNL     1       5.166   0.857   1.675  1.00  0.00     0.000 A 
ATOM     12  C   UNL     1       4.906   1.867   0.774  1.00  0.00     0.000 A 
ENDBRANCH   6   7
ENDBRANCH   1   6
TORSDOF 4
ENDMDL
