@<TRIPOS>MOLECULE
/home/cewinharhar/GITHUB/reincatalyze/data/processed/docking_pred/2023_Apr_20-15:07/86abca178b5bca4973d3a72a1df8ea50f2d75826_ligand_2.pdbqt
 12 12 0 0 0
SMALL
GASTEIGER

@<TRIPOS>ATOM
      1  C          7.9990   -2.0630    0.8300 C.3     1  UNL1        0.1270
      2  C          8.7100   -3.2670    0.3390 C.2     1  UNL1        0.3030
      3  O          9.5300   -3.8800    1.0660 O.2     1  UNL1       -0.2520
      4  O          8.4880   -3.7500   -0.9410 O.3     1  UNL1       -0.4810
      5  H          7.9390   -4.6050   -1.0650 H       1  UNL1        0.2960
      6  C          7.3850   -1.3660   -0.3460 C.3     1  UNL1        0.0470
      7  C          6.5320   -0.2340    0.0120 C.2     1  UNL1       -0.0470
      8  C          6.2770    0.7680   -0.8940 C.2     1  UNL1        0.0040
      9  C          5.9810   -0.1820    1.2710 C.2     1  UNL1        0.0040
     10  C          5.4520    1.8180   -0.4840 C.2     1  UNL1        0.0000
     11  C          5.1660    0.8570    1.6750 C.2     1  UNL1        0.0000
     12  C          4.9060    1.8670    0.7740 C.2     1  UNL1        0.0000
@<TRIPOS>BOND
     1     5     4    1
     2     4     2    1
     3     8    10    1
     4     8     7    2
     5    10    12    2
     6     6     7    1
     7     6     1    1
     8     7     9    1
     9     2     1    1
    10     2     3    2
    11    12    11    1
    12     9    11    2
