@<TRIPOS>MOLECULE
/home/cewinharhar/GITHUB/reincatalyze/data/processed/docking_pred/2023_Apr_20-15:07/8c75984685002de52dc1feb6518b36ce8b766619_ligand_2.pdbqt
 12 12 0 0 0
SMALL
GASTEIGER

@<TRIPOS>ATOM
      1  C          5.0050    1.7910    0.6230 C.3     1  UNL1        0.1270
      2  C          4.5200    1.1430    1.8640 C.2     1  UNL1        0.3030
      3  O          5.2050    0.2700    2.4530 O.2     1  UNL1       -0.2520
      4  O          3.2930    1.4830    2.4100 O.3     1  UNL1       -0.4810
      5  H          2.4770    1.5620    1.7970 H       1  UNL1        0.2960
      6  C          6.5020    1.8340    0.6680 C.3     1  UNL1        0.0470
      7  C          7.1510    1.0550   -0.3850 C.2     1  UNL1       -0.0470
      8  C          8.4950    1.2030   -0.6430 C.2     1  UNL1        0.0040
      9  C          6.4030    0.1640   -1.1190 C.2     1  UNL1        0.0040
     10  C          9.0490    0.4260   -1.6620 C.2     1  UNL1        0.0000
     11  C          6.9530   -0.6030   -2.1270 C.2     1  UNL1        0.0000
     12  C          8.2970   -0.4600   -2.3920 C.2     1  UNL1        0.0000
@<TRIPOS>BOND
     1    12    11    2
     2    12    10    1
     3    11     9    1
     4    10     8    2
     5     9     7    2
     6     8     7    1
     7     7     6    1
     8     1     6    1
     9     1     2    1
    10     5     4    1
    11     2     4    1
    12     2     3    2
