@<TRIPOS>MOLECULE
/home/cewinharhar/GITHUB/reincatalyze/data/processed/docking_pred/2023_Apr_20-15:07/8c75984685002de52dc1feb6518b36ce8b766619_ligand_2.pdbqt
 12 12 0 0 0
SMALL
GASTEIGER

@<TRIPOS>ATOM
      1  C          8.4120   -0.5690   -2.2080 C.3     1  UNL1        0.1270
      2  C          8.4640   -1.8770   -2.9040 C.2     1  UNL1        0.3030
      3  O          9.5480   -2.4930   -3.0500 O.2     1  UNL1       -0.2520
      4  O          7.3130   -2.4560   -3.4140 O.3     1  UNL1       -0.4810
      5  H          6.4630   -1.8920   -3.4970 H       1  UNL1        0.2960
      6  C          6.9820   -0.1240   -2.1500 C.3     1  UNL1        0.0470
      7  C          6.4660    0.0420   -0.7920 C.2     1  UNL1       -0.0470
      8  C          5.8570    1.2140   -0.4090 C.2     1  UNL1        0.0040
      9  C          6.5940   -0.9930    0.1060 C.2     1  UNL1        0.0040
     10  C          5.3870    1.3010    0.9040 C.2     1  UNL1        0.0000
     11  C          6.1300   -0.9050    1.4030 C.2     1  UNL1        0.0000
     12  C          5.5190    0.2660    1.7950 C.2     1  UNL1        0.0000
@<TRIPOS>BOND
     1     5     4    1
     2     4     2    1
     3     3     2    2
     4     2     1    1
     5     1     6    1
     6     6     7    1
     7     7     8    2
     8     7     9    1
     9     8    10    1
    10     9    11    2
    11    10    12    2
    12    11    12    1
