MODEL 1
REMARK VINA RESULT:      -7.3      0.000      0.000
REMARK SMILES O=C(O)CCc1ccccc1
REMARK SMILES IDX 4 1 2 2 1 3 3 4 5 6 6 7 7 8 11 9 8 10 10 11 9 12
REMARK H PARENT 3 5
REMARK Flexibility Score: inf
ROOT
ATOM      1  C   UNL     1       8.489  -0.625  -2.130  1.00  0.00     0.127 C 
ENDROOT
BRANCH   1   2
ATOM      2  C   UNL     1       8.505  -1.888  -2.906  1.00  0.00     0.303 C 
ATOM      3  O   UNL     1       9.578  -2.500  -3.131  1.00  0.00    -0.252 OA
BRANCH   2   4
ATOM      4  O   UNL     1       7.331  -2.429  -3.406  1.00  0.00    -0.481 OA
ATOM      5  H   UNL     1       6.815  -1.922  -4.131  1.00  0.00     0.296 HD
ENDBRANCH   2   4
ENDBRANCH   1   2
BRANCH   1   6
ATOM      6  C   UNL     1       7.090  -0.089  -2.132  1.00  0.00     0.047 C 
BRANCH   6   7
ATOM      7  C   UNL     1       6.513   0.074  -0.799  1.00  0.00    -0.047 A 
ATOM      8  C   UNL     1       6.638  -0.916   0.148  1.00  0.00     0.004 A 
ATOM      9  C   UNL     1       5.842   1.236  -0.496  1.00  0.00     0.004 A 
ATOM     10  C   UNL     1       6.064  -0.691   1.401  1.00  0.00     0.000 A 
ATOM     11  C   UNL     1       5.274   1.457   0.743  1.00  0.00     0.000 A 
ATOM     12  C   UNL     1       5.394   0.469   1.697  1.00  0.00     0.000 A 
ENDBRANCH   6   7
ENDBRANCH   1   6
TORSDOF 4
ENDMDL
MODEL 2
REMARK VINA RESULT:      -7.3      0.148      1.442
REMARK SMILES O=C(O)CCc1ccccc1
REMARK SMILES IDX 4 1 2 2 1 3 3 4 5 6 6 7 7 8 11 9 8 10 10 11 9 12
REMARK H PARENT 3 5
REMARK Flexibility Score: inf
ROOT
ATOM      1  C   UNL     1       8.412  -0.569  -2.208  1.00  0.00     0.127 C 
ENDROOT
BRANCH   1   2
ATOM      2  C   UNL     1       8.464  -1.877  -2.904  1.00  0.00     0.303 C 
ATOM      3  O   UNL     1       9.548  -2.493  -3.050  1.00  0.00    -0.252 OA
BRANCH   2   4
ATOM      4  O   UNL     1       7.313  -2.456  -3.414  1.00  0.00    -0.481 OA
ATOM      5  H   UNL     1       6.463  -1.892  -3.497  1.00  0.00     0.296 HD
ENDBRANCH   2   4
ENDBRANCH   1   2
BRANCH   1   6
ATOM      6  C   UNL     1       6.982  -0.124  -2.150  1.00  0.00     0.047 C 
BRANCH   6   7
ATOM      7  C   UNL     1       6.466   0.042  -0.792  1.00  0.00    -0.047 A 
ATOM      8  C   UNL     1       5.857   1.214  -0.409  1.00  0.00     0.004 A 
ATOM      9  C   UNL     1       6.594  -0.993   0.106  1.00  0.00     0.004 A 
ATOM     10  C   UNL     1       5.387   1.301   0.904  1.00  0.00     0.000 A 
ATOM     11  C   UNL     1       6.130  -0.905   1.403  1.00  0.00     0.000 A 
ATOM     12  C   UNL     1       5.519   0.266   1.795  1.00  0.00     0.000 A 
ENDBRANCH   6   7
ENDBRANCH   1   6
TORSDOF 4
ENDMDL
MODEL 3
REMARK VINA RESULT:      -6.7      3.352      5.058
REMARK SMILES O=C(O)CCc1ccccc1
REMARK SMILES IDX 4 1 2 2 1 3 3 4 5 6 6 7 7 8 11 9 8 10 10 11 9 12
REMARK H PARENT 3 5
REMARK Flexibility Score: inf
ROOT
ATOM      1  C   UNL     1       5.005   1.791   0.623  1.00  0.00     0.127 C 
ENDROOT
BRANCH   1   2
ATOM      2  C   UNL     1       4.520   1.143   1.864  1.00  0.00     0.303 C 
ATOM      3  O   UNL     1       5.205   0.270   2.453  1.00  0.00    -0.252 OA
BRANCH   2   4
ATOM      4  O   UNL     1       3.293   1.483   2.410  1.00  0.00    -0.481 OA
ATOM      5  H   UNL     1       2.477   1.562   1.797  1.00  0.00     0.296 HD
ENDBRANCH   2   4
ENDBRANCH   1   2
BRANCH   1   6
ATOM      6  C   UNL     1       6.502   1.834   0.668  1.00  0.00     0.047 C 
BRANCH   6   7
ATOM      7  C   UNL     1       7.151   1.055  -0.385  1.00  0.00    -0.047 A 
ATOM      8  C   UNL     1       8.495   1.203  -0.643  1.00  0.00     0.004 A 
ATOM      9  C   UNL     1       6.403   0.164  -1.119  1.00  0.00     0.004 A 
ATOM     10  C   UNL     1       9.049   0.426  -1.662  1.00  0.00     0.000 A 
ATOM     11  C   UNL     1       6.953  -0.603  -2.127  1.00  0.00     0.000 A 
ATOM     12  C   UNL     1       8.297  -0.460  -2.392  1.00  0.00     0.000 A 
ENDBRANCH   6   7
ENDBRANCH   1   6
TORSDOF 4
ENDMDL
MODEL 4
REMARK VINA RESULT:      -6.7      0.883      1.270
REMARK SMILES O=C(O)CCc1ccccc1
REMARK SMILES IDX 4 1 2 2 1 3 3 4 5 6 6 7 7 8 11 9 8 10 10 11 9 12
REMARK H PARENT 3 5
REMARK Flexibility Score: inf
ROOT
ATOM      1  C   UNL     1       8.277  -0.760  -1.757  1.00  0.00     0.127 C 
ENDROOT
BRANCH   1   2
ATOM      2  C   UNL     1       8.234  -1.795  -2.816  1.00  0.00     0.303 C 
ATOM      3  O   UNL     1       8.111  -3.013  -2.531  1.00  0.00    -0.252 OA
BRANCH   2   4
ATOM      4  O   UNL     1       8.329  -1.447  -4.154  1.00  0.00    -0.481 OA
ATOM      5  H   UNL     1       7.476  -1.231  -4.677  1.00  0.00     0.296 HD
ENDBRANCH   2   4
ENDBRANCH   1   2
BRANCH   1   6
ATOM      6  C   UNL     1       7.528  -1.274  -0.565  1.00  0.00     0.047 C 
BRANCH   6   7
ATOM      7  C   UNL     1       6.612  -0.300   0.026  1.00  0.00    -0.047 A 
ATOM      8  C   UNL     1       6.075  -0.508   1.276  1.00  0.00     0.004 A 
ATOM      9  C   UNL     1       6.290   0.835  -0.681  1.00  0.00     0.004 A 
ATOM     10  C   UNL     1       5.208   0.464   1.779  1.00  0.00     0.000 A 
ATOM     11  C   UNL     1       5.432   1.795  -0.182  1.00  0.00     0.000 A 
ATOM     12  C   UNL     1       4.890   1.594   1.068  1.00  0.00     0.000 A 
ENDBRANCH   6   7
ENDBRANCH   1   6
TORSDOF 4
ENDMDL
MODEL 5
REMARK VINA RESULT:      -6.5      2.045      2.854
REMARK SMILES O=C(O)CCc1ccccc1
REMARK SMILES IDX 4 1 2 2 1 3 3 4 5 6 6 7 7 8 11 9 8 10 10 11 9 12
REMARK H PARENT 3 5
REMARK Flexibility Score: inf
ROOT
ATOM      1  C   UNL     1       8.027  -2.275   0.822  1.00  0.00     0.127 C 
ENDROOT
BRANCH   1   2
ATOM      2  C   UNL     1       8.821  -3.415   0.307  1.00  0.00     0.303 C 
ATOM      3  O   UNL     1       8.713  -3.797  -0.885  1.00  0.00    -0.252 OA
BRANCH   2   4
ATOM      4  O   UNL     1       9.706  -4.094   1.129  1.00  0.00    -0.481 OA
ATOM      5  H   UNL     1      10.710  -4.032   0.943  1.00  0.00     0.296 HD
ENDBRANCH   2   4
ENDBRANCH   1   2
BRANCH   1   6
ATOM      6  C   UNL     1       7.490  -1.508  -0.348  1.00  0.00     0.047 C 
BRANCH   6   7
ATOM      7  C   UNL     1       6.634  -0.382   0.021  1.00  0.00    -0.047 A 
ATOM      8  C   UNL     1       6.371   0.626  -0.877  1.00  0.00     0.004 A 
ATOM      9  C   UNL     1       6.088  -0.340   1.283  1.00  0.00     0.004 A 
ATOM     10  C   UNL     1       5.544   1.670  -0.457  1.00  0.00     0.000 A 
ATOM     11  C   UNL     1       5.271   0.693   1.698  1.00  0.00     0.000 A 
ATOM     12  C   UNL     1       5.003   1.707   0.804  1.00  0.00     0.000 A 
ENDBRANCH   6   7
ENDBRANCH   1   6
TORSDOF 4
ENDMDL
