@<TRIPOS>MOLECULE
/home/cewinharhar/GITHUB/reincatalyze/data/processed/docking_pred/2023_Apr_20-15:07/8c75984685002de52dc1feb6518b36ce8b766619_ligand_2.pdbqt
 12 12 0 0 0
SMALL
GASTEIGER

@<TRIPOS>ATOM
      1  C          8.0270   -2.2750    0.8220 C.3     1  UNL1        0.1270
      2  C          8.8210   -3.4150    0.3070 C.2     1  UNL1        0.3030
      3  O          8.7130   -3.7970   -0.8850 O.2     1  UNL1       -0.2520
      4  O          9.7060   -4.0940    1.1290 O.3     1  UNL1       -0.4810
      5  H         10.7100   -4.0320    0.9430 H       1  UNL1        0.2960
      6  C          7.4900   -1.5080   -0.3480 C.3     1  UNL1        0.0470
      7  C          6.6340   -0.3820    0.0210 C.2     1  UNL1       -0.0470
      8  C          6.3710    0.6260   -0.8770 C.2     1  UNL1        0.0040
      9  C          6.0880   -0.3400    1.2830 C.2     1  UNL1        0.0040
     10  C          5.5440    1.6700   -0.4570 C.2     1  UNL1        0.0000
     11  C          5.2710    0.6930    1.6980 C.2     1  UNL1        0.0000
     12  C          5.0030    1.7070    0.8040 C.2     1  UNL1        0.0000
@<TRIPOS>BOND
     1     3     2    2
     2     8    10    1
     3     8     7    2
     4    10    12    2
     5     6     7    1
     6     6     1    1
     7     7     9    1
     8     2     1    1
     9     2     4    1
    10    12    11    1
    11     5     4    1
    12     9    11    2
