@<TRIPOS>MOLECULE
/home/cewinharhar/GITHUB/reincatalyze/data/processed/docking_pred/2023_Apr_20-15:07/8c75984685002de52dc1feb6518b36ce8b766619_ligand_2.pdbqt
 12 12 0 0 0
SMALL
GASTEIGER

@<TRIPOS>ATOM
      1  C          8.2770   -0.7600   -1.7570 C.3     1  UNL1        0.1270
      2  C          8.2340   -1.7950   -2.8160 C.2     1  UNL1        0.3030
      3  O          8.1110   -3.0130   -2.5310 O.2     1  UNL1       -0.2520
      4  O          8.3290   -1.4470   -4.1540 O.3     1  UNL1       -0.4810
      5  H          7.4760   -1.2310   -4.6770 H       1  UNL1        0.2960
      6  C          7.5280   -1.2740   -0.5650 C.3     1  UNL1        0.0470
      7  C          6.6120   -0.3000    0.0260 C.2     1  UNL1       -0.0470
      8  C          6.0750   -0.5080    1.2760 C.2     1  UNL1        0.0040
      9  C          6.2900    0.8350   -0.6810 C.2     1  UNL1        0.0040
     10  C          5.2080    0.4640    1.7790 C.2     1  UNL1        0.0000
     11  C          5.4320    1.7950   -0.1820 C.2     1  UNL1        0.0000
     12  C          4.8900    1.5940    1.0680 C.2     1  UNL1        0.0000
@<TRIPOS>BOND
     1     5     4    1
     2     4     2    1
     3     2     3    2
     4     2     1    1
     5     1     6    1
     6     9    11    1
     7     9     7    2
     8     6     7    1
     9    11    12    2
    10     7     8    1
    11    12    10    1
    12     8    10    2
