MODEL 1
REMARK VINA RESULT:      -7.0      0.000      0.000
REMARK SMILES O=C(O)CCc1ccccc1
REMARK SMILES IDX 4 1 2 2 1 3 3 4 5 6 6 7 7 8 11 9 8 10 10 11 9 12
REMARK H PARENT 3 5
REMARK Flexibility Score: inf
ROOT
ATOM      1  C   UNL     1       8.380  -0.547  -2.262  1.00  0.00     0.127 C 
ENDROOT
BRANCH   1   2
ATOM      2  C   UNL     1       8.452  -1.876  -2.914  1.00  0.00     0.303 C 
ATOM      3  O   UNL     1       9.546  -2.478  -3.047  1.00  0.00    -0.252 OA
BRANCH   2   4
ATOM      4  O   UNL     1       7.309  -2.492  -3.398  1.00  0.00    -0.481 OA
ATOM      5  H   UNL     1       6.448  -1.946  -3.494  1.00  0.00     0.296 HD
ENDBRANCH   2   4
ENDBRANCH   1   2
BRANCH   1   6
ATOM      6  C   UNL     1       6.940  -0.140  -2.179  1.00  0.00     0.047 C 
BRANCH   6   7
ATOM      7  C   UNL     1       6.446   0.022  -0.813  1.00  0.00    -0.047 A 
ATOM      8  C   UNL     1       5.847   1.195  -0.416  1.00  0.00     0.004 A 
ATOM      9  C   UNL     1       6.584  -1.017   0.079  1.00  0.00     0.004 A 
ATOM     10  C   UNL     1       5.398   1.280   0.904  1.00  0.00     0.000 A 
ATOM     11  C   UNL     1       6.139  -0.931   1.383  1.00  0.00     0.000 A 
ATOM     12  C   UNL     1       5.539   0.241   1.789  1.00  0.00     0.000 A 
ENDBRANCH   6   7
ENDBRANCH   1   6
TORSDOF 4
ENDMDL
MODEL 2
REMARK VINA RESULT:      -6.9      0.408      1.489
REMARK SMILES O=C(O)CCc1ccccc1
REMARK SMILES IDX 4 1 2 2 1 3 3 4 5 6 6 7 7 8 11 9 8 10 10 11 9 12
REMARK H PARENT 3 5
REMARK Flexibility Score: inf
ROOT
ATOM      1  C   UNL     1       8.374  -0.835  -1.999  1.00  0.00     0.127 C 
ENDROOT
BRANCH   1   2
ATOM      2  C   UNL     1       8.256  -2.156  -2.660  1.00  0.00     0.303 C 
ATOM      3  O   UNL     1       9.086  -3.072  -2.436  1.00  0.00    -0.252 OA
BRANCH   2   4
ATOM      4  O   UNL     1       7.224  -2.418  -3.546  1.00  0.00    -0.481 OA
ATOM      5  H   UNL     1       7.066  -3.379  -3.862  1.00  0.00     0.296 HD
ENDBRANCH   2   4
ENDBRANCH   1   2
BRANCH   1   6
ATOM      6  C   UNL     1       7.032  -0.169  -2.038  1.00  0.00     0.047 C 
BRANCH   6   7
ATOM      7  C   UNL     1       6.442   0.056  -0.719  1.00  0.00    -0.047 A 
ATOM      8  C   UNL     1       6.533  -0.901   0.265  1.00  0.00     0.004 A 
ATOM      9  C   UNL     1       5.792   1.243  -0.468  1.00  0.00     0.004 A 
ATOM     10  C   UNL     1       5.947  -0.618   1.501  1.00  0.00     0.000 A 
ATOM     11  C   UNL     1       5.213   1.521   0.754  1.00  0.00     0.000 A 
ATOM     12  C   UNL     1       5.299   0.567   1.745  1.00  0.00     0.000 A 
ENDBRANCH   6   7
ENDBRANCH   1   6
TORSDOF 4
ENDMDL
MODEL 3
REMARK VINA RESULT:      -6.8      0.996      1.547
REMARK SMILES O=C(O)CCc1ccccc1
REMARK SMILES IDX 4 1 2 2 1 3 3 4 5 6 6 7 7 8 11 9 8 10 10 11 9 12
REMARK H PARENT 3 5
REMARK Flexibility Score: inf
ROOT
ATOM      1  C   UNL     1       7.298  -1.297  -2.224  1.00  0.00     0.127 C 
ENDROOT
BRANCH   1   2
ATOM      2  C   UNL     1       8.746  -1.364  -2.528  1.00  0.00     0.303 C 
ATOM      3  O   UNL     1       9.542  -0.490  -2.101  1.00  0.00    -0.252 OA
BRANCH   2   4
ATOM      4  O   UNL     1       9.264  -2.394  -3.296  1.00  0.00    -0.481 OA
ATOM      5  H   UNL     1       8.891  -2.556  -4.235  1.00  0.00     0.296 HD
ENDBRANCH   2   4
ENDBRANCH   1   2
BRANCH   1   6
ATOM      6  C   UNL     1       7.125  -1.377  -0.738  1.00  0.00     0.047 C 
BRANCH   6   7
ATOM      7  C   UNL     1       6.388  -0.252  -0.164  1.00  0.00    -0.047 A 
ATOM      8  C   UNL     1       6.139   0.878  -0.908  1.00  0.00     0.004 A 
ATOM      9  C   UNL     1       5.941  -0.335   1.134  1.00  0.00     0.004 A 
ATOM     10  C   UNL     1       5.428   1.913  -0.296  1.00  0.00     0.000 A 
ATOM     11  C   UNL     1       5.239   0.690   1.738  1.00  0.00     0.000 A 
ATOM     12  C   UNL     1       4.985   1.826   1.000  1.00  0.00     0.000 A 
ENDBRANCH   6   7
ENDBRANCH   1   6
TORSDOF 4
ENDMDL
MODEL 4
REMARK VINA RESULT:      -6.7      1.388      1.979
REMARK SMILES O=C(O)CCc1ccccc1
REMARK SMILES IDX 4 1 2 2 1 3 3 4 5 6 6 7 7 8 11 9 8 10 10 11 9 12
REMARK H PARENT 3 5
REMARK Flexibility Score: inf
ROOT
ATOM      1  C   UNL     1       8.355  -0.482  -2.296  1.00  0.00     0.127 C 
ENDROOT
BRANCH   1   2
ATOM      2  C   UNL     1       8.426  -1.811  -2.947  1.00  0.00     0.303 C 
ATOM      3  O   UNL     1       9.524  -2.404  -3.097  1.00  0.00    -0.252 OA
BRANCH   2   4
ATOM      4  O   UNL     1       7.281  -2.439  -3.409  1.00  0.00    -0.481 OA
ATOM      5  H   UNL     1       6.673  -1.948  -4.070  1.00  0.00     0.296 HD
ENDBRANCH   2   4
ENDBRANCH   1   2
BRANCH   1   6
ATOM      6  C   UNL     1       7.494  -0.601  -1.076  1.00  0.00     0.047 C 
BRANCH   6   7
ATOM      7  C   UNL     1       7.056   0.683  -0.530  1.00  0.00    -0.047 A 
ATOM      8  C   UNL     1       7.941   1.506   0.128  1.00  0.00     0.004 A 
ATOM      9  C   UNL     1       5.743   1.064  -0.681  1.00  0.00     0.004 A 
ATOM     10  C   UNL     1       7.453   2.718   0.623  1.00  0.00     0.000 A 
ATOM     11  C   UNL     1       5.263   2.262  -0.191  1.00  0.00     0.000 A 
ATOM     12  C   UNL     1       6.142   3.092   0.469  1.00  0.00     0.000 A 
ENDBRANCH   6   7
ENDBRANCH   1   6
TORSDOF 4
ENDMDL
MODEL 5
REMARK VINA RESULT:      -6.4      3.435      5.100
REMARK SMILES O=C(O)CCc1ccccc1
REMARK SMILES IDX 4 1 2 2 1 3 3 4 5 6 6 7 7 8 11 9 8 10 10 11 9 12
REMARK H PARENT 3 5
REMARK Flexibility Score: inf
ROOT
ATOM      1  C   UNL     1       4.962   1.883   0.791  1.00  0.00     0.127 C 
ENDROOT
BRANCH   1   2
ATOM      2  C   UNL     1       4.430   1.132   1.952  1.00  0.00     0.303 C 
ATOM      3  O   UNL     1       5.077   0.186   2.466  1.00  0.00    -0.252 OA
BRANCH   2   4
ATOM      4  O   UNL     1       3.200   1.454   2.504  1.00  0.00    -0.481 OA
ATOM      5  H   UNL     1       2.357   0.991   2.152  1.00  0.00     0.296 HD
ENDBRANCH   2   4
ENDBRANCH   1   2
BRANCH   1   6
ATOM      6  C   UNL     1       6.454   1.945   0.913  1.00  0.00     0.047 C 
BRANCH   6   7
ATOM      7  C   UNL     1       7.167   1.265  -0.166  1.00  0.00    -0.047 A 
ATOM      8  C   UNL     1       8.536   1.358  -0.272  1.00  0.00     0.004 A 
ATOM      9  C   UNL     1       6.454   0.525  -1.081  1.00  0.00     0.004 A 
ATOM     10  C   UNL     1       9.151   0.681  -1.328  1.00  0.00     0.000 A 
ATOM     11  C   UNL     1       7.064  -0.143  -2.124  1.00  0.00     0.000 A 
ATOM     12  C   UNL     1       8.435  -0.055  -2.237  1.00  0.00     0.000 A 
ENDBRANCH   6   7
ENDBRANCH   1   6
TORSDOF 4
ENDMDL
