@<TRIPOS>MOLECULE
/home/cewinharhar/GITHUB/reincatalyze/data/processed/docking_pred/2023_Apr_20-15:07/8f258178c278a1f8efc989ef7d8625b520fa90c8_ligand_2.pdbqt
 12 12 0 0 0
SMALL
GASTEIGER

@<TRIPOS>ATOM
      1  C          8.3550   -0.4820   -2.2960 C.3     1  UNL1        0.1270
      2  C          8.4260   -1.8110   -2.9470 C.2     1  UNL1        0.3030
      3  O          9.5240   -2.4040   -3.0970 O.2     1  UNL1       -0.2520
      4  O          7.2810   -2.4390   -3.4090 O.3     1  UNL1       -0.4810
      5  H          6.6730   -1.9480   -4.0700 H       1  UNL1        0.2960
      6  C          7.4940   -0.6010   -1.0760 C.3     1  UNL1        0.0470
      7  C          7.0560    0.6830   -0.5300 C.2     1  UNL1       -0.0470
      8  C          7.9410    1.5060    0.1280 C.2     1  UNL1        0.0040
      9  C          5.7430    1.0640   -0.6810 C.2     1  UNL1        0.0040
     10  C          7.4530    2.7180    0.6230 C.2     1  UNL1        0.0000
     11  C          5.2630    2.2620   -0.1910 C.2     1  UNL1        0.0000
     12  C          6.1420    3.0920    0.4690 C.2     1  UNL1        0.0000
@<TRIPOS>BOND
     1     5     4    1
     2     4     2    1
     3     3     2    2
     4     2     1    1
     5     1     6    1
     6     6     7    1
     7     9     7    2
     8     9    11    1
     9     7     8    1
    10    11    12    2
    11     8    10    2
    12    12    10    1
