@<TRIPOS>MOLECULE
/home/cewinharhar/GITHUB/reincatalyze/data/processed/docking_pred/2023_Apr_20-15:07/8f258178c278a1f8efc989ef7d8625b520fa90c8_ligand_2.pdbqt
 12 12 0 0 0
SMALL
GASTEIGER

@<TRIPOS>ATOM
      1  C          8.3740   -0.8350   -1.9990 C.3     1  UNL1        0.1270
      2  C          8.2560   -2.1560   -2.6600 C.2     1  UNL1        0.3030
      3  O          9.0860   -3.0720   -2.4360 O.2     1  UNL1       -0.2520
      4  O          7.2240   -2.4180   -3.5460 O.3     1  UNL1       -0.4810
      5  H          7.0660   -3.3790   -3.8620 H       1  UNL1        0.2960
      6  C          7.0320   -0.1690   -2.0380 C.3     1  UNL1        0.0470
      7  C          6.4420    0.0560   -0.7190 C.2     1  UNL1       -0.0470
      8  C          6.5330   -0.9010    0.2650 C.2     1  UNL1        0.0040
      9  C          5.7920    1.2430   -0.4680 C.2     1  UNL1        0.0040
     10  C          5.9470   -0.6180    1.5010 C.2     1  UNL1        0.0000
     11  C          5.2130    1.5210    0.7540 C.2     1  UNL1        0.0000
     12  C          5.2990    0.5670    1.7450 C.2     1  UNL1        0.0000
@<TRIPOS>BOND
     1     5     4    1
     2     4     2    1
     3     2     3    2
     4     2     1    1
     5     6     1    1
     6     6     7    1
     7     7     9    2
     8     7     8    1
     9     9    11    1
    10     8    10    2
    11    11    12    2
    12    10    12    1
