@<TRIPOS>MOLECULE
/home/cewinharhar/GITHUB/reincatalyze/data/processed/docking_pred/2023_Apr_20-15:07/8f258178c278a1f8efc989ef7d8625b520fa90c8_ligand_2.pdbqt
 12 12 0 0 0
SMALL
GASTEIGER

@<TRIPOS>ATOM
      1  C          8.3800   -0.5470   -2.2620 C.3     1  UNL1        0.1270
      2  C          8.4520   -1.8760   -2.9140 C.2     1  UNL1        0.3030
      3  O          9.5460   -2.4780   -3.0470 O.2     1  UNL1       -0.2520
      4  O          7.3090   -2.4920   -3.3980 O.3     1  UNL1       -0.4810
      5  H          6.4480   -1.9460   -3.4940 H       1  UNL1        0.2960
      6  C          6.9400   -0.1400   -2.1790 C.3     1  UNL1        0.0470
      7  C          6.4460    0.0220   -0.8130 C.2     1  UNL1       -0.0470
      8  C          5.8470    1.1950   -0.4160 C.2     1  UNL1        0.0040
      9  C          6.5840   -1.0170    0.0790 C.2     1  UNL1        0.0040
     10  C          5.3980    1.2800    0.9040 C.2     1  UNL1        0.0000
     11  C          6.1390   -0.9310    1.3830 C.2     1  UNL1        0.0000
     12  C          5.5390    0.2410    1.7890 C.2     1  UNL1        0.0000
@<TRIPOS>BOND
     1     5     4    1
     2     4     2    1
     3     3     2    2
     4     2     1    1
     5     1     6    1
     6     6     7    1
     7     7     8    2
     8     7     9    1
     9     8    10    1
    10     9    11    2
    11    10    12    2
    12    11    12    1
