@<TRIPOS>MOLECULE
/home/cewinharhar/GITHUB/reincatalyze/data/processed/docking_pred/2023_Apr_20-15:07/8f258178c278a1f8efc989ef7d8625b520fa90c8_ligand_2.pdbqt
 12 12 0 0 0
SMALL
GASTEIGER

@<TRIPOS>ATOM
      1  C          7.2980   -1.2970   -2.2240 C.3     1  UNL1        0.1270
      2  C          8.7460   -1.3640   -2.5280 C.2     1  UNL1        0.3030
      3  O          9.5420   -0.4900   -2.1010 O.2     1  UNL1       -0.2520
      4  O          9.2640   -2.3940   -3.2960 O.3     1  UNL1       -0.4810
      5  H          8.8910   -2.5560   -4.2350 H       1  UNL1        0.2960
      6  C          7.1250   -1.3770   -0.7380 C.3     1  UNL1        0.0470
      7  C          6.3880   -0.2520   -0.1640 C.2     1  UNL1       -0.0470
      8  C          6.1390    0.8780   -0.9080 C.2     1  UNL1        0.0040
      9  C          5.9410   -0.3350    1.1340 C.2     1  UNL1        0.0040
     10  C          5.4280    1.9130   -0.2960 C.2     1  UNL1        0.0000
     11  C          5.2390    0.6900    1.7380 C.2     1  UNL1        0.0000
     12  C          4.9850    1.8260    1.0000 C.2     1  UNL1        0.0000
@<TRIPOS>BOND
     1     5     4    1
     2     4     2    1
     3     2     1    1
     4     2     3    2
     5     1     6    1
     6     8    10    1
     7     8     7    2
     8     6     7    1
     9    10    12    2
    10     7     9    1
    11    12    11    1
    12     9    11    2
