@<TRIPOS>MOLECULE
/home/cewinharhar/GITHUB/reincatalyze/data/processed/docking_pred/2023_Apr_20-15:07/8f258178c278a1f8efc989ef7d8625b520fa90c8_ligand_2.pdbqt
 12 12 0 0 0
SMALL
GASTEIGER

@<TRIPOS>ATOM
      1  C          4.9620    1.8830    0.7910 C.3     1  UNL1        0.1270
      2  C          4.4300    1.1320    1.9520 C.2     1  UNL1        0.3030
      3  O          5.0770    0.1860    2.4660 O.2     1  UNL1       -0.2520
      4  O          3.2000    1.4540    2.5040 O.3     1  UNL1       -0.4810
      5  H          2.3570    0.9910    2.1520 H       1  UNL1        0.2960
      6  C          6.4540    1.9450    0.9130 C.3     1  UNL1        0.0470
      7  C          7.1670    1.2650   -0.1660 C.2     1  UNL1       -0.0470
      8  C          8.5360    1.3580   -0.2720 C.2     1  UNL1        0.0040
      9  C          6.4540    0.5250   -1.0810 C.2     1  UNL1        0.0040
     10  C          9.1510    0.6810   -1.3280 C.2     1  UNL1        0.0000
     11  C          7.0640   -0.1430   -2.1240 C.2     1  UNL1        0.0000
     12  C          8.4350   -0.0550   -2.2370 C.2     1  UNL1        0.0000
@<TRIPOS>BOND
     1    12    11    2
     2    12    10    1
     3    11     9    1
     4    10     8    2
     5     9     7    2
     6     8     7    1
     7     7     6    1
     8     1     6    1
     9     1     2    1
    10     2     3    2
    11     2     4    1
    12     5     4    1
