@<TRIPOS>MOLECULE
/home/cewinharhar/GITHUB/reincatalyze/data/processed/docking_pred/2023_Apr_20-15:07/8f3f3cc121b2e0b9b67c9595347d7d2b0dd21437_ligand_2.pdbqt
 12 12 0 0 0
SMALL
GASTEIGER

@<TRIPOS>ATOM
      1  C          8.3510   -0.5210   -2.3110 C.3     1  UNL1        0.1270
      2  C          8.4320   -1.8640   -2.9320 C.2     1  UNL1        0.3030
      3  O          9.5290   -2.4650   -3.0420 O.2     1  UNL1       -0.2520
      4  O          7.2940   -2.4950   -3.4100 O.3     1  UNL1       -0.4810
      5  H          6.9540   -2.2710   -4.3490 H       1  UNL1        0.2960
      6  C          6.9050   -0.1820   -2.1100 C.3     1  UNL1        0.0470
      7  C          6.5120   -0.0620   -0.7070 C.2     1  UNL1       -0.0470
      8  C          6.7260   -1.0970    0.1740 C.2     1  UNL1        0.0040
      9  C          5.9260    1.1030   -0.2710 C.2     1  UNL1        0.0040
     10  C          6.3260   -0.9120    1.5000 C.2     1  UNL1        0.0000
     11  C          5.5310    1.2840    1.0400 C.2     1  UNL1        0.0000
     12  C          5.7410    0.2520    1.9280 C.2     1  UNL1        0.0000
@<TRIPOS>BOND
     1     5     4    1
     2     4     2    1
     3     3     2    2
     4     2     1    1
     5     1     6    1
     6     6     7    1
     7     7     9    2
     8     7     8    1
     9     9    11    1
    10     8    10    2
    11    11    12    2
    12    10    12    1
