MODEL 1
REMARK VINA RESULT:      -7.3      0.000      0.000
REMARK SMILES O=C(O)CCc1ccccc1
REMARK SMILES IDX 4 1 2 2 1 3 3 4 5 6 6 7 7 8 11 9 8 10 10 11 9 12
REMARK H PARENT 3 5
REMARK Flexibility Score: inf
ROOT
ATOM      1  C   UNL     1       8.389  -0.579  -2.222  1.00  0.00     0.127 C 
ENDROOT
BRANCH   1   2
ATOM      2  C   UNL     1       8.451  -1.882  -2.925  1.00  0.00     0.303 C 
ATOM      3  O   UNL     1       9.543  -2.481  -3.089  1.00  0.00    -0.252 OA
BRANCH   2   4
ATOM      4  O   UNL     1       7.303  -2.476  -3.424  1.00  0.00    -0.481 OA
ATOM      5  H   UNL     1       7.106  -3.454  -3.197  1.00  0.00     0.296 HD
ENDBRANCH   2   4
ENDBRANCH   1   2
BRANCH   1   6
ATOM      6  C   UNL     1       6.949  -0.193  -2.074  1.00  0.00     0.047 C 
BRANCH   6   7
ATOM      7  C   UNL     1       6.518  -0.021  -0.688  1.00  0.00    -0.047 A 
ATOM      8  C   UNL     1       5.938   1.155  -0.272  1.00  0.00     0.004 A 
ATOM      9  C   UNL     1       6.697  -1.053   0.204  1.00  0.00     0.004 A 
ATOM     10  C   UNL     1       5.550   1.249   1.066  1.00  0.00     0.000 A 
ATOM     11  C   UNL     1       6.314  -0.958   1.527  1.00  0.00     0.000 A 
ATOM     12  C   UNL     1       5.732   0.217   1.951  1.00  0.00     0.000 A 
ENDBRANCH   6   7
ENDBRANCH   1   6
TORSDOF 4
ENDMDL
MODEL 2
REMARK VINA RESULT:      -7.2      0.057      1.437
REMARK SMILES O=C(O)CCc1ccccc1
REMARK SMILES IDX 4 1 2 2 1 3 3 4 5 6 6 7 7 8 11 9 8 10 10 11 9 12
REMARK H PARENT 3 5
REMARK Flexibility Score: inf
ROOT
ATOM      1  C   UNL     1       8.351  -0.521  -2.311  1.00  0.00     0.127 C 
ENDROOT
BRANCH   1   2
ATOM      2  C   UNL     1       8.432  -1.864  -2.932  1.00  0.00     0.303 C 
ATOM      3  O   UNL     1       9.529  -2.465  -3.042  1.00  0.00    -0.252 OA
BRANCH   2   4
ATOM      4  O   UNL     1       7.294  -2.495  -3.410  1.00  0.00    -0.481 OA
ATOM      5  H   UNL     1       6.954  -2.271  -4.349  1.00  0.00     0.296 HD
ENDBRANCH   2   4
ENDBRANCH   1   2
BRANCH   1   6
ATOM      6  C   UNL     1       6.905  -0.182  -2.110  1.00  0.00     0.047 C 
BRANCH   6   7
ATOM      7  C   UNL     1       6.512  -0.062  -0.707  1.00  0.00    -0.047 A 
ATOM      8  C   UNL     1       6.726  -1.097   0.174  1.00  0.00     0.004 A 
ATOM      9  C   UNL     1       5.926   1.103  -0.271  1.00  0.00     0.004 A 
ATOM     10  C   UNL     1       6.326  -0.912   1.500  1.00  0.00     0.000 A 
ATOM     11  C   UNL     1       5.531   1.284   1.040  1.00  0.00     0.000 A 
ATOM     12  C   UNL     1       5.741   0.252   1.928  1.00  0.00     0.000 A 
ENDBRANCH   6   7
ENDBRANCH   1   6
TORSDOF 4
ENDMDL
MODEL 3
REMARK VINA RESULT:      -6.6      3.792      5.136
REMARK SMILES O=C(O)CCc1ccccc1
REMARK SMILES IDX 4 1 2 2 1 3 3 4 5 6 6 7 7 8 11 9 8 10 10 11 9 12
REMARK H PARENT 3 5
REMARK Flexibility Score: inf
ROOT
ATOM      1  C   UNL     1       5.449   2.906   0.199  1.00  0.00     0.127 C 
ENDROOT
BRANCH   1   2
ATOM      2  C   UNL     1       6.265   3.922   0.905  1.00  0.00     0.303 C 
ATOM      3  O   UNL     1       6.934   4.775   0.271  1.00  0.00    -0.252 OA
BRANCH   2   4
ATOM      4  O   UNL     1       6.312   3.957   2.289  1.00  0.00    -0.481 OA
ATOM      5  H   UNL     1       7.068   4.469   2.752  1.00  0.00     0.296 HD
ENDBRANCH   2   4
ENDBRANCH   1   2
BRANCH   1   6
ATOM      6  C   UNL     1       5.519   1.625   0.973  1.00  0.00     0.047 C 
BRANCH   6   7
ATOM      7  C   UNL     1       6.182   0.535   0.259  1.00  0.00    -0.047 A 
ATOM      8  C   UNL     1       6.758  -0.508   0.947  1.00  0.00     0.004 A 
ATOM      9  C   UNL     1       6.223   0.559  -1.116  1.00  0.00     0.004 A 
ATOM     10  C   UNL     1       7.373  -1.516   0.200  1.00  0.00     0.000 A 
ATOM     11  C   UNL     1       6.832  -0.438  -1.852  1.00  0.00     0.000 A 
ATOM     12  C   UNL     1       7.412  -1.485  -1.171  1.00  0.00     0.000 A 
ENDBRANCH   6   7
ENDBRANCH   1   6
TORSDOF 4
ENDMDL
MODEL 4
REMARK VINA RESULT:      -6.6      2.389      3.088
REMARK SMILES O=C(O)CCc1ccccc1
REMARK SMILES IDX 4 1 2 2 1 3 3 4 5 6 6 7 7 8 11 9 8 10 10 11 9 12
REMARK H PARENT 3 5
REMARK Flexibility Score: inf
ROOT
ATOM      1  C   UNL     1       8.512  -1.019   0.782  1.00  0.00     0.127 C 
ENDROOT
BRANCH   1   2
ATOM      2  C   UNL     1       8.023  -2.405   0.971  1.00  0.00     0.303 C 
ATOM      3  O   UNL     1       8.754  -3.394   0.716  1.00  0.00    -0.252 OA
BRANCH   2   4
ATOM      4  O   UNL     1       6.741  -2.649   1.437  1.00  0.00    -0.481 OA
ATOM      5  H   UNL     1       6.002  -2.887   0.770  1.00  0.00     0.296 HD
ENDBRANCH   2   4
ENDBRANCH   1   2
BRANCH   1   6
ATOM      6  C   UNL     1       7.908  -0.475  -0.477  1.00  0.00     0.047 C 
BRANCH   6   7
ATOM      7  C   UNL     1       6.898   0.558  -0.253  1.00  0.00    -0.047 A 
ATOM      8  C   UNL     1       6.752   1.142   0.984  1.00  0.00     0.004 A 
ATOM      9  C   UNL     1       6.091   0.946  -1.298  1.00  0.00     0.004 A 
ATOM     10  C   UNL     1       5.768   2.123   1.125  1.00  0.00     0.000 A 
ATOM     11  C   UNL     1       5.119   1.916  -1.156  1.00  0.00     0.000 A 
ATOM     12  C   UNL     1       4.965   2.506   0.080  1.00  0.00     0.000 A 
ENDBRANCH   6   7
ENDBRANCH   1   6
TORSDOF 4
ENDMDL
MODEL 5
REMARK VINA RESULT:      -6.5      1.973      2.712
REMARK SMILES O=C(O)CCc1ccccc1
REMARK SMILES IDX 4 1 2 2 1 3 3 4 5 6 6 7 7 8 11 9 8 10 10 11 9 12
REMARK H PARENT 3 5
REMARK Flexibility Score: inf
ROOT
ATOM      1  C   UNL     1       8.243   0.018  -2.188  1.00  0.00     0.127 C 
ENDROOT
BRANCH   1   2
ATOM      2  C   UNL     1       9.353   0.289  -1.244  1.00  0.00     0.303 C 
ATOM      3  O   UNL     1       9.492  -0.383  -0.192  1.00  0.00    -0.252 OA
BRANCH   2   4
ATOM      4  O   UNL     1      10.270   1.296  -1.497  1.00  0.00    -0.481 OA
ATOM      5  H   UNL     1      10.680   1.376  -2.432  1.00  0.00     0.296 HD
ENDBRANCH   2   4
ENDBRANCH   1   2
BRANCH   1   6
ATOM      6  C   UNL     1       7.132  -0.645  -1.431  1.00  0.00     0.047 C 
BRANCH   6   7
ATOM      7  C   UNL     1       6.373   0.263  -0.573  1.00  0.00    -0.047 A 
ATOM      8  C   UNL     1       6.263   0.027   0.778  1.00  0.00     0.004 A 
ATOM      9  C   UNL     1       5.767   1.364  -1.131  1.00  0.00     0.004 A 
ATOM     10  C   UNL     1       5.523   0.937   1.537  1.00  0.00     0.000 A 
ATOM     11  C   UNL     1       5.035   2.263  -0.380  1.00  0.00     0.000 A 
ATOM     12  C   UNL     1       4.920   2.033   0.974  1.00  0.00     0.000 A 
ENDBRANCH   6   7
ENDBRANCH   1   6
TORSDOF 4
ENDMDL
