@<TRIPOS>MOLECULE
/home/cewinharhar/GITHUB/reincatalyze/data/processed/docking_pred/2023_Apr_20-15:07/8f3f3cc121b2e0b9b67c9595347d7d2b0dd21437_ligand_2.pdbqt
 12 12 0 0 0
SMALL
GASTEIGER

@<TRIPOS>ATOM
      1  C          5.4490    2.9060    0.1990 C.3     1  UNL1        0.1270
      2  C          6.2650    3.9220    0.9050 C.2     1  UNL1        0.3030
      3  O          6.9340    4.7750    0.2710 O.2     1  UNL1       -0.2520
      4  O          6.3120    3.9570    2.2890 O.3     1  UNL1       -0.4810
      5  H          7.0680    4.4690    2.7520 H       1  UNL1        0.2960
      6  C          5.5190    1.6250    0.9730 C.3     1  UNL1        0.0470
      7  C          6.1820    0.5350    0.2590 C.2     1  UNL1       -0.0470
      8  C          6.7580   -0.5080    0.9470 C.2     1  UNL1        0.0040
      9  C          6.2230    0.5590   -1.1160 C.2     1  UNL1        0.0040
     10  C          7.3730   -1.5160    0.2000 C.2     1  UNL1        0.0000
     11  C          6.8320   -0.4380   -1.8520 C.2     1  UNL1        0.0000
     12  C          7.4120   -1.4850   -1.1710 C.2     1  UNL1        0.0000
@<TRIPOS>BOND
     1    11    12    2
     2    11     9    1
     3    12    10    1
     4     9     7    2
     5     1     2    1
     6     1     6    1
     7    10     8    2
     8     7     8    1
     9     7     6    1
    10     3     2    2
    11     2     4    1
    12     4     5    1
