@<TRIPOS>MOLECULE
/home/cewinharhar/GITHUB/reincatalyze/data/processed/docking_pred/2023_Apr_20-15:07/8f3f3cc121b2e0b9b67c9595347d7d2b0dd21437_ligand_2.pdbqt
 12 12 0 0 0
SMALL
GASTEIGER

@<TRIPOS>ATOM
      1  C          8.2430    0.0180   -2.1880 C.3     1  UNL1        0.1270
      2  C          9.3530    0.2890   -1.2440 C.2     1  UNL1        0.3030
      3  O          9.4920   -0.3830   -0.1920 O.2     1  UNL1       -0.2520
      4  O         10.2700    1.2960   -1.4970 O.3     1  UNL1       -0.4810
      5  H         10.6800    1.3760   -2.4320 H       1  UNL1        0.2960
      6  C          7.1320   -0.6450   -1.4310 C.3     1  UNL1        0.0470
      7  C          6.3730    0.2630   -0.5730 C.2     1  UNL1       -0.0470
      8  C          6.2630    0.0270    0.7780 C.2     1  UNL1        0.0040
      9  C          5.7670    1.3640   -1.1310 C.2     1  UNL1        0.0040
     10  C          5.5230    0.9370    1.5370 C.2     1  UNL1        0.0000
     11  C          5.0350    2.2630   -0.3800 C.2     1  UNL1        0.0000
     12  C          4.9200    2.0330    0.9740 C.2     1  UNL1        0.0000
@<TRIPOS>BOND
     1     5     4    1
     2     1     6    1
     3     1     2    1
     4     4     2    1
     5     6     7    1
     6     2     3    2
     7     9     7    2
     8     9    11    1
     9     7     8    1
    10    11    12    2
    11     8    10    2
    12    12    10    1
