@<TRIPOS>MOLECULE
/home/cewinharhar/GITHUB/reincatalyze/data/processed/docking_pred/2023_Apr_20-15:07/8f3f3cc121b2e0b9b67c9595347d7d2b0dd21437_ligand_2.pdbqt
 12 12 0 0 0
SMALL
GASTEIGER

@<TRIPOS>ATOM
      1  C          8.5120   -1.0190    0.7820 C.3     1  UNL1        0.1270
      2  C          8.0230   -2.4050    0.9710 C.2     1  UNL1        0.3030
      3  O          8.7540   -3.3940    0.7160 O.2     1  UNL1       -0.2520
      4  O          6.7410   -2.6490    1.4370 O.3     1  UNL1       -0.4810
      5  H          6.0020   -2.8870    0.7700 H       1  UNL1        0.2960
      6  C          7.9080   -0.4750   -0.4770 C.3     1  UNL1        0.0470
      7  C          6.8980    0.5580   -0.2530 C.2     1  UNL1       -0.0470
      8  C          6.7520    1.1420    0.9840 C.2     1  UNL1        0.0040
      9  C          6.0910    0.9460   -1.2980 C.2     1  UNL1        0.0040
     10  C          5.7680    2.1230    1.1250 C.2     1  UNL1        0.0000
     11  C          5.1190    1.9160   -1.1560 C.2     1  UNL1        0.0000
     12  C          4.9650    2.5060    0.0800 C.2     1  UNL1        0.0000
@<TRIPOS>BOND
     1     9    11    1
     2     9     7    2
     3    11    12    2
     4     6     7    1
     5     6     1    1
     6     7     8    1
     7    12    10    1
     8     3     2    2
     9     5     4    1
    10     1     2    1
    11     2     4    1
    12     8    10    2
