@<TRIPOS>MOLECULE
/home/cewinharhar/GITHUB/reincatalyze/data/processed/docking_pred/2023_Apr_20-15:07/8f7e92428ebbeefdf44ae8ea1c0956f20f305f25_ligand_2.pdbqt
 12 12 0 0 0
SMALL
GASTEIGER

@<TRIPOS>ATOM
      1  C          4.9920    1.8170    0.7120 C.3     1  UNL1        0.1270
      2  C          4.4810    1.1190    1.9160 C.2     1  UNL1        0.3030
      3  O          5.1440    0.2080    2.4710 O.2     1  UNL1       -0.2520
      4  O          3.2530    1.4540    2.4630 O.3     1  UNL1       -0.4810
      5  H          2.7770    0.7830    3.0740 H       1  UNL1        0.2960
      6  C          6.4890    1.7970    0.7570 C.3     1  UNL1        0.0470
      7  C          7.1070    1.0460   -0.3350 C.2     1  UNL1       -0.0470
      8  C          6.3690    0.1580   -1.0830 C.2     1  UNL1        0.0040
      9  C          8.4410    1.2370   -0.6100 C.2     1  UNL1        0.0040
     10  C          7.0240   -0.5240   -2.1110 C.2     1  UNL1        0.0000
     11  C          9.0870    0.5610   -1.6270 C.2     1  UNL1        0.0000
     12  C          8.3550   -0.3300   -2.3810 C.2     1  UNL1        0.0000
@<TRIPOS>BOND
     1    12    10    2
     2    12    11    1
     3    10     8    1
     4    11     9    2
     5     8     7    2
     6     9     7    1
     7     7     6    1
     8     1     6    1
     9     1     2    1
    10     2     4    1
    11     2     3    2
    12     4     5    1
