@<TRIPOS>MOLECULE
/home/cewinharhar/GITHUB/reincatalyze/data/processed/docking_pred/2023_Apr_20-15:07/8f7e92428ebbeefdf44ae8ea1c0956f20f305f25_ligand_2.pdbqt
 12 12 0 0 0
SMALL
GASTEIGER

@<TRIPOS>ATOM
      1  C          8.1640   -1.6120    1.1830 C.3     1  UNL1        0.1270
      2  C          8.4910   -2.8090    0.3730 C.2     1  UNL1        0.3030
      3  O          9.1650   -3.7550    0.8510 O.2     1  UNL1       -0.2520
      4  O          8.0600   -2.9170   -0.9400 O.3     1  UNL1       -0.4810
      5  H          8.6650   -2.5820   -1.6940 H       1  UNL1        0.2960
      6  C          6.6730   -1.5020    1.2810 C.3     1  UNL1        0.0470
      7  C          6.1380   -0.2310    0.7950 C.2     1  UNL1       -0.0470
      8  C          5.3950    0.5800    1.6200 C.2     1  UNL1        0.0040
      9  C          6.3870    0.1500   -0.5030 C.2     1  UNL1        0.0040
     10  C          4.9160    1.7800    1.0900 C.2     1  UNL1        0.0000
     11  C          5.9130    1.3360   -1.0260 C.2     1  UNL1        0.0000
     12  C          5.1670    2.1550   -0.2060 C.2     1  UNL1        0.0000
@<TRIPOS>BOND
     1     5     4    1
     2    11     9    1
     3    11    12    2
     4     4     2    1
     5     9     7    2
     6    12    10    1
     7     2     3    2
     8     2     1    1
     9     7     6    1
    10     7     8    1
    11    10     8    2
    12     1     6    1
