@<TRIPOS>MOLECULE
/home/cewinharhar/GITHUB/reincatalyze/data/processed/docking_pred/2023_Apr_20-15:07/8f7e92428ebbeefdf44ae8ea1c0956f20f305f25_ligand_2.pdbqt
 12 12 0 0 0
SMALL
GASTEIGER

@<TRIPOS>ATOM
      1  C          8.2110    0.1250   -2.1710 C.3     1  UNL1        0.1270
      2  C          9.3330    0.3240   -1.2240 C.2     1  UNL1        0.3030
      3  O          9.4620   -0.4020   -0.2070 O.2     1  UNL1       -0.2520
      4  O         10.2730    1.3200   -1.4350 O.3     1  UNL1       -0.4810
      5  H         11.1950    1.2380   -0.9990 H       1  UNL1        0.2960
      6  C          7.1030   -0.5790   -1.4490 C.3     1  UNL1        0.0470
      7  C          6.3200    0.2880   -0.5700 C.2     1  UNL1       -0.0470
      8  C          5.8200    1.4860   -1.0280 C.2     1  UNL1        0.0040
      9  C          6.0840   -0.1060    0.7260 C.2     1  UNL1        0.0040
     10  C          5.0800    2.2630   -0.1340 C.2     1  UNL1        0.0000
     11  C          5.3530    0.6630    1.6090 C.2     1  UNL1        0.0000
     12  C          4.8490    1.8650    1.1590 C.2     1  UNL1        0.0000
@<TRIPOS>BOND
     1     1     6    1
     2     1     2    1
     3     6     7    1
     4     4     2    1
     5     4     5    1
     6     2     3    2
     7     8     7    2
     8     8    10    1
     9     7     9    1
    10    10    12    2
    11     9    11    2
    12    12    11    1
