@<TRIPOS>MOLECULE
/home/cewinharhar/GITHUB/reincatalyze/data/processed/docking_pred/2023_Apr_20-15:07/8f7e92428ebbeefdf44ae8ea1c0956f20f305f25_ligand_2.pdbqt
 12 12 0 0 0
SMALL
GASTEIGER

@<TRIPOS>ATOM
      1  C          8.4220   -0.5550   -2.2120 C.3     1  UNL1        0.1270
      2  C          8.4830   -1.8540   -2.9230 C.2     1  UNL1        0.3030
      3  O          9.5730   -2.4570   -3.0840 O.2     1  UNL1       -0.2520
      4  O          7.3350   -2.4400   -3.4300 O.3     1  UNL1       -0.4810
      5  H          6.4780   -1.8850   -3.5000 H       1  UNL1        0.2960
      6  C          6.9930   -0.1080   -2.1720 C.3     1  UNL1        0.0470
      7  C          6.4640    0.0710   -0.8200 C.2     1  UNL1       -0.0470
      8  C          5.8290    1.2380   -0.4630 C.2     1  UNL1        0.0040
      9  C          6.6060   -0.9450    0.0960 C.2     1  UNL1        0.0040
     10  C          5.3480    1.3390    0.8450 C.2     1  UNL1        0.0000
     11  C          6.1300   -0.8420    1.3880 C.2     1  UNL1        0.0000
     12  C          5.4930    0.3230    1.7550 C.2     1  UNL1        0.0000
@<TRIPOS>BOND
     1     5     4    1
     2     4     2    1
     3     3     2    2
     4     2     1    1
     5     1     6    1
     6     6     7    1
     7     7     8    2
     8     7     9    1
     9     8    10    1
    10     9    11    2
    11    10    12    2
    12    11    12    1
