@<TRIPOS>MOLECULE
/home/cewinharhar/GITHUB/reincatalyze/data/processed/docking_pred/2023_Apr_20-15:07/8f7e92428ebbeefdf44ae8ea1c0956f20f305f25_ligand_2.pdbqt
 12 12 0 0 0
SMALL
GASTEIGER

@<TRIPOS>ATOM
      1  C          8.4490   -0.6100   -2.1740 C.3     1  UNL1        0.1270
      2  C          8.4840   -1.8930   -2.9130 C.2     1  UNL1        0.3030
      3  O          9.5640   -2.5080   -3.0990 O.2     1  UNL1       -0.2520
      4  O          7.3230   -2.4530   -3.4220 O.3     1  UNL1       -0.4810
      5  H          7.3330   -3.4260   -3.7390 H       1  UNL1        0.2960
      6  C          7.0310   -0.1250   -2.1410 C.3     1  UNL1        0.0470
      7  C          6.4890    0.0350   -0.7920 C.2     1  UNL1       -0.0470
      8  C          6.6160   -0.9680    0.1400 C.2     1  UNL1        0.0040
      9  C          5.8480    1.2070   -0.4610 C.2     1  UNL1        0.0040
     10  C          6.0750   -0.7460    1.4090 C.2     1  UNL1        0.0000
     11  C          5.3140    1.4250    0.7930 C.2     1  UNL1        0.0000
     12  C          5.4360    0.4240    1.7330 C.2     1  UNL1        0.0000
@<TRIPOS>BOND
     1     5     4    1
     2     4     2    1
     3     3     2    2
     4     2     1    1
     5     1     6    1
     6     6     7    1
     7     7     9    2
     8     7     8    1
     9     9    11    1
    10     8    10    2
    11    11    12    2
    12    10    12    1
