MODEL 1
REMARK VINA RESULT:      -7.4      0.000      0.000
REMARK SMILES O=C(O)CCc1ccccc1
REMARK SMILES IDX 4 1 2 2 1 3 3 4 5 6 6 7 7 8 11 9 8 10 10 11 9 12
REMARK H PARENT 3 5
REMARK Flexibility Score: inf
ROOT
ATOM      1  C   UNL     1       8.449  -0.610  -2.174  1.00  0.00     0.127 C 
ENDROOT
BRANCH   1   2
ATOM      2  C   UNL     1       8.484  -1.893  -2.913  1.00  0.00     0.303 C 
ATOM      3  O   UNL     1       9.564  -2.508  -3.099  1.00  0.00    -0.252 OA
BRANCH   2   4
ATOM      4  O   UNL     1       7.323  -2.453  -3.422  1.00  0.00    -0.481 OA
ATOM      5  H   UNL     1       7.333  -3.426  -3.739  1.00  0.00     0.296 HD
ENDBRANCH   2   4
ENDBRANCH   1   2
BRANCH   1   6
ATOM      6  C   UNL     1       7.031  -0.125  -2.141  1.00  0.00     0.047 C 
BRANCH   6   7
ATOM      7  C   UNL     1       6.489   0.035  -0.792  1.00  0.00    -0.047 A 
ATOM      8  C   UNL     1       6.616  -0.968   0.140  1.00  0.00     0.004 A 
ATOM      9  C   UNL     1       5.848   1.207  -0.461  1.00  0.00     0.004 A 
ATOM     10  C   UNL     1       6.075  -0.746   1.409  1.00  0.00     0.000 A 
ATOM     11  C   UNL     1       5.314   1.425   0.793  1.00  0.00     0.000 A 
ATOM     12  C   UNL     1       5.436   0.424   1.733  1.00  0.00     0.000 A 
ENDBRANCH   6   7
ENDBRANCH   1   6
TORSDOF 4
ENDMDL
MODEL 2
REMARK VINA RESULT:      -7.3      0.072      1.438
REMARK SMILES O=C(O)CCc1ccccc1
REMARK SMILES IDX 4 1 2 2 1 3 3 4 5 6 6 7 7 8 11 9 8 10 10 11 9 12
REMARK H PARENT 3 5
REMARK Flexibility Score: inf
ROOT
ATOM      1  C   UNL     1       8.422  -0.555  -2.212  1.00  0.00     0.127 C 
ENDROOT
BRANCH   1   2
ATOM      2  C   UNL     1       8.483  -1.854  -2.923  1.00  0.00     0.303 C 
ATOM      3  O   UNL     1       9.573  -2.457  -3.084  1.00  0.00    -0.252 OA
BRANCH   2   4
ATOM      4  O   UNL     1       7.335  -2.440  -3.430  1.00  0.00    -0.481 OA
ATOM      5  H   UNL     1       6.478  -1.885  -3.500  1.00  0.00     0.296 HD
ENDBRANCH   2   4
ENDBRANCH   1   2
BRANCH   1   6
ATOM      6  C   UNL     1       6.993  -0.108  -2.172  1.00  0.00     0.047 C 
BRANCH   6   7
ATOM      7  C   UNL     1       6.464   0.071  -0.820  1.00  0.00    -0.047 A 
ATOM      8  C   UNL     1       5.829   1.238  -0.463  1.00  0.00     0.004 A 
ATOM      9  C   UNL     1       6.606  -0.945   0.096  1.00  0.00     0.004 A 
ATOM     10  C   UNL     1       5.348   1.339   0.845  1.00  0.00     0.000 A 
ATOM     11  C   UNL     1       6.130  -0.842   1.388  1.00  0.00     0.000 A 
ATOM     12  C   UNL     1       5.493   0.323   1.755  1.00  0.00     0.000 A 
ENDBRANCH   6   7
ENDBRANCH   1   6
TORSDOF 4
ENDMDL
MODEL 3
REMARK VINA RESULT:      -6.8      3.379      5.070
REMARK SMILES O=C(O)CCc1ccccc1
REMARK SMILES IDX 4 1 2 2 1 3 3 4 5 6 6 7 7 8 11 9 8 10 10 11 9 12
REMARK H PARENT 3 5
REMARK Flexibility Score: inf
ROOT
ATOM      1  C   UNL     1       4.992   1.817   0.712  1.00  0.00     0.127 C 
ENDROOT
BRANCH   1   2
ATOM      2  C   UNL     1       4.481   1.119   1.916  1.00  0.00     0.303 C 
ATOM      3  O   UNL     1       5.144   0.208   2.471  1.00  0.00    -0.252 OA
BRANCH   2   4
ATOM      4  O   UNL     1       3.253   1.454   2.463  1.00  0.00    -0.481 OA
ATOM      5  H   UNL     1       2.777   0.783   3.074  1.00  0.00     0.296 HD
ENDBRANCH   2   4
ENDBRANCH   1   2
BRANCH   1   6
ATOM      6  C   UNL     1       6.489   1.797   0.757  1.00  0.00     0.047 C 
BRANCH   6   7
ATOM      7  C   UNL     1       7.107   1.046  -0.335  1.00  0.00    -0.047 A 
ATOM      8  C   UNL     1       6.369   0.158  -1.083  1.00  0.00     0.004 A 
ATOM      9  C   UNL     1       8.441   1.237  -0.610  1.00  0.00     0.004 A 
ATOM     10  C   UNL     1       7.024  -0.524  -2.111  1.00  0.00     0.000 A 
ATOM     11  C   UNL     1       9.087   0.561  -1.627  1.00  0.00     0.000 A 
ATOM     12  C   UNL     1       8.355  -0.330  -2.381  1.00  0.00     0.000 A 
ENDBRANCH   6   7
ENDBRANCH   1   6
TORSDOF 4
ENDMDL
MODEL 4
REMARK VINA RESULT:      -6.6      1.938      2.650
REMARK SMILES O=C(O)CCc1ccccc1
REMARK SMILES IDX 4 1 2 2 1 3 3 4 5 6 6 7 7 8 11 9 8 10 10 11 9 12
REMARK H PARENT 3 5
REMARK Flexibility Score: inf
ROOT
ATOM      1  C   UNL     1       8.211   0.125  -2.171  1.00  0.00     0.127 C 
ENDROOT
BRANCH   1   2
ATOM      2  C   UNL     1       9.333   0.324  -1.224  1.00  0.00     0.303 C 
ATOM      3  O   UNL     1       9.462  -0.402  -0.207  1.00  0.00    -0.252 OA
BRANCH   2   4
ATOM      4  O   UNL     1      10.273   1.320  -1.435  1.00  0.00    -0.481 OA
ATOM      5  H   UNL     1      11.195   1.238  -0.999  1.00  0.00     0.296 HD
ENDBRANCH   2   4
ENDBRANCH   1   2
BRANCH   1   6
ATOM      6  C   UNL     1       7.103  -0.579  -1.449  1.00  0.00     0.047 C 
BRANCH   6   7
ATOM      7  C   UNL     1       6.320   0.288  -0.570  1.00  0.00    -0.047 A 
ATOM      8  C   UNL     1       5.820   1.486  -1.028  1.00  0.00     0.004 A 
ATOM      9  C   UNL     1       6.084  -0.106   0.726  1.00  0.00     0.004 A 
ATOM     10  C   UNL     1       5.080   2.263  -0.134  1.00  0.00     0.000 A 
ATOM     11  C   UNL     1       5.353   0.663   1.609  1.00  0.00     0.000 A 
ATOM     12  C   UNL     1       4.849   1.865   1.159  1.00  0.00     0.000 A 
ENDBRANCH   6   7
ENDBRANCH   1   6
TORSDOF 4
ENDMDL
MODEL 5
REMARK VINA RESULT:      -6.5      1.886      2.868
REMARK SMILES O=C(O)CCc1ccccc1
REMARK SMILES IDX 4 1 2 2 1 3 3 4 5 6 6 7 7 8 11 9 8 10 10 11 9 12
REMARK H PARENT 3 5
REMARK Flexibility Score: inf
ROOT
ATOM      1  C   UNL     1       8.164  -1.612   1.183  1.00  0.00     0.127 C 
ENDROOT
BRANCH   1   2
ATOM      2  C   UNL     1       8.491  -2.809   0.373  1.00  0.00     0.303 C 
ATOM      3  O   UNL     1       9.165  -3.755   0.851  1.00  0.00    -0.252 OA
BRANCH   2   4
ATOM      4  O   UNL     1       8.060  -2.917  -0.940  1.00  0.00    -0.481 OA
ATOM      5  H   UNL     1       8.665  -2.582  -1.694  1.00  0.00     0.296 HD
ENDBRANCH   2   4
ENDBRANCH   1   2
BRANCH   1   6
ATOM      6  C   UNL     1       6.673  -1.502   1.281  1.00  0.00     0.047 C 
BRANCH   6   7
ATOM      7  C   UNL     1       6.138  -0.231   0.795  1.00  0.00    -0.047 A 
ATOM      8  C   UNL     1       5.395   0.580   1.620  1.00  0.00     0.004 A 
ATOM      9  C   UNL     1       6.387   0.150  -0.503  1.00  0.00     0.004 A 
ATOM     10  C   UNL     1       4.916   1.780   1.090  1.00  0.00     0.000 A 
ATOM     11  C   UNL     1       5.913   1.336  -1.026  1.00  0.00     0.000 A 
ATOM     12  C   UNL     1       5.167   2.155  -0.206  1.00  0.00     0.000 A 
ENDBRANCH   6   7
ENDBRANCH   1   6
TORSDOF 4
ENDMDL
