@<TRIPOS>MOLECULE
/home/cewinharhar/GITHUB/reincatalyze/data/processed/docking_pred/2023_Apr_20-15:07/91438d65c636cbfd2c8442c68b92b155f88758ee_ligand_2.pdbqt
 12 12 0 0 0
SMALL
GASTEIGER

@<TRIPOS>ATOM
      1  C          8.2050    0.2300   -2.1980 C.3     1  UNL1        0.1270
      2  C          9.3380    0.3440   -1.2490 C.2     1  UNL1        0.3030
      3  O          9.4380   -0.4220   -0.2600 O.2     1  UNL1       -0.2520
      4  O         10.3200    1.3050   -1.4290 O.3     1  UNL1       -0.4810
      5  H         11.2820    1.0090   -1.6140 H       1  UNL1        0.2960
      6  C          7.1020   -0.5290   -1.5250 C.3     1  UNL1        0.0470
      7  C          6.3280    0.2670   -0.5740 C.2     1  UNL1       -0.0470
      8  C          6.1040   -0.1870    0.7050 C.2     1  UNL1        0.0040
      9  C          5.8220    1.4830   -0.9710 C.2     1  UNL1        0.0040
     10  C          5.3570    0.6260    1.5600 C.2     1  UNL1        0.0000
     11  C          5.0830    2.2860   -0.1250 C.2     1  UNL1        0.0000
     12  C          4.8540    1.8380    1.1580 C.2     1  UNL1        0.0000
@<TRIPOS>BOND
     1     1     6    1
     2     1     2    1
     3     5     4    1
     4     6     7    1
     5     4     2    1
     6     2     3    2
     7     9     7    2
     8     9    11    1
     9     7     8    1
    10    11    12    2
    11     8    10    2
    12    12    10    1
