@<TRIPOS>MOLECULE
/home/cewinharhar/GITHUB/reincatalyze/data/processed/docking_pred/2023_Apr_20-15:07/91438d65c636cbfd2c8442c68b92b155f88758ee_ligand_2.pdbqt
 12 12 0 0 0
SMALL
GASTEIGER

@<TRIPOS>ATOM
      1  C          8.3840   -0.6210   -2.1090 C.3     1  UNL1        0.1270
      2  C          8.3650   -1.8800   -2.8910 C.2     1  UNL1        0.3030
      3  O          7.2830   -2.4080   -3.2480 O.2     1  UNL1       -0.2520
      4  O          9.5450   -2.5100   -3.2510 O.3     1  UNL1       -0.4810
      5  H         10.1520   -2.8920   -2.5210 H       1  UNL1        0.2960
      6  C          6.9930   -0.0670   -2.0740 C.3     1  UNL1        0.0470
      7  C          6.4450    0.0820   -0.7270 C.2     1  UNL1       -0.0470
      8  C          5.8100    1.2430   -0.3500 C.2     1  UNL1        0.0040
      9  C          6.5680   -0.9570    0.1660 C.2     1  UNL1        0.0040
     10  C          5.3100    1.3140    0.9520 C.2     1  UNL1        0.0000
     11  C          6.0740   -0.8840    1.4530 C.2     1  UNL1        0.0000
     12  C          5.4370    0.2750    1.8390 C.2     1  UNL1        0.0000
@<TRIPOS>BOND
     1     4     2    1
     2     4     5    1
     3     3     2    2
     4     2     1    1
     5     1     6    1
     6     6     7    1
     7     7     8    2
     8     7     9    1
     9     8    10    1
    10     9    11    2
    11    10    12    2
    12    11    12    1
