@<TRIPOS>MOLECULE
/home/cewinharhar/GITHUB/reincatalyze/data/processed/docking_pred/2023_Apr_20-15:07/91438d65c636cbfd2c8442c68b92b155f88758ee_ligand_2.pdbqt
 12 12 0 0 0
SMALL
GASTEIGER

@<TRIPOS>ATOM
      1  C          4.9930    1.8050    0.7150 C.3     1  UNL1        0.1270
      2  C          4.4740    1.1140    1.9180 C.2     1  UNL1        0.3030
      3  O          5.1280    0.1970    2.4760 O.2     1  UNL1       -0.2520
      4  O          3.2490    1.4620    2.4630 O.3     1  UNL1       -0.4810
      5  H          2.4630    0.8100    2.3860 H       1  UNL1        0.2960
      6  C          6.4910    1.7920    0.7740 C.3     1  UNL1        0.0470
      7  C          7.1230    1.0540   -0.3180 C.2     1  UNL1       -0.0470
      8  C          8.4450    1.2620   -0.6340 C.2     1  UNL1        0.0040
      9  C          6.3790    0.1410   -1.0300 C.2     1  UNL1        0.0040
     10  C          8.9840    0.5200   -1.6890 C.2     1  UNL1        0.0000
     11  C          6.9130   -0.5900   -2.0720 C.2     1  UNL1        0.0000
     12  C          8.2370   -0.3880   -2.3960 C.2     1  UNL1        0.0000
@<TRIPOS>BOND
     1    12    11    2
     2    12    10    1
     3    11     9    1
     4    10     8    2
     5     9     7    2
     6     8     7    1
     7     7     6    1
     8     1     6    1
     9     1     2    1
    10     2     4    1
    11     2     3    2
    12     5     4    1
