@<TRIPOS>MOLECULE
/home/cewinharhar/GITHUB/reincatalyze/data/processed/docking_pred/2023_Apr_20-15:07/91438d65c636cbfd2c8442c68b92b155f88758ee_ligand_2.pdbqt
 12 12 0 0 0
SMALL
GASTEIGER

@<TRIPOS>ATOM
      1  C          5.3410    2.9170    0.0770 C.3     1  UNL1        0.1270
      2  C          6.2940    3.7590    0.8380 C.2     1  UNL1        0.3030
      3  O          6.8420    4.7600    0.3120 O.2     1  UNL1       -0.2520
      4  O          6.6070    3.4640    2.1550 O.3     1  UNL1       -0.4810
      5  H          5.9440    2.9250    2.7190 H       1  UNL1        0.2960
      6  C          5.2320    1.5910    0.7650 C.3     1  UNL1        0.0470
      7  C          6.0340    0.5340    0.1520 C.2     1  UNL1       -0.0470
      8  C          6.3460    0.5760   -1.1870 C.2     1  UNL1        0.0040
      9  C          6.4790   -0.5090    0.9310 C.2     1  UNL1        0.0040
     10  C          7.1180   -0.4670   -1.7060 C.2     1  UNL1        0.0000
     11  C          7.2410   -1.5390    0.4160 C.2     1  UNL1        0.0000
     12  C          7.5580   -1.5050   -0.9240 C.2     1  UNL1        0.0000
@<TRIPOS>BOND
     1    10     8    1
     2    10    12    2
     3     8     7    2
     4    12    11    1
     5     1     6    1
     6     1     2    1
     7     7     6    1
     8     7     9    1
     9     3     2    2
    10    11     9    2
    11     2     4    1
    12     4     5    1
