MODEL 1
REMARK VINA RESULT:      -7.2      0.000      0.000
REMARK SMILES O=C(O)CCc1ccccc1
REMARK SMILES IDX 4 1 2 2 1 3 3 4 5 6 6 7 7 8 11 9 8 10 10 11 9 12
REMARK H PARENT 3 5
REMARK Flexibility Score: inf
ROOT
ATOM      1  C   UNL     1       8.384  -0.621  -2.109  1.00  0.00     0.127 C 
ENDROOT
BRANCH   1   2
ATOM      2  C   UNL     1       8.365  -1.880  -2.891  1.00  0.00     0.303 C 
ATOM      3  O   UNL     1       7.283  -2.408  -3.248  1.00  0.00    -0.252 OA
BRANCH   2   4
ATOM      4  O   UNL     1       9.545  -2.510  -3.251  1.00  0.00    -0.481 OA
ATOM      5  H   UNL     1      10.152  -2.892  -2.521  1.00  0.00     0.296 HD
ENDBRANCH   2   4
ENDBRANCH   1   2
BRANCH   1   6
ATOM      6  C   UNL     1       6.993  -0.067  -2.074  1.00  0.00     0.047 C 
BRANCH   6   7
ATOM      7  C   UNL     1       6.445   0.082  -0.727  1.00  0.00    -0.047 A 
ATOM      8  C   UNL     1       5.810   1.243  -0.350  1.00  0.00     0.004 A 
ATOM      9  C   UNL     1       6.568  -0.957   0.166  1.00  0.00     0.004 A 
ATOM     10  C   UNL     1       5.310   1.314   0.952  1.00  0.00     0.000 A 
ATOM     11  C   UNL     1       6.074  -0.884   1.453  1.00  0.00     0.000 A 
ATOM     12  C   UNL     1       5.437   0.275   1.839  1.00  0.00     0.000 A 
ENDBRANCH   6   7
ENDBRANCH   1   6
TORSDOF 4
ENDMDL
MODEL 2
REMARK VINA RESULT:      -7.2      0.080      1.438
REMARK SMILES O=C(O)CCc1ccccc1
REMARK SMILES IDX 4 1 2 2 1 3 3 4 5 6 6 7 7 8 11 9 8 10 10 11 9 12
REMARK H PARENT 3 5
REMARK Flexibility Score: inf
ROOT
ATOM      1  C   UNL     1       8.401  -0.599  -2.164  1.00  0.00     0.127 C 
ENDROOT
BRANCH   1   2
ATOM      2  C   UNL     1       8.373  -1.877  -2.915  1.00  0.00     0.303 C 
ATOM      3  O   UNL     1       7.287  -2.408  -3.255  1.00  0.00    -0.252 OA
BRANCH   2   4
ATOM      4  O   UNL     1       9.549  -2.521  -3.263  1.00  0.00    -0.481 OA
ATOM      5  H   UNL     1      10.344  -2.496  -2.619  1.00  0.00     0.296 HD
ENDBRANCH   2   4
ENDBRANCH   1   2
BRANCH   1   6
ATOM      6  C   UNL     1       7.006  -0.054  -2.111  1.00  0.00     0.047 C 
BRANCH   6   7
ATOM      7  C   UNL     1       6.469   0.075  -0.758  1.00  0.00    -0.047 A 
ATOM      8  C   UNL     1       6.599  -0.950   0.151  1.00  0.00     0.004 A 
ATOM      9  C   UNL     1       5.830   1.239  -0.397  1.00  0.00     0.004 A 
ATOM     10  C   UNL     1       6.063  -0.757   1.426  1.00  0.00     0.000 A 
ATOM     11  C   UNL     1       5.301   1.427   0.864  1.00  0.00     0.000 A 
ATOM     12  C   UNL     1       5.426   0.406   1.780  1.00  0.00     0.000 A 
ENDBRANCH   6   7
ENDBRANCH   1   6
TORSDOF 4
ENDMDL
MODEL 3
REMARK VINA RESULT:      -6.8      3.318      5.121
REMARK SMILES O=C(O)CCc1ccccc1
REMARK SMILES IDX 4 1 2 2 1 3 3 4 5 6 6 7 7 8 11 9 8 10 10 11 9 12
REMARK H PARENT 3 5
REMARK Flexibility Score: inf
ROOT
ATOM      1  C   UNL     1       4.993   1.805   0.715  1.00  0.00     0.127 C 
ENDROOT
BRANCH   1   2
ATOM      2  C   UNL     1       4.474   1.114   1.918  1.00  0.00     0.303 C 
ATOM      3  O   UNL     1       5.128   0.197   2.476  1.00  0.00    -0.252 OA
BRANCH   2   4
ATOM      4  O   UNL     1       3.249   1.462   2.463  1.00  0.00    -0.481 OA
ATOM      5  H   UNL     1       2.463   0.810   2.386  1.00  0.00     0.296 HD
ENDBRANCH   2   4
ENDBRANCH   1   2
BRANCH   1   6
ATOM      6  C   UNL     1       6.491   1.792   0.774  1.00  0.00     0.047 C 
BRANCH   6   7
ATOM      7  C   UNL     1       7.123   1.054  -0.318  1.00  0.00    -0.047 A 
ATOM      8  C   UNL     1       8.445   1.262  -0.634  1.00  0.00     0.004 A 
ATOM      9  C   UNL     1       6.379   0.141  -1.030  1.00  0.00     0.004 A 
ATOM     10  C   UNL     1       8.984   0.520  -1.689  1.00  0.00     0.000 A 
ATOM     11  C   UNL     1       6.913  -0.590  -2.072  1.00  0.00     0.000 A 
ATOM     12  C   UNL     1       8.237  -0.388  -2.396  1.00  0.00     0.000 A 
ENDBRANCH   6   7
ENDBRANCH   1   6
TORSDOF 4
ENDMDL
MODEL 4
REMARK VINA RESULT:      -6.6      1.918      2.604
REMARK SMILES O=C(O)CCc1ccccc1
REMARK SMILES IDX 4 1 2 2 1 3 3 4 5 6 6 7 7 8 11 9 8 10 10 11 9 12
REMARK H PARENT 3 5
REMARK Flexibility Score: inf
ROOT
ATOM      1  C   UNL     1       8.205   0.230  -2.198  1.00  0.00     0.127 C 
ENDROOT
BRANCH   1   2
ATOM      2  C   UNL     1       9.338   0.344  -1.249  1.00  0.00     0.303 C 
ATOM      3  O   UNL     1       9.438  -0.422  -0.260  1.00  0.00    -0.252 OA
BRANCH   2   4
ATOM      4  O   UNL     1      10.320   1.305  -1.429  1.00  0.00    -0.481 OA
ATOM      5  H   UNL     1      11.282   1.009  -1.614  1.00  0.00     0.296 HD
ENDBRANCH   2   4
ENDBRANCH   1   2
BRANCH   1   6
ATOM      6  C   UNL     1       7.102  -0.529  -1.525  1.00  0.00     0.047 C 
BRANCH   6   7
ATOM      7  C   UNL     1       6.328   0.267  -0.574  1.00  0.00    -0.047 A 
ATOM      8  C   UNL     1       6.104  -0.187   0.705  1.00  0.00     0.004 A 
ATOM      9  C   UNL     1       5.822   1.483  -0.971  1.00  0.00     0.004 A 
ATOM     10  C   UNL     1       5.357   0.626   1.560  1.00  0.00     0.000 A 
ATOM     11  C   UNL     1       5.083   2.286  -0.125  1.00  0.00     0.000 A 
ATOM     12  C   UNL     1       4.854   1.838   1.158  1.00  0.00     0.000 A 
ENDBRANCH   6   7
ENDBRANCH   1   6
TORSDOF 4
ENDMDL
MODEL 5
REMARK VINA RESULT:      -6.5      3.681      4.893
REMARK SMILES O=C(O)CCc1ccccc1
REMARK SMILES IDX 4 1 2 2 1 3 3 4 5 6 6 7 7 8 11 9 8 10 10 11 9 12
REMARK H PARENT 3 5
REMARK Flexibility Score: inf
ROOT
ATOM      1  C   UNL     1       5.341   2.917   0.077  1.00  0.00     0.127 C 
ENDROOT
BRANCH   1   2
ATOM      2  C   UNL     1       6.294   3.759   0.838  1.00  0.00     0.303 C 
ATOM      3  O   UNL     1       6.842   4.760   0.312  1.00  0.00    -0.252 OA
BRANCH   2   4
ATOM      4  O   UNL     1       6.607   3.464   2.155  1.00  0.00    -0.481 OA
ATOM      5  H   UNL     1       5.944   2.925   2.719  1.00  0.00     0.296 HD
ENDBRANCH   2   4
ENDBRANCH   1   2
BRANCH   1   6
ATOM      6  C   UNL     1       5.232   1.591   0.765  1.00  0.00     0.047 C 
BRANCH   6   7
ATOM      7  C   UNL     1       6.034   0.534   0.152  1.00  0.00    -0.047 A 
ATOM      8  C   UNL     1       6.346   0.576  -1.187  1.00  0.00     0.004 A 
ATOM      9  C   UNL     1       6.479  -0.509   0.931  1.00  0.00     0.004 A 
ATOM     10  C   UNL     1       7.118  -0.467  -1.706  1.00  0.00     0.000 A 
ATOM     11  C   UNL     1       7.241  -1.539   0.416  1.00  0.00     0.000 A 
ATOM     12  C   UNL     1       7.558  -1.505  -0.924  1.00  0.00     0.000 A 
ENDBRANCH   6   7
ENDBRANCH   1   6
TORSDOF 4
ENDMDL
