@<TRIPOS>MOLECULE
/home/cewinharhar/GITHUB/reincatalyze/data/processed/docking_pred/2023_Apr_20-15:07/91438d65c636cbfd2c8442c68b92b155f88758ee_ligand_2.pdbqt
 12 12 0 0 0
SMALL
GASTEIGER

@<TRIPOS>ATOM
      1  C          8.4010   -0.5990   -2.1640 C.3     1  UNL1        0.1270
      2  C          8.3730   -1.8770   -2.9150 C.2     1  UNL1        0.3030
      3  O          7.2870   -2.4080   -3.2550 O.2     1  UNL1       -0.2520
      4  O          9.5490   -2.5210   -3.2630 O.3     1  UNL1       -0.4810
      5  H         10.3440   -2.4960   -2.6190 H       1  UNL1        0.2960
      6  C          7.0060   -0.0540   -2.1110 C.3     1  UNL1        0.0470
      7  C          6.4690    0.0750   -0.7580 C.2     1  UNL1       -0.0470
      8  C          6.5990   -0.9500    0.1510 C.2     1  UNL1        0.0040
      9  C          5.8300    1.2390   -0.3970 C.2     1  UNL1        0.0040
     10  C          6.0630   -0.7570    1.4260 C.2     1  UNL1        0.0000
     11  C          5.3010    1.4270    0.8640 C.2     1  UNL1        0.0000
     12  C          5.4260    0.4060    1.7800 C.2     1  UNL1        0.0000
@<TRIPOS>BOND
     1     4     2    1
     2     4     5    1
     3     3     2    2
     4     2     1    1
     5     1     6    1
     6     6     7    1
     7     7     9    2
     8     7     8    1
     9     9    11    1
    10     8    10    2
    11    11    12    2
    12    10    12    1
