@<TRIPOS>MOLECULE
/home/cewinharhar/GITHUB/reincatalyze/data/processed/docking_pred/2023_Apr_20-15:07/9282b18981f6708324b0af4486d36de930a99903_ligand_2.pdbqt
 12 12 0 0 0
SMALL
GASTEIGER

@<TRIPOS>ATOM
      1  C          6.4410   -0.5430    2.7420 C.3     1  UNL1        0.1270
      2  C          7.1680   -1.5170    1.8940 C.2     1  UNL1        0.3030
      3  O          8.3350   -1.2860    1.4910 O.2     1  UNL1       -0.2520
      4  O          6.5770   -2.7130    1.5200 O.3     1  UNL1       -0.4810
      5  H          5.5760   -2.8500    1.6840 H       1  UNL1        0.2960
      6  C          5.2840   -0.0050    1.9560 C.3     1  UNL1        0.0470
      7  C          5.5360    1.2980    1.3450 C.2     1  UNL1       -0.0470
      8  C          4.8280    1.7040    0.2370 C.2     1  UNL1        0.0040
      9  C          6.4920    2.1230    1.8910 C.2     1  UNL1        0.0040
     10  C          5.1200    2.9620   -0.2940 C.2     1  UNL1        0.0000
     11  C          6.7800    3.3670    1.3650 C.2     1  UNL1        0.0000
     12  C          6.0760    3.7800    0.2550 C.2     1  UNL1        0.0000
@<TRIPOS>BOND
     1    10     8    1
     2    10    12    2
     3     8     7    2
     4    12    11    1
     5     7     9    1
     6     7     6    1
     7    11     9    2
     8     3     2    2
     9     4     5    1
    10     4     2    1
    11     2     1    1
    12     6     1    1
