@<TRIPOS>MOLECULE
/home/cewinharhar/GITHUB/reincatalyze/data/processed/docking_pred/2023_Apr_20-15:07/9282b18981f6708324b0af4486d36de930a99903_ligand_2.pdbqt
 12 12 0 0 0
SMALL
GASTEIGER

@<TRIPOS>ATOM
      1  C          5.6410    2.9640    0.0820 C.3     1  UNL1        0.1270
      2  C          6.2770    4.0690    0.8360 C.2     1  UNL1        0.3030
      3  O          7.1800    4.7740    0.3210 O.2     1  UNL1       -0.2520
      4  O          5.8920    4.3560    2.1360 O.3     1  UNL1       -0.4810
      5  H          5.8620    3.6020    2.8280 H       1  UNL1        0.2960
      6  C          4.8770    2.1120    1.0500 C.3     1  UNL1        0.0470
      7  C          5.5890    0.9090    1.4740 C.2     1  UNL1       -0.0470
      8  C          6.8270    0.9960    2.0660 C.2     1  UNL1        0.0040
      9  C          5.0050   -0.3220    1.2770 C.2     1  UNL1        0.0040
     10  C          7.4490   -0.1950    2.4470 C.2     1  UNL1        0.0000
     11  C          5.6210   -1.4980    1.6540 C.2     1  UNL1        0.0000
     12  C          6.8630   -1.4190    2.2470 C.2     1  UNL1        0.0000
@<TRIPOS>BOND
     1     1     2    1
     2     1     6    1
     3     3     2    2
     4     2     4    1
     5     6     7    1
     6     9     7    2
     7     9    11    1
     8     7     8    1
     9    11    12    2
    10     8    10    2
    11     4     5    1
    12    12    10    1
