MODEL 1
REMARK VINA RESULT:      -5.5      0.000      0.000
REMARK SMILES O=C(O)CCc1ccccc1
REMARK SMILES IDX 4 1 2 2 1 3 3 4 5 6 6 7 7 8 11 9 8 10 10 11 9 12
REMARK H PARENT 3 5
REMARK Flexibility Score: inf
ROOT
ATOM      1  C   UNL     1       6.441  -0.543   2.742  1.00  0.00     0.127 C 
ENDROOT
BRANCH   1   2
ATOM      2  C   UNL     1       7.168  -1.517   1.894  1.00  0.00     0.303 C 
ATOM      3  O   UNL     1       8.335  -1.286   1.491  1.00  0.00    -0.252 OA
BRANCH   2   4
ATOM      4  O   UNL     1       6.577  -2.713   1.520  1.00  0.00    -0.481 OA
ATOM      5  H   UNL     1       5.576  -2.850   1.684  1.00  0.00     0.296 HD
ENDBRANCH   2   4
ENDBRANCH   1   2
BRANCH   1   6
ATOM      6  C   UNL     1       5.284  -0.005   1.956  1.00  0.00     0.047 C 
BRANCH   6   7
ATOM      7  C   UNL     1       5.536   1.298   1.345  1.00  0.00    -0.047 A 
ATOM      8  C   UNL     1       4.828   1.704   0.237  1.00  0.00     0.004 A 
ATOM      9  C   UNL     1       6.492   2.123   1.891  1.00  0.00     0.004 A 
ATOM     10  C   UNL     1       5.120   2.962  -0.294  1.00  0.00     0.000 A 
ATOM     11  C   UNL     1       6.780   3.367   1.365  1.00  0.00     0.000 A 
ATOM     12  C   UNL     1       6.076   3.780   0.255  1.00  0.00     0.000 A 
ENDBRANCH   6   7
ENDBRANCH   1   6
TORSDOF 4
ENDMDL
MODEL 2
REMARK VINA RESULT:      -3.7      2.945      4.720
REMARK SMILES O=C(O)CCc1ccccc1
REMARK SMILES IDX 4 1 2 2 1 3 3 4 5 6 6 7 7 8 11 9 8 10 10 11 9 12
REMARK H PARENT 3 5
REMARK Flexibility Score: inf
ROOT
ATOM      1  C   UNL     1       5.641   2.964   0.082  1.00  0.00     0.127 C 
ENDROOT
BRANCH   1   2
ATOM      2  C   UNL     1       6.277   4.069   0.836  1.00  0.00     0.303 C 
ATOM      3  O   UNL     1       7.180   4.774   0.321  1.00  0.00    -0.252 OA
BRANCH   2   4
ATOM      4  O   UNL     1       5.892   4.356   2.136  1.00  0.00    -0.481 OA
ATOM      5  H   UNL     1       5.862   3.602   2.828  1.00  0.00     0.296 HD
ENDBRANCH   2   4
ENDBRANCH   1   2
BRANCH   1   6
ATOM      6  C   UNL     1       4.877   2.112   1.050  1.00  0.00     0.047 C 
BRANCH   6   7
ATOM      7  C   UNL     1       5.589   0.909   1.474  1.00  0.00    -0.047 A 
ATOM      8  C   UNL     1       6.827   0.996   2.066  1.00  0.00     0.004 A 
ATOM      9  C   UNL     1       5.005  -0.322   1.277  1.00  0.00     0.004 A 
ATOM     10  C   UNL     1       7.449  -0.195   2.447  1.00  0.00     0.000 A 
ATOM     11  C   UNL     1       5.621  -1.498   1.654  1.00  0.00     0.000 A 
ATOM     12  C   UNL     1       6.863  -1.419   2.247  1.00  0.00     0.000 A 
ENDBRANCH   6   7
ENDBRANCH   1   6
TORSDOF 4
ENDMDL
MODEL 3
REMARK VINA RESULT:      -3.6     11.593     13.356
REMARK SMILES O=C(O)CCc1ccccc1
REMARK SMILES IDX 4 1 2 2 1 3 3 4 5 6 6 7 7 8 11 9 8 10 10 11 9 12
REMARK H PARENT 3 5
REMARK Flexibility Score: inf
ROOT
ATOM      1  C   UNL     1       8.542  -5.677  11.752  1.00  0.00     0.127 C 
ENDROOT
BRANCH   1   2
ATOM      2  C   UNL     1       7.741  -4.466  11.452  1.00  0.00     0.303 C 
ATOM      3  O   UNL     1       7.138  -3.843  12.361  1.00  0.00    -0.252 OA
BRANCH   2   4
ATOM      4  O   UNL     1       7.637  -3.988  10.156  1.00  0.00    -0.481 OA
ATOM      5  H   UNL     1       8.170  -3.157   9.884  1.00  0.00     0.296 HD
ENDBRANCH   2   4
ENDBRANCH   1   2
BRANCH   1   6
ATOM      6  C   UNL     1       8.819  -6.389  10.464  1.00  0.00     0.047 C 
BRANCH   6   7
ATOM      7  C   UNL     1      10.073  -7.140  10.457  1.00  0.00    -0.047 A 
ATOM      8  C   UNL     1      11.283  -6.487  10.435  1.00  0.00     0.004 A 
ATOM      9  C   UNL     1      10.033  -8.515  10.476  1.00  0.00     0.004 A 
ATOM     10  C   UNL     1      12.441  -7.268  10.431  1.00  0.00     0.000 A 
ATOM     11  C   UNL     1      11.178  -9.286  10.472  1.00  0.00     0.000 A 
ATOM     12  C   UNL     1      12.395  -8.639  10.449  1.00  0.00     0.000 A 
ENDBRANCH   6   7
ENDBRANCH   1   6
TORSDOF 4
ENDMDL
MODEL 4
REMARK VINA RESULT:      -3.6     12.125     13.253
REMARK SMILES O=C(O)CCc1ccccc1
REMARK SMILES IDX 4 1 2 2 1 3 3 4 5 6 6 7 7 8 11 9 8 10 10 11 9 12
REMARK H PARENT 3 5
REMARK Flexibility Score: inf
ROOT
ATOM      1  C   UNL     1      12.106  -8.137  10.662  1.00  0.00     0.127 C 
ENDROOT
BRANCH   1   2
ATOM      2  C   UNL     1      13.230  -8.379   9.726  1.00  0.00     0.303 C 
ATOM      3  O   UNL     1      14.009  -9.351   9.882  1.00  0.00    -0.252 OA
BRANCH   2   4
ATOM      4  O   UNL     1      13.451  -7.535   8.649  1.00  0.00    -0.481 OA
ATOM      5  H   UNL     1      13.666  -6.549   8.822  1.00  0.00     0.296 HD
ENDBRANCH   2   4
ENDBRANCH   1   2
BRANCH   1   6
ATOM      6  C   UNL     1      11.993  -6.660  10.889  1.00  0.00     0.047 C 
BRANCH   6   7
ATOM      7  C   UNL     1      10.623  -6.194  11.094  1.00  0.00    -0.047 A 
ATOM      8  C   UNL     1      10.328  -5.295  12.093  1.00  0.00     0.004 A 
ATOM      9  C   UNL     1       9.624  -6.663  10.273  1.00  0.00     0.004 A 
ATOM     10  C   UNL     1       8.997  -4.892  12.230  1.00  0.00     0.000 A 
ATOM     11  C   UNL     1       8.309  -6.264  10.410  1.00  0.00     0.000 A 
ATOM     12  C   UNL     1       8.005  -5.364  11.409  1.00  0.00     0.000 A 
ENDBRANCH   6   7
ENDBRANCH   1   6
TORSDOF 4
ENDMDL
MODEL 5
REMARK VINA RESULT:      -3.6     11.626     13.611
REMARK SMILES O=C(O)CCc1ccccc1
REMARK SMILES IDX 4 1 2 2 1 3 3 4 5 6 6 7 7 8 11 9 8 10 10 11 9 12
REMARK H PARENT 3 5
REMARK Flexibility Score: inf
ROOT
ATOM      1  C   UNL     1       8.337  -6.234  10.301  1.00  0.00     0.127 C 
ENDROOT
BRANCH   1   2
ATOM      2  C   UNL     1       7.953  -5.023  11.064  1.00  0.00     0.303 C 
ATOM      3  O   UNL     1       7.670  -3.948  10.480  1.00  0.00    -0.252 OA
BRANCH   2   4
ATOM      4  O   UNL     1       7.896  -5.044  12.449  1.00  0.00    -0.481 OA
ATOM      5  H   UNL     1       8.672  -5.453  12.976  1.00  0.00     0.296 HD
ENDBRANCH   2   4
ENDBRANCH   1   2
BRANCH   1   6
ATOM      6  C   UNL     1       8.861  -7.252  11.267  1.00  0.00     0.047 C 
BRANCH   6   7
ATOM      7  C   UNL     1      10.169  -7.797  10.905  1.00  0.00    -0.047 A 
ATOM      8  C   UNL     1      10.382  -9.156  10.882  1.00  0.00     0.004 A 
ATOM      9  C   UNL     1      11.190  -6.934  10.583  1.00  0.00     0.004 A 
ATOM     10  C   UNL     1      11.655  -9.606  10.526  1.00  0.00     0.000 A 
ATOM     11  C   UNL     1      12.448  -7.381  10.231  1.00  0.00     0.000 A 
ATOM     12  C   UNL     1      12.671  -8.740  10.206  1.00  0.00     0.000 A 
ENDBRANCH   6   7
ENDBRANCH   1   6
TORSDOF 4
ENDMDL
