@<TRIPOS>MOLECULE
/home/cewinharhar/GITHUB/reincatalyze/data/processed/docking_pred/2023_Apr_20-15:07/9282b18981f6708324b0af4486d36de930a99903_ligand_2.pdbqt
 12 12 0 0 0
SMALL
GASTEIGER

@<TRIPOS>ATOM
      1  C          8.3370   -6.2340   10.3010 C.3     1  UNL1        0.1270
      2  C          7.9530   -5.0230   11.0640 C.2     1  UNL1        0.3030
      3  O          7.6700   -3.9480   10.4800 O.2     1  UNL1       -0.2520
      4  O          7.8960   -5.0440   12.4490 O.3     1  UNL1       -0.4810
      5  H          8.6720   -5.4530   12.9760 H       1  UNL1        0.2960
      6  C          8.8610   -7.2520   11.2670 C.3     1  UNL1        0.0470
      7  C         10.1690   -7.7970   10.9050 C.2     1  UNL1       -0.0470
      8  C         10.3820   -9.1560   10.8820 C.2     1  UNL1        0.0040
      9  C         11.1900   -6.9340   10.5830 C.2     1  UNL1        0.0040
     10  C         11.6550   -9.6060   10.5260 C.2     1  UNL1        0.0000
     11  C         12.4480   -7.3810   10.2310 C.2     1  UNL1        0.0000
     12  C         12.6710   -8.7400   10.2060 C.2     1  UNL1        0.0000
@<TRIPOS>BOND
     1    12    11    2
     2    12    10    1
     3    11     9    1
     4     1     2    1
     5     1     6    1
     6     3     2    2
     7    10     8    2
     8     9     7    2
     9     8     7    1
    10     7     6    1
    11     2     4    1
    12     4     5    1
