@<TRIPOS>MOLECULE
/home/cewinharhar/GITHUB/reincatalyze/data/processed/docking_pred/2023_Apr_20-15:07/9282b18981f6708324b0af4486d36de930a99903_ligand_2.pdbqt
 12 12 0 0 0
SMALL
GASTEIGER

@<TRIPOS>ATOM
      1  C         12.1060   -8.1370   10.6620 C.3     1  UNL1        0.1270
      2  C         13.2300   -8.3790    9.7260 C.2     1  UNL1        0.3030
      3  O         14.0090   -9.3510    9.8820 O.2     1  UNL1       -0.2520
      4  O         13.4510   -7.5350    8.6490 O.3     1  UNL1       -0.4810
      5  H         13.6660   -6.5490    8.8220 H       1  UNL1        0.2960
      6  C         11.9930   -6.6600   10.8890 C.3     1  UNL1        0.0470
      7  C         10.6230   -6.1940   11.0940 C.2     1  UNL1       -0.0470
      8  C         10.3280   -5.2950   12.0930 C.2     1  UNL1        0.0040
      9  C          9.6240   -6.6630   10.2730 C.2     1  UNL1        0.0040
     10  C          8.9970   -4.8920   12.2300 C.2     1  UNL1        0.0000
     11  C          8.3090   -6.2640   10.4100 C.2     1  UNL1        0.0000
     12  C          8.0050   -5.3640   11.4090 C.2     1  UNL1        0.0000
@<TRIPOS>BOND
     1     4     5    1
     2     4     2    1
     3     2     3    2
     4     2     1    1
     5     9    11    1
     6     9     7    2
     7    11    12    2
     8     1     6    1
     9     6     7    1
    10     7     8    1
    11    12    10    1
    12     8    10    2
