@<TRIPOS>MOLECULE
/home/cewinharhar/GITHUB/reincatalyze/data/processed/docking_pred/2023_Apr_20-15:07/9282b18981f6708324b0af4486d36de930a99903_ligand_2.pdbqt
 12 12 0 0 0
SMALL
GASTEIGER

@<TRIPOS>ATOM
      1  C          8.5420   -5.6770   11.7520 C.3     1  UNL1        0.1270
      2  C          7.7410   -4.4660   11.4520 C.2     1  UNL1        0.3030
      3  O          7.1380   -3.8430   12.3610 O.2     1  UNL1       -0.2520
      4  O          7.6370   -3.9880   10.1560 O.3     1  UNL1       -0.4810
      5  H          8.1700   -3.1570    9.8840 H       1  UNL1        0.2960
      6  C          8.8190   -6.3890   10.4640 C.3     1  UNL1        0.0470
      7  C         10.0730   -7.1400   10.4570 C.2     1  UNL1       -0.0470
      8  C         11.2830   -6.4870   10.4350 C.2     1  UNL1        0.0040
      9  C         10.0330   -8.5150   10.4760 C.2     1  UNL1        0.0040
     10  C         12.4410   -7.2680   10.4310 C.2     1  UNL1        0.0000
     11  C         11.1780   -9.2860   10.4720 C.2     1  UNL1        0.0000
     12  C         12.3950   -8.6390   10.4490 C.2     1  UNL1        0.0000
@<TRIPOS>BOND
     1     5     4    1
     2     4     2    1
     3    10     8    1
     4    10    12    2
     5     8     7    2
     6    12    11    1
     7     7     6    1
     8     7     9    1
     9     6     1    1
    10    11     9    2
    11     2     1    1
    12     2     3    2
