@<TRIPOS>MOLECULE
/home/cewinharhar/GITHUB/reincatalyze/data/processed/docking_pred/2023_Apr_20-15:07/939bd1e5684a89eea32cbd4f4170b12915347732_ligand_2.pdbqt
 12 12 0 0 0
SMALL
GASTEIGER

@<TRIPOS>ATOM
      1  C          5.0060    1.8180    0.6690 C.3     1  UNL1        0.1270
      2  C          4.5130    1.1420    1.8920 C.2     1  UNL1        0.3030
      3  O          5.1960    0.2600    2.4690 O.2     1  UNL1       -0.2520
      4  O          3.2790    1.4650    2.4320 O.3     1  UNL1       -0.4810
      5  H          2.5540    1.8590    1.8270 H       1  UNL1        0.2960
      6  C          6.5030    1.8470    0.7190 C.3     1  UNL1        0.0470
      7  C          7.1490    1.0920   -0.3540 C.2     1  UNL1       -0.0470
      8  C          8.4910    1.2470   -0.6140 C.2     1  UNL1        0.0040
      9  C          6.3990    0.2180   -1.1050 C.2     1  UNL1        0.0040
     10  C          9.0420    0.4930   -1.6530 C.2     1  UNL1        0.0000
     11  C          6.9450   -0.5270   -2.1320 C.2     1  UNL1        0.0000
     12  C          8.2880   -0.3770   -2.3990 C.2     1  UNL1        0.0000
@<TRIPOS>BOND
     1    12    11    2
     2    12    10    1
     3    11     9    1
     4    10     8    2
     5     9     7    2
     6     8     7    1
     7     7     6    1
     8     1     6    1
     9     1     2    1
    10     5     4    1
    11     2     4    1
    12     2     3    2
