@<TRIPOS>MOLECULE
/home/cewinharhar/GITHUB/reincatalyze/data/processed/docking_pred/2023_Apr_20-15:07/939bd1e5684a89eea32cbd4f4170b12915347732_ligand_2.pdbqt
 12 12 0 0 0
SMALL
GASTEIGER

@<TRIPOS>ATOM
      1  C          8.4470   -0.6130   -2.1400 C.3     1  UNL1        0.1270
      2  C          8.4010   -1.8900   -2.8910 C.2     1  UNL1        0.3030
      3  O          7.3080   -2.4150   -3.2170 O.2     1  UNL1       -0.2520
      4  O          9.5690   -2.5410   -3.2560 O.3     1  UNL1       -0.4810
      5  H         10.4710   -2.0950   -3.0680 H       1  UNL1        0.2960
      6  C          7.0650   -0.0360   -2.1080 C.3     1  UNL1        0.0470
      7  C          6.5030    0.0870   -0.7640 C.2     1  UNL1       -0.0470
      8  C          6.6330   -0.9340    0.1490 C.2     1  UNL1        0.0040
      9  C          5.8420    1.2420   -0.4160 C.2     1  UNL1        0.0040
     10  C          6.0730   -0.7470    1.4150 C.2     1  UNL1        0.0000
     11  C          5.2880    1.4250    0.8360 C.2     1  UNL1        0.0000
     12  C          5.4130    0.4070    1.7560 C.2     1  UNL1        0.0000
@<TRIPOS>BOND
     1     4     5    1
     2     4     2    1
     3     3     2    2
     4     2     1    1
     5     1     6    1
     6     6     7    1
     7     7     9    2
     8     7     8    1
     9     9    11    1
    10     8    10    2
    11    11    12    2
    12    10    12    1
