@<TRIPOS>MOLECULE
/home/cewinharhar/GITHUB/reincatalyze/data/processed/docking_pred/2023_Apr_20-15:07/939bd1e5684a89eea32cbd4f4170b12915347732_ligand_2.pdbqt
 12 12 0 0 0
SMALL
GASTEIGER

@<TRIPOS>ATOM
      1  C          8.2190    0.2440   -2.2550 C.3     1  UNL1        0.1270
      2  C          9.3360    0.3440   -1.2860 C.2     1  UNL1        0.3030
      3  O          9.4140   -0.4300   -0.3000 O.2     1  UNL1       -0.2520
      4  O         10.3280    1.2990   -1.4420 O.3     1  UNL1       -0.4810
      5  H         11.2910    0.9970   -1.6140 H       1  UNL1        0.2960
      6  C          7.0900   -0.4910   -1.5980 C.3     1  UNL1        0.0470
      7  C          6.3170    0.3230   -0.6610 C.2     1  UNL1       -0.0470
      8  C          5.8010    1.5390   -1.0450 C.2     1  UNL1        0.0040
      9  C          6.1070   -0.1420    0.6160 C.2     1  UNL1        0.0040
     10  C          5.0720    2.2620   -0.0990 C.2     1  UNL1        0.0000
     11  C          5.3860    0.5740    1.5510 C.2     1  UNL1        0.0000
     12  C          4.8670    1.7940    1.1750 C.2     1  UNL1        0.0000
@<TRIPOS>BOND
     1     1     6    1
     2     1     2    1
     3     5     4    1
     4     6     7    1
     5     4     2    1
     6     2     3    2
     7     8     7    2
     8     8    10    1
     9     7     9    1
    10    10    12    2
    11     9    11    2
    12    12    11    1
