MODEL 1
REMARK VINA RESULT:      -7.3      0.000      0.000
REMARK SMILES O=C(O)CCc1ccccc1
REMARK SMILES IDX 4 1 2 2 1 3 3 4 5 6 6 7 7 8 11 9 8 10 10 11 9 12
REMARK H PARENT 3 5
REMARK Flexibility Score: inf
ROOT
ATOM      1  C   UNL     1       8.418  -0.722  -2.020  1.00  0.00     0.127 C 
ENDROOT
BRANCH   1   2
ATOM      2  C   UNL     1       8.466  -1.935  -2.870  1.00  0.00     0.303 C 
ATOM      3  O   UNL     1       9.552  -2.514  -3.118  1.00  0.00    -0.252 OA
BRANCH   2   4
ATOM      4  O   UNL     1       7.308  -2.465  -3.417  1.00  0.00    -0.481 OA
ATOM      5  H   UNL     1       7.266  -3.466  -3.628  1.00  0.00     0.296 HD
ENDBRANCH   2   4
ENDBRANCH   1   2
BRANCH   1   6
ATOM      6  C   UNL     1       7.020  -0.184  -2.046  1.00  0.00     0.047 C 
BRANCH   6   7
ATOM      7  C   UNL     1       6.447   0.046  -0.721  1.00  0.00    -0.047 A 
ATOM      8  C   UNL     1       5.817   1.231  -0.423  1.00  0.00     0.004 A 
ATOM      9  C   UNL     1       6.542  -0.942   0.232  1.00  0.00     0.004 A 
ATOM     10  C   UNL     1       5.291   1.381   0.863  1.00  0.00     0.000 A 
ATOM     11  C   UNL     1       6.022  -0.792   1.503  1.00  0.00     0.000 A 
ATOM     12  C   UNL     1       5.390   0.393   1.809  1.00  0.00     0.000 A 
ENDBRANCH   6   7
ENDBRANCH   1   6
TORSDOF 4
ENDMDL
MODEL 2
REMARK VINA RESULT:      -7.3      0.123      1.732
REMARK SMILES O=C(O)CCc1ccccc1
REMARK SMILES IDX 4 1 2 2 1 3 3 4 5 6 6 7 7 8 11 9 8 10 10 11 9 12
REMARK H PARENT 3 5
REMARK Flexibility Score: inf
ROOT
ATOM      1  C   UNL     1       8.447  -0.613  -2.140  1.00  0.00     0.127 C 
ENDROOT
BRANCH   1   2
ATOM      2  C   UNL     1       8.401  -1.890  -2.891  1.00  0.00     0.303 C 
ATOM      3  O   UNL     1       7.308  -2.415  -3.217  1.00  0.00    -0.252 OA
BRANCH   2   4
ATOM      4  O   UNL     1       9.569  -2.541  -3.256  1.00  0.00    -0.481 OA
ATOM      5  H   UNL     1      10.471  -2.095  -3.068  1.00  0.00     0.296 HD
ENDBRANCH   2   4
ENDBRANCH   1   2
BRANCH   1   6
ATOM      6  C   UNL     1       7.065  -0.036  -2.108  1.00  0.00     0.047 C 
BRANCH   6   7
ATOM      7  C   UNL     1       6.503   0.087  -0.764  1.00  0.00    -0.047 A 
ATOM      8  C   UNL     1       6.633  -0.934   0.149  1.00  0.00     0.004 A 
ATOM      9  C   UNL     1       5.842   1.242  -0.416  1.00  0.00     0.004 A 
ATOM     10  C   UNL     1       6.073  -0.747   1.415  1.00  0.00     0.000 A 
ATOM     11  C   UNL     1       5.288   1.425   0.836  1.00  0.00     0.000 A 
ATOM     12  C   UNL     1       5.413   0.407   1.756  1.00  0.00     0.000 A 
ENDBRANCH   6   7
ENDBRANCH   1   6
TORSDOF 4
ENDMDL
MODEL 3
REMARK VINA RESULT:      -6.7      3.381      5.072
REMARK SMILES O=C(O)CCc1ccccc1
REMARK SMILES IDX 4 1 2 2 1 3 3 4 5 6 6 7 7 8 11 9 8 10 10 11 9 12
REMARK H PARENT 3 5
REMARK Flexibility Score: inf
ROOT
ATOM      1  C   UNL     1       5.006   1.818   0.669  1.00  0.00     0.127 C 
ENDROOT
BRANCH   1   2
ATOM      2  C   UNL     1       4.513   1.142   1.892  1.00  0.00     0.303 C 
ATOM      3  O   UNL     1       5.196   0.260   2.469  1.00  0.00    -0.252 OA
BRANCH   2   4
ATOM      4  O   UNL     1       3.279   1.465   2.432  1.00  0.00    -0.481 OA
ATOM      5  H   UNL     1       2.554   1.859   1.827  1.00  0.00     0.296 HD
ENDBRANCH   2   4
ENDBRANCH   1   2
BRANCH   1   6
ATOM      6  C   UNL     1       6.503   1.847   0.719  1.00  0.00     0.047 C 
BRANCH   6   7
ATOM      7  C   UNL     1       7.149   1.092  -0.354  1.00  0.00    -0.047 A 
ATOM      8  C   UNL     1       8.491   1.247  -0.614  1.00  0.00     0.004 A 
ATOM      9  C   UNL     1       6.399   0.218  -1.105  1.00  0.00     0.004 A 
ATOM     10  C   UNL     1       9.042   0.493  -1.653  1.00  0.00     0.000 A 
ATOM     11  C   UNL     1       6.945  -0.527  -2.132  1.00  0.00     0.000 A 
ATOM     12  C   UNL     1       8.288  -0.377  -2.399  1.00  0.00     0.000 A 
ENDBRANCH   6   7
ENDBRANCH   1   6
TORSDOF 4
ENDMDL
MODEL 4
REMARK VINA RESULT:      -6.6      1.917      2.286
REMARK SMILES O=C(O)CCc1ccccc1
REMARK SMILES IDX 4 1 2 2 1 3 3 4 5 6 6 7 7 8 11 9 8 10 10 11 9 12
REMARK H PARENT 3 5
REMARK Flexibility Score: inf
ROOT
ATOM      1  C   UNL     1       8.219   0.244  -2.255  1.00  0.00     0.127 C 
ENDROOT
BRANCH   1   2
ATOM      2  C   UNL     1       9.336   0.344  -1.286  1.00  0.00     0.303 C 
ATOM      3  O   UNL     1       9.414  -0.430  -0.300  1.00  0.00    -0.252 OA
BRANCH   2   4
ATOM      4  O   UNL     1      10.328   1.299  -1.442  1.00  0.00    -0.481 OA
ATOM      5  H   UNL     1      11.291   0.997  -1.614  1.00  0.00     0.296 HD
ENDBRANCH   2   4
ENDBRANCH   1   2
BRANCH   1   6
ATOM      6  C   UNL     1       7.090  -0.491  -1.598  1.00  0.00     0.047 C 
BRANCH   6   7
ATOM      7  C   UNL     1       6.317   0.323  -0.661  1.00  0.00    -0.047 A 
ATOM      8  C   UNL     1       5.801   1.539  -1.045  1.00  0.00     0.004 A 
ATOM      9  C   UNL     1       6.107  -0.142   0.616  1.00  0.00     0.004 A 
ATOM     10  C   UNL     1       5.072   2.262  -0.099  1.00  0.00     0.000 A 
ATOM     11  C   UNL     1       5.386   0.574   1.551  1.00  0.00     0.000 A 
ATOM     12  C   UNL     1       4.867   1.794   1.175  1.00  0.00     0.000 A 
ENDBRANCH   6   7
ENDBRANCH   1   6
TORSDOF 4
ENDMDL
MODEL 5
REMARK VINA RESULT:      -6.5      1.883      2.791
REMARK SMILES O=C(O)CCc1ccccc1
REMARK SMILES IDX 4 1 2 2 1 3 3 4 5 6 6 7 7 8 11 9 8 10 10 11 9 12
REMARK H PARENT 3 5
REMARK Flexibility Score: inf
ROOT
ATOM      1  C   UNL     1       8.235  -1.506   1.078  1.00  0.00     0.127 C 
ENDROOT
BRANCH   1   2
ATOM      2  C   UNL     1       8.489  -2.750   0.313  1.00  0.00     0.303 C 
ATOM      3  O   UNL     1       9.126  -3.706   0.818  1.00  0.00    -0.252 OA
BRANCH   2   4
ATOM      4  O   UNL     1       8.028  -2.891  -0.986  1.00  0.00    -0.481 OA
ATOM      5  H   UNL     1       8.613  -2.571  -1.763  1.00  0.00     0.296 HD
ENDBRANCH   2   4
ENDBRANCH   1   2
BRANCH   1   6
ATOM      6  C   UNL     1       6.759  -1.387   1.307  1.00  0.00     0.047 C 
BRANCH   6   7
ATOM      7  C   UNL     1       6.177  -0.146   0.801  1.00  0.00    -0.047 A 
ATOM      8  C   UNL     1       5.375   0.633   1.602  1.00  0.00     0.004 A 
ATOM      9  C   UNL     1       6.442   0.242  -0.493  1.00  0.00     0.004 A 
ATOM     10  C   UNL     1       4.854   1.807   1.053  1.00  0.00     0.000 A 
ATOM     11  C   UNL     1       5.926   1.402  -1.034  1.00  0.00     0.000 A 
ATOM     12  C   UNL     1       5.121   2.188  -0.238  1.00  0.00     0.000 A 
ENDBRANCH   6   7
ENDBRANCH   1   6
TORSDOF 4
ENDMDL
