@<TRIPOS>MOLECULE
/home/cewinharhar/GITHUB/reincatalyze/data/processed/docking_pred/2023_Apr_20-15:07/939bd1e5684a89eea32cbd4f4170b12915347732_ligand_2.pdbqt
 12 12 0 0 0
SMALL
GASTEIGER

@<TRIPOS>ATOM
      1  C          8.2350   -1.5060    1.0780 C.3     1  UNL1        0.1270
      2  C          8.4890   -2.7500    0.3130 C.2     1  UNL1        0.3030
      3  O          9.1260   -3.7060    0.8180 O.2     1  UNL1       -0.2520
      4  O          8.0280   -2.8910   -0.9860 O.3     1  UNL1       -0.4810
      5  H          8.6130   -2.5710   -1.7630 H       1  UNL1        0.2960
      6  C          6.7590   -1.3870    1.3070 C.3     1  UNL1        0.0470
      7  C          6.1770   -0.1460    0.8010 C.2     1  UNL1       -0.0470
      8  C          5.3750    0.6330    1.6020 C.2     1  UNL1        0.0040
      9  C          6.4420    0.2420   -0.4930 C.2     1  UNL1        0.0040
     10  C          4.8540    1.8070    1.0530 C.2     1  UNL1        0.0000
     11  C          5.9260    1.4020   -1.0340 C.2     1  UNL1        0.0000
     12  C          5.1210    2.1880   -0.2380 C.2     1  UNL1        0.0000
@<TRIPOS>BOND
     1     5     4    1
     2    11     9    1
     3    11    12    2
     4     4     2    1
     5     9     7    2
     6    12    10    1
     7     2     3    2
     8     2     1    1
     9     7     6    1
    10     7     8    1
    11    10     8    2
    12     1     6    1
