@<TRIPOS>MOLECULE
/home/cewinharhar/GITHUB/reincatalyze/data/processed/docking_pred/2023_Apr_20-15:07/939bd1e5684a89eea32cbd4f4170b12915347732_ligand_2.pdbqt
 12 12 0 0 0
SMALL
GASTEIGER

@<TRIPOS>ATOM
      1  C          8.4180   -0.7220   -2.0200 C.3     1  UNL1        0.1270
      2  C          8.4660   -1.9350   -2.8700 C.2     1  UNL1        0.3030
      3  O          9.5520   -2.5140   -3.1180 O.2     1  UNL1       -0.2520
      4  O          7.3080   -2.4650   -3.4170 O.3     1  UNL1       -0.4810
      5  H          7.2660   -3.4660   -3.6280 H       1  UNL1        0.2960
      6  C          7.0200   -0.1840   -2.0460 C.3     1  UNL1        0.0470
      7  C          6.4470    0.0460   -0.7210 C.2     1  UNL1       -0.0470
      8  C          5.8170    1.2310   -0.4230 C.2     1  UNL1        0.0040
      9  C          6.5420   -0.9420    0.2320 C.2     1  UNL1        0.0040
     10  C          5.2910    1.3810    0.8630 C.2     1  UNL1        0.0000
     11  C          6.0220   -0.7920    1.5030 C.2     1  UNL1        0.0000
     12  C          5.3900    0.3930    1.8090 C.2     1  UNL1        0.0000
@<TRIPOS>BOND
     1     5     4    1
     2     4     2    1
     3     3     2    2
     4     2     1    1
     5     6     1    1
     6     6     7    1
     7     7     8    2
     8     7     9    1
     9     8    10    1
    10     9    11    2
    11    10    12    2
    12    11    12    1
