@<TRIPOS>MOLECULE
/home/cewinharhar/GITHUB/reincatalyze/data/processed/docking_pred/2023_Apr_20-15:07/93c3770ef064b633c902e85f3368d9330fbaaeb8_ligand_2.pdbqt
 12 12 0 0 0
SMALL
GASTEIGER

@<TRIPOS>ATOM
      1  C          8.4190   -0.7250   -1.9880 C.3     1  UNL1        0.1270
      2  C          8.3710   -1.9210   -2.8620 C.2     1  UNL1        0.3030
      3  O          7.2770   -2.3990   -3.2520 O.2     1  UNL1       -0.2520
      4  O          9.5370   -2.5470   -3.2730 O.3     1  UNL1       -0.4810
      5  H          9.7220   -2.6530   -4.2740 H       1  UNL1        0.2960
      6  C          7.0810   -0.0520   -2.0380 C.3     1  UNL1        0.0470
      7  C          6.4690    0.1520   -0.7260 C.2     1  UNL1       -0.0470
      8  C          5.7720    1.3050   -0.4470 C.2     1  UNL1        0.0040
      9  C          6.5950   -0.8260    0.2330 C.2     1  UNL1        0.0040
     10  C          5.2130    1.4320    0.8270 C.2     1  UNL1        0.0000
     11  C          6.0430   -0.6980    1.4920 C.2     1  UNL1        0.0000
     12  C          5.3430    0.4530    1.7800 C.2     1  UNL1        0.0000
@<TRIPOS>BOND
     1     5     4    1
     2     4     2    1
     3     3     2    2
     4     2     1    1
     5     6     1    1
     6     6     7    1
     7     7     8    2
     8     7     9    1
     9     8    10    1
    10     9    11    2
    11    10    12    2
    12    11    12    1
