@<TRIPOS>MOLECULE
/home/cewinharhar/GITHUB/reincatalyze/data/processed/docking_pred/2023_Apr_20-15:07/93c3770ef064b633c902e85f3368d9330fbaaeb8_ligand_2.pdbqt
 12 12 0 0 0
SMALL
GASTEIGER

@<TRIPOS>ATOM
      1  C          8.3230   -0.8980   -1.8970 C.3     1  UNL1        0.1270
      2  C          8.3360   -2.0090   -2.8780 C.2     1  UNL1        0.3030
      3  O          7.2700   -2.4560   -3.3700 O.2     1  UNL1       -0.2520
      4  O          9.5290   -2.5870   -3.2810 O.3     1  UNL1       -0.4810
      5  H         10.3870   -2.3770   -2.7640 H       1  UNL1        0.2960
      6  C          7.5610   -1.3470   -0.6880 C.3     1  UNL1        0.0470
      7  C          6.6740   -0.3270   -0.1310 C.2     1  UNL1       -0.0470
      8  C          6.3210    0.7770   -0.8710 C.2     1  UNL1        0.0040
      9  C          6.1900   -0.4840    1.1470 C.2     1  UNL1        0.0040
     10  C          5.4690    1.7100   -0.2770 C.2     1  UNL1        0.0000
     11  C          5.3480    0.4400    1.7340 C.2     1  UNL1        0.0000
     12  C          4.9900    1.5500    0.9990 C.2     1  UNL1        0.0000
@<TRIPOS>BOND
     1     3     2    2
     2     4     2    1
     3     4     5    1
     4     2     1    1
     5     1     6    1
     6     8    10    1
     7     8     7    2
     8     6     7    1
     9    10    12    2
    10     7     9    1
    11    12    11    1
    12     9    11    2
