@<TRIPOS>MOLECULE
/home/cewinharhar/GITHUB/reincatalyze/data/processed/docking_pred/2023_Apr_20-15:07/93c3770ef064b633c902e85f3368d9330fbaaeb8_ligand_2.pdbqt
 12 12 0 0 0
SMALL
GASTEIGER

@<TRIPOS>ATOM
      1  C          5.0030    1.7830    0.7080 C.3     1  UNL1        0.1270
      2  C          4.4830    1.1050    1.9190 C.2     1  UNL1        0.3030
      3  O          5.1370    0.1960    2.4880 O.2     1  UNL1       -0.2520
      4  O          3.2560    1.4580    2.4580 O.3     1  UNL1       -0.4810
      5  H          2.5470    0.7350    2.6050 H       1  UNL1        0.2960
      6  C          6.5010    1.7570    0.7610 C.3     1  UNL1        0.0470
      7  C          7.1210    1.0090   -0.3310 C.2     1  UNL1       -0.0470
      8  C          6.3980    0.0890   -1.0530 C.2     1  UNL1        0.0040
      9  C          8.4440    1.2380   -0.6350 C.2     1  UNL1        0.0040
     10  C          7.0550   -0.5880   -2.0840 C.2     1  UNL1        0.0000
     11  C          9.0920    0.5680   -1.6530 C.2     1  UNL1        0.0000
     12  C          8.3740   -0.3570   -2.3810 C.2     1  UNL1        0.0000
@<TRIPOS>BOND
     1    12    10    2
     2    12    11    1
     3    10     8    1
     4    11     9    2
     5     8     7    2
     6     9     7    1
     7     7     6    1
     8     1     6    1
     9     1     2    1
    10     2     4    1
    11     2     3    2
    12     4     5    1
