@<TRIPOS>MOLECULE
/home/cewinharhar/GITHUB/reincatalyze/data/processed/docking_pred/2023_Apr_20-15:07/93c3770ef064b633c902e85f3368d9330fbaaeb8_ligand_2.pdbqt
 12 12 0 0 0
SMALL
GASTEIGER

@<TRIPOS>ATOM
      1  C          8.4310   -0.6540   -2.1170 C.3     1  UNL1        0.1270
      2  C          8.4670   -1.9130   -2.8970 C.2     1  UNL1        0.3030
      3  O          9.5460   -2.5240   -3.0970 O.2     1  UNL1       -0.2520
      4  O          7.3070   -2.4520   -3.4300 O.3     1  UNL1       -0.4810
      5  H          6.8100   -1.9430   -4.1650 H       1  UNL1        0.2960
      6  C          7.0190   -0.1510   -2.1000 C.3     1  UNL1        0.0470
      7  C          6.4680    0.0300   -0.7580 C.2     1  UNL1       -0.0470
      8  C          6.5840   -0.9610    0.1890 C.2     1  UNL1        0.0040
      9  C          5.8310    1.2090   -0.4480 C.2     1  UNL1        0.0040
     10  C          6.0340   -0.7190    1.4500 C.2     1  UNL1        0.0000
     11  C          5.2880    1.4460    0.7990 C.2     1  UNL1        0.0000
     12  C          5.3990    0.4580    1.7540 C.2     1  UNL1        0.0000
@<TRIPOS>BOND
     1     5     4    1
     2     4     2    1
     3     3     2    2
     4     2     1    1
     5     1     6    1
     6     6     7    1
     7     7     9    2
     8     7     8    1
     9     9    11    1
    10     8    10    2
    11    11    12    2
    12    10    12    1
