MODEL 1
REMARK VINA RESULT:      -7.3      0.000      0.000
REMARK SMILES O=C(O)CCc1ccccc1
REMARK SMILES IDX 4 1 2 2 1 3 3 4 5 6 6 7 7 8 11 9 8 10 10 11 9 12
REMARK H PARENT 3 5
REMARK Flexibility Score: inf
ROOT
ATOM      1  C   UNL     1       8.431  -0.654  -2.117  1.00  0.00     0.127 C 
ENDROOT
BRANCH   1   2
ATOM      2  C   UNL     1       8.467  -1.913  -2.897  1.00  0.00     0.303 C 
ATOM      3  O   UNL     1       9.546  -2.524  -3.097  1.00  0.00    -0.252 OA
BRANCH   2   4
ATOM      4  O   UNL     1       7.307  -2.452  -3.430  1.00  0.00    -0.481 OA
ATOM      5  H   UNL     1       6.810  -1.943  -4.165  1.00  0.00     0.296 HD
ENDBRANCH   2   4
ENDBRANCH   1   2
BRANCH   1   6
ATOM      6  C   UNL     1       7.019  -0.151  -2.100  1.00  0.00     0.047 C 
BRANCH   6   7
ATOM      7  C   UNL     1       6.468   0.030  -0.758  1.00  0.00    -0.047 A 
ATOM      8  C   UNL     1       6.584  -0.961   0.189  1.00  0.00     0.004 A 
ATOM      9  C   UNL     1       5.831   1.209  -0.448  1.00  0.00     0.004 A 
ATOM     10  C   UNL     1       6.034  -0.719   1.450  1.00  0.00     0.000 A 
ATOM     11  C   UNL     1       5.288   1.446   0.799  1.00  0.00     0.000 A 
ATOM     12  C   UNL     1       5.399   0.458   1.754  1.00  0.00     0.000 A 
ENDBRANCH   6   7
ENDBRANCH   1   6
TORSDOF 4
ENDMDL
MODEL 2
REMARK VINA RESULT:      -7.3      0.127      1.732
REMARK SMILES O=C(O)CCc1ccccc1
REMARK SMILES IDX 4 1 2 2 1 3 3 4 5 6 6 7 7 8 11 9 8 10 10 11 9 12
REMARK H PARENT 3 5
REMARK Flexibility Score: inf
ROOT
ATOM      1  C   UNL     1       8.419  -0.725  -1.988  1.00  0.00     0.127 C 
ENDROOT
BRANCH   1   2
ATOM      2  C   UNL     1       8.371  -1.921  -2.862  1.00  0.00     0.303 C 
ATOM      3  O   UNL     1       7.277  -2.399  -3.252  1.00  0.00    -0.252 OA
BRANCH   2   4
ATOM      4  O   UNL     1       9.537  -2.547  -3.273  1.00  0.00    -0.481 OA
ATOM      5  H   UNL     1       9.722  -2.653  -4.274  1.00  0.00     0.296 HD
ENDBRANCH   2   4
ENDBRANCH   1   2
BRANCH   1   6
ATOM      6  C   UNL     1       7.081  -0.052  -2.038  1.00  0.00     0.047 C 
BRANCH   6   7
ATOM      7  C   UNL     1       6.469   0.152  -0.726  1.00  0.00    -0.047 A 
ATOM      8  C   UNL     1       5.772   1.305  -0.447  1.00  0.00     0.004 A 
ATOM      9  C   UNL     1       6.595  -0.826   0.233  1.00  0.00     0.004 A 
ATOM     10  C   UNL     1       5.213   1.432   0.827  1.00  0.00     0.000 A 
ATOM     11  C   UNL     1       6.043  -0.698   1.492  1.00  0.00     0.000 A 
ATOM     12  C   UNL     1       5.343   0.453   1.780  1.00  0.00     0.000 A 
ENDBRANCH   6   7
ENDBRANCH   1   6
TORSDOF 4
ENDMDL
MODEL 3
REMARK VINA RESULT:      -7.1      0.625      1.845
REMARK SMILES O=C(O)CCc1ccccc1
REMARK SMILES IDX 4 1 2 2 1 3 3 4 5 6 6 7 7 8 11 9 8 10 10 11 9 12
REMARK H PARENT 3 5
REMARK Flexibility Score: inf
ROOT
ATOM      1  C   UNL     1       8.323  -0.898  -1.897  1.00  0.00     0.127 C 
ENDROOT
BRANCH   1   2
ATOM      2  C   UNL     1       8.336  -2.009  -2.878  1.00  0.00     0.303 C 
ATOM      3  O   UNL     1       7.270  -2.456  -3.370  1.00  0.00    -0.252 OA
BRANCH   2   4
ATOM      4  O   UNL     1       9.529  -2.587  -3.281  1.00  0.00    -0.481 OA
ATOM      5  H   UNL     1      10.387  -2.377  -2.764  1.00  0.00     0.296 HD
ENDBRANCH   2   4
ENDBRANCH   1   2
BRANCH   1   6
ATOM      6  C   UNL     1       7.561  -1.347  -0.688  1.00  0.00     0.047 C 
BRANCH   6   7
ATOM      7  C   UNL     1       6.674  -0.327  -0.131  1.00  0.00    -0.047 A 
ATOM      8  C   UNL     1       6.321   0.777  -0.871  1.00  0.00     0.004 A 
ATOM      9  C   UNL     1       6.190  -0.484   1.147  1.00  0.00     0.004 A 
ATOM     10  C   UNL     1       5.469   1.710  -0.277  1.00  0.00     0.000 A 
ATOM     11  C   UNL     1       5.348   0.440   1.734  1.00  0.00     0.000 A 
ATOM     12  C   UNL     1       4.990   1.550   0.999  1.00  0.00     0.000 A 
ENDBRANCH   6   7
ENDBRANCH   1   6
TORSDOF 4
ENDMDL
MODEL 4
REMARK VINA RESULT:      -6.8      3.381      5.071
REMARK SMILES O=C(O)CCc1ccccc1
REMARK SMILES IDX 4 1 2 2 1 3 3 4 5 6 6 7 7 8 11 9 8 10 10 11 9 12
REMARK H PARENT 3 5
REMARK Flexibility Score: inf
ROOT
ATOM      1  C   UNL     1       5.003   1.783   0.708  1.00  0.00     0.127 C 
ENDROOT
BRANCH   1   2
ATOM      2  C   UNL     1       4.483   1.105   1.919  1.00  0.00     0.303 C 
ATOM      3  O   UNL     1       5.137   0.196   2.488  1.00  0.00    -0.252 OA
BRANCH   2   4
ATOM      4  O   UNL     1       3.256   1.458   2.458  1.00  0.00    -0.481 OA
ATOM      5  H   UNL     1       2.547   0.735   2.605  1.00  0.00     0.296 HD
ENDBRANCH   2   4
ENDBRANCH   1   2
BRANCH   1   6
ATOM      6  C   UNL     1       6.501   1.757   0.761  1.00  0.00     0.047 C 
BRANCH   6   7
ATOM      7  C   UNL     1       7.121   1.009  -0.331  1.00  0.00    -0.047 A 
ATOM      8  C   UNL     1       6.398   0.089  -1.053  1.00  0.00     0.004 A 
ATOM      9  C   UNL     1       8.444   1.238  -0.635  1.00  0.00     0.004 A 
ATOM     10  C   UNL     1       7.055  -0.588  -2.084  1.00  0.00     0.000 A 
ATOM     11  C   UNL     1       9.092   0.568  -1.653  1.00  0.00     0.000 A 
ATOM     12  C   UNL     1       8.374  -0.357  -2.381  1.00  0.00     0.000 A 
ENDBRANCH   6   7
ENDBRANCH   1   6
TORSDOF 4
ENDMDL
MODEL 5
REMARK VINA RESULT:      -6.7      1.933      2.286
REMARK SMILES O=C(O)CCc1ccccc1
REMARK SMILES IDX 4 1 2 2 1 3 3 4 5 6 6 7 7 8 11 9 8 10 10 11 9 12
REMARK H PARENT 3 5
REMARK Flexibility Score: inf
ROOT
ATOM      1  C   UNL     1       8.262   0.141  -2.174  1.00  0.00     0.127 C 
ENDROOT
BRANCH   1   2
ATOM      2  C   UNL     1       9.382   0.319  -1.221  1.00  0.00     0.303 C 
ATOM      3  O   UNL     1       9.480  -0.393  -0.191  1.00  0.00    -0.252 OA
BRANCH   2   4
ATOM      4  O   UNL     1      10.356   1.281  -1.440  1.00  0.00    -0.481 OA
ATOM      5  H   UNL     1      10.076   2.258  -1.560  1.00  0.00     0.296 HD
ENDBRANCH   2   4
ENDBRANCH   1   2
BRANCH   1   6
ATOM      6  C   UNL     1       7.171  -0.618  -1.482  1.00  0.00     0.047 C 
BRANCH   6   7
ATOM      7  C   UNL     1       6.383   0.189  -0.552  1.00  0.00    -0.047 A 
ATOM      8  C   UNL     1       6.139  -0.251   0.728  1.00  0.00     0.004 A 
ATOM      9  C   UNL     1       5.884   1.401  -0.971  1.00  0.00     0.004 A 
ATOM     10  C   UNL     1       5.379   0.572   1.562  1.00  0.00     0.000 A 
ATOM     11  C   UNL     1       5.133   2.213  -0.146  1.00  0.00     0.000 A 
ATOM     12  C   UNL     1       4.884   1.780   1.139  1.00  0.00     0.000 A 
ENDBRANCH   6   7
ENDBRANCH   1   6
TORSDOF 4
ENDMDL
