@<TRIPOS>MOLECULE
/home/cewinharhar/GITHUB/reincatalyze/data/processed/docking_pred/2023_Apr_20-15:07/93c3770ef064b633c902e85f3368d9330fbaaeb8_ligand_2.pdbqt
 12 12 0 0 0
SMALL
GASTEIGER

@<TRIPOS>ATOM
      1  C          8.2620    0.1410   -2.1740 C.3     1  UNL1        0.1270
      2  C          9.3820    0.3190   -1.2210 C.2     1  UNL1        0.3030
      3  O          9.4800   -0.3930   -0.1910 O.2     1  UNL1       -0.2520
      4  O         10.3560    1.2810   -1.4400 O.3     1  UNL1       -0.4810
      5  H         10.0760    2.2580   -1.5600 H       1  UNL1        0.2960
      6  C          7.1710   -0.6180   -1.4820 C.3     1  UNL1        0.0470
      7  C          6.3830    0.1890   -0.5520 C.2     1  UNL1       -0.0470
      8  C          6.1390   -0.2510    0.7280 C.2     1  UNL1        0.0040
      9  C          5.8840    1.4010   -0.9710 C.2     1  UNL1        0.0040
     10  C          5.3790    0.5720    1.5620 C.2     1  UNL1        0.0000
     11  C          5.1330    2.2130   -0.1460 C.2     1  UNL1        0.0000
     12  C          4.8840    1.7800    1.1390 C.2     1  UNL1        0.0000
@<TRIPOS>BOND
     1     1     6    1
     2     1     2    1
     3     5     4    1
     4     6     7    1
     5     4     2    1
     6     2     3    2
     7     9     7    2
     8     9    11    1
     9     7     8    1
    10    11    12    2
    11     8    10    2
    12    12    10    1
