@<TRIPOS>MOLECULE
/home/cewinharhar/GITHUB/reincatalyze/data/processed/docking_pred/2023_Apr_20-15:07/93f5b296c54773c487a3666b5d29638d3a74aef5_ligand_2.pdbqt
 12 12 0 0 0
SMALL
GASTEIGER

@<TRIPOS>ATOM
      1  C          5.0300    1.6770    0.7170 C.3     1  UNL1        0.1270
      2  C          4.5610    1.0030    1.9510 C.2     1  UNL1        0.3030
      3  O          5.2610    0.1300    2.5210 O.2     1  UNL1       -0.2520
      4  O          3.3330    1.3190    2.5100 O.3     1  UNL1       -0.4810
      5  H          3.0370    0.8460    3.3680 H       1  UNL1        0.2960
      6  C          6.5280    1.6980    0.7320 C.3     1  UNL1        0.0470
      7  C          7.1440    0.9370   -0.3530 C.2     1  UNL1       -0.0470
      8  C          6.4390   -0.0430   -1.0140 C.2     1  UNL1        0.0040
      9  C          8.4430    1.2110   -0.7130 C.2     1  UNL1        0.0040
     10  C          7.0900   -0.7290   -2.0410 C.2     1  UNL1        0.0000
     11  C          9.0860    0.5310   -1.7280 C.2     1  UNL1        0.0000
     12  C          8.3870   -0.4520   -2.3940 C.2     1  UNL1        0.0000
@<TRIPOS>BOND
     1    12    10    2
     2    12    11    1
     3    10     8    1
     4    11     9    2
     5     8     7    2
     6     9     7    1
     7     7     6    1
     8     1     6    1
     9     1     2    1
    10     2     4    1
    11     2     3    2
    12     4     5    1
