MODEL 1
REMARK VINA RESULT:      -7.3      0.000      0.000
REMARK SMILES O=C(O)CCc1ccccc1
REMARK SMILES IDX 4 1 2 2 1 3 3 4 5 6 6 7 7 8 11 9 8 10 10 11 9 12
REMARK H PARENT 3 5
REMARK Flexibility Score: inf
ROOT
ATOM      1  C   UNL     1       8.421  -0.656  -2.089  1.00  0.00     0.127 C 
ENDROOT
BRANCH   1   2
ATOM      2  C   UNL     1       8.453  -1.912  -2.875  1.00  0.00     0.303 C 
ATOM      3  O   UNL     1       9.529  -2.531  -3.069  1.00  0.00    -0.252 OA
BRANCH   2   4
ATOM      4  O   UNL     1       7.293  -2.439  -3.419  1.00  0.00    -0.481 OA
ATOM      5  H   UNL     1       7.345  -2.967  -4.294  1.00  0.00     0.296 HD
ENDBRANCH   2   4
ENDBRANCH   1   2
BRANCH   1   6
ATOM      6  C   UNL     1       7.012  -0.147  -2.072  1.00  0.00     0.047 C 
BRANCH   6   7
ATOM      7  C   UNL     1       6.461   0.030  -0.729  1.00  0.00    -0.047 A 
ATOM      8  C   UNL     1       5.828   1.200  -0.378  1.00  0.00     0.004 A 
ATOM      9  C   UNL     1       6.579  -0.990   0.186  1.00  0.00     0.004 A 
ATOM     10  C   UNL     1       5.324   1.300   0.921  1.00  0.00     0.000 A 
ATOM     11  C   UNL     1       6.082  -0.890   1.470  1.00  0.00     0.000 A 
ATOM     12  C   UNL     1       5.447   0.279   1.830  1.00  0.00     0.000 A 
ENDBRANCH   6   7
ENDBRANCH   1   6
TORSDOF 4
ENDMDL
MODEL 2
REMARK VINA RESULT:      -7.3      0.148      1.444
REMARK SMILES O=C(O)CCc1ccccc1
REMARK SMILES IDX 4 1 2 2 1 3 3 4 5 6 6 7 7 8 11 9 8 10 10 11 9 12
REMARK H PARENT 3 5
REMARK Flexibility Score: inf
ROOT
ATOM      1  C   UNL     1       8.442  -0.542  -2.275  1.00  0.00     0.127 C 
ENDROOT
BRANCH   1   2
ATOM      2  C   UNL     1       8.487  -1.873  -2.925  1.00  0.00     0.303 C 
ATOM      3  O   UNL     1       9.568  -2.499  -3.051  1.00  0.00    -0.252 OA
BRANCH   2   4
ATOM      4  O   UNL     1       7.333  -2.463  -3.413  1.00  0.00    -0.481 OA
ATOM      5  H   UNL     1       6.894  -3.220  -2.881  1.00  0.00     0.296 HD
ENDBRANCH   2   4
ENDBRANCH   1   2
BRANCH   1   6
ATOM      6  C   UNL     1       7.013  -0.099  -2.206  1.00  0.00     0.047 C 
BRANCH   6   7
ATOM      7  C   UNL     1       6.502   0.052  -0.845  1.00  0.00    -0.047 A 
ATOM      8  C   UNL     1       6.632  -0.965   0.072  1.00  0.00     0.004 A 
ATOM      9  C   UNL     1       5.887   1.229  -0.485  1.00  0.00     0.004 A 
ATOM     10  C   UNL     1       6.121  -0.751   1.355  1.00  0.00     0.000 A 
ATOM     11  C   UNL     1       5.383   1.439   0.783  1.00  0.00     0.000 A 
ATOM     12  C   UNL     1       5.508   0.425   1.707  1.00  0.00     0.000 A 
ENDBRANCH   6   7
ENDBRANCH   1   6
TORSDOF 4
ENDMDL
MODEL 3
REMARK VINA RESULT:      -6.7      3.351      5.063
REMARK SMILES O=C(O)CCc1ccccc1
REMARK SMILES IDX 4 1 2 2 1 3 3 4 5 6 6 7 7 8 11 9 8 10 10 11 9 12
REMARK H PARENT 3 5
REMARK Flexibility Score: inf
ROOT
ATOM      1  C   UNL     1       5.030   1.677   0.717  1.00  0.00     0.127 C 
ENDROOT
BRANCH   1   2
ATOM      2  C   UNL     1       4.561   1.003   1.951  1.00  0.00     0.303 C 
ATOM      3  O   UNL     1       5.261   0.130   2.521  1.00  0.00    -0.252 OA
BRANCH   2   4
ATOM      4  O   UNL     1       3.333   1.319   2.510  1.00  0.00    -0.481 OA
ATOM      5  H   UNL     1       3.037   0.846   3.368  1.00  0.00     0.296 HD
ENDBRANCH   2   4
ENDBRANCH   1   2
BRANCH   1   6
ATOM      6  C   UNL     1       6.528   1.698   0.732  1.00  0.00     0.047 C 
BRANCH   6   7
ATOM      7  C   UNL     1       7.144   0.937  -0.353  1.00  0.00    -0.047 A 
ATOM      8  C   UNL     1       6.439  -0.043  -1.014  1.00  0.00     0.004 A 
ATOM      9  C   UNL     1       8.443   1.211  -0.713  1.00  0.00     0.004 A 
ATOM     10  C   UNL     1       7.090  -0.729  -2.041  1.00  0.00     0.000 A 
ATOM     11  C   UNL     1       9.086   0.531  -1.728  1.00  0.00     0.000 A 
ATOM     12  C   UNL     1       8.387  -0.452  -2.394  1.00  0.00     0.000 A 
ENDBRANCH   6   7
ENDBRANCH   1   6
TORSDOF 4
ENDMDL
MODEL 4
REMARK VINA RESULT:      -6.6      1.976      2.691
REMARK SMILES O=C(O)CCc1ccccc1
REMARK SMILES IDX 4 1 2 2 1 3 3 4 5 6 6 7 7 8 11 9 8 10 10 11 9 12
REMARK H PARENT 3 5
REMARK Flexibility Score: inf
ROOT
ATOM      1  C   UNL     1       8.297   0.311  -2.078  1.00  0.00     0.127 C 
ENDROOT
BRANCH   1   2
ATOM      2  C   UNL     1       9.445   0.391  -1.145  1.00  0.00     0.303 C 
ATOM      3  O   UNL     1       9.525  -0.365  -0.145  1.00  0.00    -0.252 OA
BRANCH   2   4
ATOM      4  O   UNL     1      10.464   1.307  -1.350  1.00  0.00    -0.481 OA
ATOM      5  H   UNL     1      11.432   1.029  -1.164  1.00  0.00     0.296 HD
ENDBRANCH   2   4
ENDBRANCH   1   2
BRANCH   1   6
ATOM      6  C   UNL     1       7.228  -0.524  -1.440  1.00  0.00     0.047 C 
BRANCH   6   7
ATOM      7  C   UNL     1       6.407   0.201  -0.471  1.00  0.00    -0.047 A 
ATOM      8  C   UNL     1       6.190  -0.309   0.787  1.00  0.00     0.004 A 
ATOM      9  C   UNL     1       5.852   1.407  -0.831  1.00  0.00     0.004 A 
ATOM     10  C   UNL     1       5.396   0.437   1.661  1.00  0.00     0.000 A 
ATOM     11  C   UNL     1       5.068   2.144   0.034  1.00  0.00     0.000 A 
ATOM     12  C   UNL     1       4.844   1.639   1.297  1.00  0.00     0.000 A 
ENDBRANCH   6   7
ENDBRANCH   1   6
TORSDOF 4
ENDMDL
MODEL 5
REMARK VINA RESULT:      -6.6      3.231      4.911
REMARK SMILES O=C(O)CCc1ccccc1
REMARK SMILES IDX 4 1 2 2 1 3 3 4 5 6 6 7 7 8 11 9 8 10 10 11 9 12
REMARK H PARENT 3 5
REMARK Flexibility Score: inf
ROOT
ATOM      1  C   UNL     1       5.494   1.906   1.080  1.00  0.00     0.127 C 
ENDROOT
BRANCH   1   2
ATOM      2  C   UNL     1       4.779   0.937   1.945  1.00  0.00     0.303 C 
ATOM      3  O   UNL     1       5.289  -0.172   2.240  1.00  0.00    -0.252 OA
BRANCH   2   4
ATOM      4  O   UNL     1       3.524   1.231   2.453  1.00  0.00    -0.481 OA
ATOM      5  H   UNL     1       3.341   2.166   2.827  1.00  0.00     0.296 HD
ENDBRANCH   2   4
ENDBRANCH   1   2
BRANCH   1   6
ATOM      6  C   UNL     1       5.402   1.429  -0.337  1.00  0.00     0.047 C 
BRANCH   6   7
ATOM      7  C   UNL     1       6.662   0.918  -0.875  1.00  0.00    -0.047 A 
ATOM      8  C   UNL     1       7.867   1.333  -0.358  1.00  0.00     0.004 A 
ATOM      9  C   UNL     1       6.632   0.012  -1.910  1.00  0.00     0.004 A 
ATOM     10  C   UNL     1       9.031   0.804  -0.921  1.00  0.00     0.000 A 
ATOM     11  C   UNL     1       7.783  -0.511  -2.465  1.00  0.00     0.000 A 
ATOM     12  C   UNL     1       8.994  -0.100  -1.953  1.00  0.00     0.000 A 
ENDBRANCH   6   7
ENDBRANCH   1   6
TORSDOF 4
ENDMDL
