@<TRIPOS>MOLECULE
/home/cewinharhar/GITHUB/reincatalyze/data/processed/docking_pred/2023_Apr_20-15:07/93f5b296c54773c487a3666b5d29638d3a74aef5_ligand_2.pdbqt
 12 12 0 0 0
SMALL
GASTEIGER

@<TRIPOS>ATOM
      1  C          5.4940    1.9060    1.0800 C.3     1  UNL1        0.1270
      2  C          4.7790    0.9370    1.9450 C.2     1  UNL1        0.3030
      3  O          5.2890   -0.1720    2.2400 O.2     1  UNL1       -0.2520
      4  O          3.5240    1.2310    2.4530 O.3     1  UNL1       -0.4810
      5  H          3.3410    2.1660    2.8270 H       1  UNL1        0.2960
      6  C          5.4020    1.4290   -0.3370 C.3     1  UNL1        0.0470
      7  C          6.6620    0.9180   -0.8750 C.2     1  UNL1       -0.0470
      8  C          7.8670    1.3330   -0.3580 C.2     1  UNL1        0.0040
      9  C          6.6320    0.0120   -1.9100 C.2     1  UNL1        0.0040
     10  C          9.0310    0.8040   -0.9210 C.2     1  UNL1        0.0000
     11  C          7.7830   -0.5110   -2.4650 C.2     1  UNL1        0.0000
     12  C          8.9940   -0.1000   -1.9530 C.2     1  UNL1        0.0000
@<TRIPOS>BOND
     1    11    12    2
     2    11     9    1
     3    12    10    1
     4     9     7    2
     5    10     8    2
     6     7     8    1
     7     7     6    1
     8     6     1    1
     9     1     2    1
    10     2     3    2
    11     2     4    1
    12     4     5    1
