@<TRIPOS>MOLECULE
/home/cewinharhar/GITHUB/reincatalyze/data/processed/docking_pred/2023_Apr_20-15:07/93f5b296c54773c487a3666b5d29638d3a74aef5_ligand_2.pdbqt
 12 12 0 0 0
SMALL
GASTEIGER

@<TRIPOS>ATOM
      1  C          8.2970    0.3110   -2.0780 C.3     1  UNL1        0.1270
      2  C          9.4450    0.3910   -1.1450 C.2     1  UNL1        0.3030
      3  O          9.5250   -0.3650   -0.1450 O.2     1  UNL1       -0.2520
      4  O         10.4640    1.3070   -1.3500 O.3     1  UNL1       -0.4810
      5  H         11.4320    1.0290   -1.1640 H       1  UNL1        0.2960
      6  C          7.2280   -0.5240   -1.4400 C.3     1  UNL1        0.0470
      7  C          6.4070    0.2010   -0.4710 C.2     1  UNL1       -0.0470
      8  C          6.1900   -0.3090    0.7870 C.2     1  UNL1        0.0040
      9  C          5.8520    1.4070   -0.8310 C.2     1  UNL1        0.0040
     10  C          5.3960    0.4370    1.6610 C.2     1  UNL1        0.0000
     11  C          5.0680    2.1440    0.0340 C.2     1  UNL1        0.0000
     12  C          4.8440    1.6390    1.2970 C.2     1  UNL1        0.0000
@<TRIPOS>BOND
     1     1     6    1
     2     1     2    1
     3     6     7    1
     4     4     5    1
     5     4     2    1
     6     2     3    2
     7     9     7    2
     8     9    11    1
     9     7     8    1
    10    11    12    2
    11     8    10    2
    12    12    10    1
