@<TRIPOS>MOLECULE
/home/cewinharhar/GITHUB/reincatalyze/data/processed/docking_pred/2023_Apr_20-15:07/93f5b296c54773c487a3666b5d29638d3a74aef5_ligand_2.pdbqt
 12 12 0 0 0
SMALL
GASTEIGER

@<TRIPOS>ATOM
      1  C          8.4210   -0.6560   -2.0890 C.3     1  UNL1        0.1270
      2  C          8.4530   -1.9120   -2.8750 C.2     1  UNL1        0.3030
      3  O          9.5290   -2.5310   -3.0690 O.2     1  UNL1       -0.2520
      4  O          7.2930   -2.4390   -3.4190 O.3     1  UNL1       -0.4810
      5  H          7.3450   -2.9670   -4.2940 H       1  UNL1        0.2960
      6  C          7.0120   -0.1470   -2.0720 C.3     1  UNL1        0.0470
      7  C          6.4610    0.0300   -0.7290 C.2     1  UNL1       -0.0470
      8  C          5.8280    1.2000   -0.3780 C.2     1  UNL1        0.0040
      9  C          6.5790   -0.9900    0.1860 C.2     1  UNL1        0.0040
     10  C          5.3240    1.3000    0.9210 C.2     1  UNL1        0.0000
     11  C          6.0820   -0.8900    1.4700 C.2     1  UNL1        0.0000
     12  C          5.4470    0.2790    1.8300 C.2     1  UNL1        0.0000
@<TRIPOS>BOND
     1     5     4    1
     2     4     2    1
     3     3     2    2
     4     2     1    1
     5     1     6    1
     6     6     7    1
     7     7     8    2
     8     7     9    1
     9     8    10    1
    10     9    11    2
    11    10    12    2
    12    11    12    1
