@<TRIPOS>MOLECULE
/home/cewinharhar/GITHUB/reincatalyze/data/processed/docking_pred/2023_Apr_20-15:07/93f5b296c54773c487a3666b5d29638d3a74aef5_ligand_2.pdbqt
 12 12 0 0 0
SMALL
GASTEIGER

@<TRIPOS>ATOM
      1  C          8.4420   -0.5420   -2.2750 C.3     1  UNL1        0.1270
      2  C          8.4870   -1.8730   -2.9250 C.2     1  UNL1        0.3030
      3  O          9.5680   -2.4990   -3.0510 O.2     1  UNL1       -0.2520
      4  O          7.3330   -2.4630   -3.4130 O.3     1  UNL1       -0.4810
      5  H          6.8940   -3.2200   -2.8810 H       1  UNL1        0.2960
      6  C          7.0130   -0.0990   -2.2060 C.3     1  UNL1        0.0470
      7  C          6.5020    0.0520   -0.8450 C.2     1  UNL1       -0.0470
      8  C          6.6320   -0.9650    0.0720 C.2     1  UNL1        0.0040
      9  C          5.8870    1.2290   -0.4850 C.2     1  UNL1        0.0040
     10  C          6.1210   -0.7510    1.3550 C.2     1  UNL1        0.0000
     11  C          5.3830    1.4390    0.7830 C.2     1  UNL1        0.0000
     12  C          5.5080    0.4250    1.7070 C.2     1  UNL1        0.0000
@<TRIPOS>BOND
     1     4     2    1
     2     4     5    1
     3     3     2    2
     4     2     1    1
     5     1     6    1
     6     6     7    1
     7     7     9    2
     8     7     8    1
     9     9    11    1
    10     8    10    2
    11    11    12    2
    12    10    12    1
