@<TRIPOS>MOLECULE
/home/cewinharhar/GITHUB/reincatalyze/data/processed/docking_pred/2023_Apr_20-15:07/9545d038953ad0bd3b50a81295f717fe73892d7b_ligand_2.pdbqt
 12 12 0 0 0
SMALL
GASTEIGER

@<TRIPOS>ATOM
      1  C          8.4980   -0.6630   -2.1010 C.3     1  UNL1        0.1270
      2  C          8.5070   -1.9160   -2.8910 C.2     1  UNL1        0.3030
      3  O          9.5710   -2.5550   -3.0860 O.2     1  UNL1       -0.2520
      4  O          7.3380   -2.4190   -3.4390 O.3     1  UNL1       -0.4810
      5  H          6.9630   -1.9980   -4.2930 H       1  UNL1        0.2960
      6  C          7.1050   -0.1090   -2.1140 C.3     1  UNL1        0.0470
      7  C          6.5180    0.0530   -0.7850 C.2     1  UNL1       -0.0470
      8  C          6.6450   -0.9340    0.1650 C.2     1  UNL1        0.0040
      9  C          5.8340    1.2090   -0.4890 C.2     1  UNL1        0.0040
     10  C          6.0590   -0.7120    1.4130 C.2     1  UNL1        0.0000
     11  C          5.2550    1.4280    0.7450 C.2     1  UNL1        0.0000
     12  C          5.3770    0.4430    1.7020 C.2     1  UNL1        0.0000
@<TRIPOS>BOND
     1     5     4    1
     2     4     2    1
     3     3     2    2
     4     2     1    1
     5     6     1    1
     6     6     7    1
     7     7     9    2
     8     7     8    1
     9     9    11    1
    10     8    10    2
    11    11    12    2
    12    10    12    1
