@<TRIPOS>MOLECULE
/home/cewinharhar/GITHUB/reincatalyze/data/processed/docking_pred/2023_Apr_20-15:07/9545d038953ad0bd3b50a81295f717fe73892d7b_ligand_2.pdbqt
 12 12 0 0 0
SMALL
GASTEIGER

@<TRIPOS>ATOM
      1  C          8.3990   -0.5830   -2.1860 C.3     1  UNL1        0.1270
      2  C          8.4540   -1.8750   -2.9110 C.2     1  UNL1        0.3030
      3  O          9.5410   -2.4820   -3.0780 O.2     1  UNL1       -0.2520
      4  O          7.3030   -2.4490   -3.4270 O.3     1  UNL1       -0.4810
      5  H          6.8280   -1.9970   -4.2130 H       1  UNL1        0.2960
      6  C          6.9720   -0.1280   -2.1420 C.3     1  UNL1        0.0470
      7  C          6.4500    0.0610   -0.7900 C.2     1  UNL1       -0.0470
      8  C          5.8430    1.2420   -0.4300 C.2     1  UNL1        0.0040
      9  C          6.5680   -0.9590    0.1240 C.2     1  UNL1        0.0040
     10  C          5.3660    1.3530    0.8780 C.2     1  UNL1        0.0000
     11  C          6.0970   -0.8480    1.4170 C.2     1  UNL1        0.0000
     12  C          5.4880    0.3320    1.7870 C.2     1  UNL1        0.0000
@<TRIPOS>BOND
     1     5     4    1
     2     4     2    1
     3     3     2    2
     4     2     1    1
     5     1     6    1
     6     6     7    1
     7     7     8    2
     8     7     9    1
     9     8    10    1
    10     9    11    2
    11    10    12    2
    12    11    12    1
