@<TRIPOS>MOLECULE
/home/cewinharhar/GITHUB/reincatalyze/data/processed/docking_pred/2023_Apr_20-15:07/9545d038953ad0bd3b50a81295f717fe73892d7b_ligand_2.pdbqt
 12 12 0 0 0
SMALL
GASTEIGER

@<TRIPOS>ATOM
      1  C          8.4840    0.6950   -1.6570 C.3     1  UNL1        0.1270
      2  C          9.6360    0.2970   -0.8150 C.2     1  UNL1        0.3030
      3  O          9.4980   -0.5120    0.1360 O.2     1  UNL1       -0.2520
      4  O         10.9010    0.8080   -1.0550 O.3     1  UNL1       -0.4810
      5  H         11.2010    1.6550   -0.5640 H       1  UNL1        0.2960
      6  C          7.3280   -0.2000   -1.3280 C.3     1  UNL1        0.0470
      7  C          6.4260    0.3430   -0.3130 C.2     1  UNL1       -0.0470
      8  C          5.8100    1.5590   -0.4980 C.2     1  UNL1        0.0040
      9  C          6.1960   -0.3790    0.8350 C.2     1  UNL1        0.0040
     10  C          4.9610    2.0150    0.5120 C.2     1  UNL1        0.0000
     11  C          5.3560    0.0740    1.8330 C.2     1  UNL1        0.0000
     12  C          4.7350    1.2910    1.6560 C.2     1  UNL1        0.0000
@<TRIPOS>BOND
     1     1     6    1
     2     1     2    1
     3     6     7    1
     4     4     2    1
     5     4     5    1
     6     2     3    2
     7     8     7    2
     8     8    10    1
     9     7     9    1
    10    10    12    2
    11     9    11    2
    12    12    11    1
