@<TRIPOS>MOLECULE
/home/cewinharhar/GITHUB/reincatalyze/data/processed/docking_pred/2023_Apr_20-15:07/9545d038953ad0bd3b50a81295f717fe73892d7b_ligand_2.pdbqt
 12 12 0 0 0
SMALL
GASTEIGER

@<TRIPOS>ATOM
      1  C          5.0360    1.7410    0.6950 C.3     1  UNL1        0.1270
      2  C          4.5020    1.0910    1.9150 C.2     1  UNL1        0.3030
      3  O          5.1450    0.1890    2.5060 O.2     1  UNL1       -0.2520
      4  O          3.2740    1.4640    2.4380 O.3     1  UNL1       -0.4810
      5  H          2.5510    1.8260    1.8100 H       1  UNL1        0.2960
      6  C          6.5330    1.7180    0.7660 C.3     1  UNL1        0.0470
      7  C          7.1690    0.9910   -0.3320 C.2     1  UNL1       -0.0470
      8  C          8.4820    1.2290   -0.6650 C.2     1  UNL1        0.0040
      9  C          6.4380    0.0590   -1.0320 C.2     1  UNL1        0.0040
     10  C          9.0250    0.4970   -1.7240 C.2     1  UNL1        0.0000
     11  C          6.9760   -0.6630   -2.0790 C.2     1  UNL1        0.0000
     12  C          8.2910   -0.4300   -2.4190 C.2     1  UNL1        0.0000
@<TRIPOS>BOND
     1    12    11    2
     2    12    10    1
     3    11     9    1
     4    10     8    2
     5     9     7    2
     6     8     7    1
     7     7     6    1
     8     1     6    1
     9     1     2    1
    10     5     4    1
    11     2     4    1
    12     2     3    2
