@<TRIPOS>MOLECULE
/home/cewinharhar/GITHUB/reincatalyze/data/processed/docking_pred/2023_Apr_20-15:07/9545d038953ad0bd3b50a81295f717fe73892d7b_ligand_2.pdbqt
 12 12 0 0 0
SMALL
GASTEIGER

@<TRIPOS>ATOM
      1  C          5.3420    2.9230    0.1270 C.3     1  UNL1        0.1270
      2  C          6.2960    3.7800    0.8700 C.2     1  UNL1        0.3030
      3  O          6.8370    4.7740    0.3260 O.2     1  UNL1       -0.2520
      4  O          6.6170    3.5070    2.1890 O.3     1  UNL1       -0.4810
      5  H          6.8790    4.2770    2.8110 H       1  UNL1        0.2960
      6  C          5.2610    1.5980    0.8210 C.3     1  UNL1        0.0470
      7  C          6.0400    0.5410    0.1780 C.2     1  UNL1       -0.0470
      8  C          6.3150    0.5910   -1.1690 C.2     1  UNL1        0.0040
      9  C          6.5020   -0.5090    0.9360 C.2     1  UNL1        0.0040
     10  C          7.0660   -0.4520   -1.7170 C.2     1  UNL1        0.0000
     11  C          7.2440   -1.5390    0.3940 C.2     1  UNL1        0.0000
     12  C          7.5230   -1.4980   -0.9550 C.2     1  UNL1        0.0000
@<TRIPOS>BOND
     1    10     8    1
     2    10    12    2
     3     8     7    2
     4    12    11    1
     5     1     6    1
     6     1     2    1
     7     7     6    1
     8     7     9    1
     9     3     2    2
    10    11     9    2
    11     2     4    1
    12     4     5    1
