MODEL 1
REMARK VINA RESULT:      -7.4      0.000      0.000
REMARK SMILES O=C(O)CCc1ccccc1
REMARK SMILES IDX 4 1 2 2 1 3 3 4 5 6 6 7 7 8 11 9 8 10 10 11 9 12
REMARK H PARENT 3 5
REMARK Flexibility Score: inf
ROOT
ATOM      1  C   UNL     1       8.498  -0.663  -2.101  1.00  0.00     0.127 C 
ENDROOT
BRANCH   1   2
ATOM      2  C   UNL     1       8.507  -1.916  -2.891  1.00  0.00     0.303 C 
ATOM      3  O   UNL     1       9.571  -2.555  -3.086  1.00  0.00    -0.252 OA
BRANCH   2   4
ATOM      4  O   UNL     1       7.338  -2.419  -3.439  1.00  0.00    -0.481 OA
ATOM      5  H   UNL     1       6.963  -1.998  -4.293  1.00  0.00     0.296 HD
ENDBRANCH   2   4
ENDBRANCH   1   2
BRANCH   1   6
ATOM      6  C   UNL     1       7.105  -0.109  -2.114  1.00  0.00     0.047 C 
BRANCH   6   7
ATOM      7  C   UNL     1       6.518   0.053  -0.785  1.00  0.00    -0.047 A 
ATOM      8  C   UNL     1       6.645  -0.934   0.165  1.00  0.00     0.004 A 
ATOM      9  C   UNL     1       5.834   1.209  -0.489  1.00  0.00     0.004 A 
ATOM     10  C   UNL     1       6.059  -0.712   1.413  1.00  0.00     0.000 A 
ATOM     11  C   UNL     1       5.255   1.428   0.745  1.00  0.00     0.000 A 
ATOM     12  C   UNL     1       5.377   0.443   1.702  1.00  0.00     0.000 A 
ENDBRANCH   6   7
ENDBRANCH   1   6
TORSDOF 4
ENDMDL
MODEL 2
REMARK VINA RESULT:      -7.3      0.121      1.440
REMARK SMILES O=C(O)CCc1ccccc1
REMARK SMILES IDX 4 1 2 2 1 3 3 4 5 6 6 7 7 8 11 9 8 10 10 11 9 12
REMARK H PARENT 3 5
REMARK Flexibility Score: inf
ROOT
ATOM      1  C   UNL     1       8.399  -0.583  -2.186  1.00  0.00     0.127 C 
ENDROOT
BRANCH   1   2
ATOM      2  C   UNL     1       8.454  -1.875  -2.911  1.00  0.00     0.303 C 
ATOM      3  O   UNL     1       9.541  -2.482  -3.078  1.00  0.00    -0.252 OA
BRANCH   2   4
ATOM      4  O   UNL     1       7.303  -2.449  -3.427  1.00  0.00    -0.481 OA
ATOM      5  H   UNL     1       6.828  -1.997  -4.213  1.00  0.00     0.296 HD
ENDBRANCH   2   4
ENDBRANCH   1   2
BRANCH   1   6
ATOM      6  C   UNL     1       6.972  -0.128  -2.142  1.00  0.00     0.047 C 
BRANCH   6   7
ATOM      7  C   UNL     1       6.450   0.061  -0.790  1.00  0.00    -0.047 A 
ATOM      8  C   UNL     1       5.843   1.242  -0.430  1.00  0.00     0.004 A 
ATOM      9  C   UNL     1       6.568  -0.959   0.124  1.00  0.00     0.004 A 
ATOM     10  C   UNL     1       5.366   1.353   0.878  1.00  0.00     0.000 A 
ATOM     11  C   UNL     1       6.097  -0.848   1.417  1.00  0.00     0.000 A 
ATOM     12  C   UNL     1       5.488   0.332   1.787  1.00  0.00     0.000 A 
ENDBRANCH   6   7
ENDBRANCH   1   6
TORSDOF 4
ENDMDL
MODEL 3
REMARK VINA RESULT:      -6.8      3.375      5.082
REMARK SMILES O=C(O)CCc1ccccc1
REMARK SMILES IDX 4 1 2 2 1 3 3 4 5 6 6 7 7 8 11 9 8 10 10 11 9 12
REMARK H PARENT 3 5
REMARK Flexibility Score: inf
ROOT
ATOM      1  C   UNL     1       5.036   1.741   0.695  1.00  0.00     0.127 C 
ENDROOT
BRANCH   1   2
ATOM      2  C   UNL     1       4.502   1.091   1.915  1.00  0.00     0.303 C 
ATOM      3  O   UNL     1       5.145   0.189   2.506  1.00  0.00    -0.252 OA
BRANCH   2   4
ATOM      4  O   UNL     1       3.274   1.464   2.438  1.00  0.00    -0.481 OA
ATOM      5  H   UNL     1       2.551   1.826   1.810  1.00  0.00     0.296 HD
ENDBRANCH   2   4
ENDBRANCH   1   2
BRANCH   1   6
ATOM      6  C   UNL     1       6.533   1.718   0.766  1.00  0.00     0.047 C 
BRANCH   6   7
ATOM      7  C   UNL     1       7.169   0.991  -0.332  1.00  0.00    -0.047 A 
ATOM      8  C   UNL     1       8.482   1.229  -0.665  1.00  0.00     0.004 A 
ATOM      9  C   UNL     1       6.438   0.059  -1.032  1.00  0.00     0.004 A 
ATOM     10  C   UNL     1       9.025   0.497  -1.724  1.00  0.00     0.000 A 
ATOM     11  C   UNL     1       6.976  -0.663  -2.079  1.00  0.00     0.000 A 
ATOM     12  C   UNL     1       8.291  -0.430  -2.419  1.00  0.00     0.000 A 
ENDBRANCH   6   7
ENDBRANCH   1   6
TORSDOF 4
ENDMDL
MODEL 4
REMARK VINA RESULT:      -6.5      2.081      2.734
REMARK SMILES O=C(O)CCc1ccccc1
REMARK SMILES IDX 4 1 2 2 1 3 3 4 5 6 6 7 7 8 11 9 8 10 10 11 9 12
REMARK H PARENT 3 5
REMARK Flexibility Score: inf
ROOT
ATOM      1  C   UNL     1       8.484   0.695  -1.657  1.00  0.00     0.127 C 
ENDROOT
BRANCH   1   2
ATOM      2  C   UNL     1       9.636   0.297  -0.815  1.00  0.00     0.303 C 
ATOM      3  O   UNL     1       9.498  -0.512   0.136  1.00  0.00    -0.252 OA
BRANCH   2   4
ATOM      4  O   UNL     1      10.901   0.808  -1.055  1.00  0.00    -0.481 OA
ATOM      5  H   UNL     1      11.201   1.655  -0.564  1.00  0.00     0.296 HD
ENDBRANCH   2   4
ENDBRANCH   1   2
BRANCH   1   6
ATOM      6  C   UNL     1       7.328  -0.200  -1.328  1.00  0.00     0.047 C 
BRANCH   6   7
ATOM      7  C   UNL     1       6.426   0.343  -0.313  1.00  0.00    -0.047 A 
ATOM      8  C   UNL     1       5.810   1.559  -0.498  1.00  0.00     0.004 A 
ATOM      9  C   UNL     1       6.196  -0.379   0.835  1.00  0.00     0.004 A 
ATOM     10  C   UNL     1       4.961   2.015   0.512  1.00  0.00     0.000 A 
ATOM     11  C   UNL     1       5.356   0.074   1.833  1.00  0.00     0.000 A 
ATOM     12  C   UNL     1       4.735   1.291   1.656  1.00  0.00     0.000 A 
ENDBRANCH   6   7
ENDBRANCH   1   6
TORSDOF 4
ENDMDL
MODEL 5
REMARK VINA RESULT:      -6.5      3.708      5.086
REMARK SMILES O=C(O)CCc1ccccc1
REMARK SMILES IDX 4 1 2 2 1 3 3 4 5 6 6 7 7 8 11 9 8 10 10 11 9 12
REMARK H PARENT 3 5
REMARK Flexibility Score: inf
ROOT
ATOM      1  C   UNL     1       5.342   2.923   0.127  1.00  0.00     0.127 C 
ENDROOT
BRANCH   1   2
ATOM      2  C   UNL     1       6.296   3.780   0.870  1.00  0.00     0.303 C 
ATOM      3  O   UNL     1       6.837   4.774   0.326  1.00  0.00    -0.252 OA
BRANCH   2   4
ATOM      4  O   UNL     1       6.617   3.507   2.189  1.00  0.00    -0.481 OA
ATOM      5  H   UNL     1       6.879   4.277   2.811  1.00  0.00     0.296 HD
ENDBRANCH   2   4
ENDBRANCH   1   2
BRANCH   1   6
ATOM      6  C   UNL     1       5.261   1.598   0.821  1.00  0.00     0.047 C 
BRANCH   6   7
ATOM      7  C   UNL     1       6.040   0.541   0.178  1.00  0.00    -0.047 A 
ATOM      8  C   UNL     1       6.315   0.591  -1.169  1.00  0.00     0.004 A 
ATOM      9  C   UNL     1       6.502  -0.509   0.936  1.00  0.00     0.004 A 
ATOM     10  C   UNL     1       7.066  -0.452  -1.717  1.00  0.00     0.000 A 
ATOM     11  C   UNL     1       7.244  -1.539   0.394  1.00  0.00     0.000 A 
ATOM     12  C   UNL     1       7.523  -1.498  -0.955  1.00  0.00     0.000 A 
ENDBRANCH   6   7
ENDBRANCH   1   6
TORSDOF 4
ENDMDL
