MODEL 1
REMARK VINA RESULT:      -7.3      0.000      0.000
REMARK SMILES O=C(O)CCc1ccccc1
REMARK SMILES IDX 4 1 2 2 1 3 3 4 5 6 6 7 7 8 11 9 8 10 10 11 9 12
REMARK H PARENT 3 5
REMARK Flexibility Score: inf
ROOT
ATOM      1  C   UNL     1       8.499  -0.650  -2.110  1.00  0.00     0.127 C 
ENDROOT
BRANCH   1   2
ATOM      2  C   UNL     1       8.514  -1.907  -2.895  1.00  0.00     0.303 C 
ATOM      3  O   UNL     1       9.584  -2.528  -3.109  1.00  0.00    -0.252 OA
BRANCH   2   4
ATOM      4  O   UNL     1       7.342  -2.433  -3.415  1.00  0.00    -0.481 OA
ATOM      5  H   UNL     1       6.509  -2.483  -2.823  1.00  0.00     0.296 HD
ENDBRANCH   2   4
ENDBRANCH   1   2
BRANCH   1   6
ATOM      6  C   UNL     1       7.106  -0.100  -2.129  1.00  0.00     0.047 C 
BRANCH   6   7
ATOM      7  C   UNL     1       6.521   0.083  -0.802  1.00  0.00    -0.047 A 
ATOM      8  C   UNL     1       5.851   1.242  -0.482  1.00  0.00     0.004 A 
ATOM      9  C   UNL     1       6.644  -0.921   0.130  1.00  0.00     0.004 A 
ATOM     10  C   UNL     1       5.317   1.347   0.804  1.00  0.00     0.000 A 
ATOM     11  C   UNL     1       6.115  -0.815   1.402  1.00  0.00     0.000 A 
ATOM     12  C   UNL     1       5.444   0.343   1.731  1.00  0.00     0.000 A 
ENDBRANCH   6   7
ENDBRANCH   1   6
TORSDOF 4
ENDMDL
MODEL 2
REMARK VINA RESULT:      -7.2      0.114      1.731
REMARK SMILES O=C(O)CCc1ccccc1
REMARK SMILES IDX 4 1 2 2 1 3 3 4 5 6 6 7 7 8 11 9 8 10 10 11 9 12
REMARK H PARENT 3 5
REMARK Flexibility Score: inf
ROOT
ATOM      1  C   UNL     1       8.408  -0.569  -2.205  1.00  0.00     0.127 C 
ENDROOT
BRANCH   1   2
ATOM      2  C   UNL     1       8.395  -1.873  -2.910  1.00  0.00     0.303 C 
ATOM      3  O   UNL     1       7.315  -2.434  -3.220  1.00  0.00    -0.252 OA
BRANCH   2   4
ATOM      4  O   UNL     1       9.578  -2.509  -3.246  1.00  0.00    -0.481 OA
ATOM      5  H   UNL     1      10.426  -2.310  -2.708  1.00  0.00     0.296 HD
ENDBRANCH   2   4
ENDBRANCH   1   2
BRANCH   1   6
ATOM      6  C   UNL     1       7.000  -0.060  -2.130  1.00  0.00     0.047 C 
BRANCH   6   7
ATOM      7  C   UNL     1       6.480   0.051  -0.768  1.00  0.00    -0.047 A 
ATOM      8  C   UNL     1       6.612  -0.989   0.122  1.00  0.00     0.004 A 
ATOM      9  C   UNL     1       5.854   1.214  -0.382  1.00  0.00     0.004 A 
ATOM     10  C   UNL     1       6.092  -0.812   1.407  1.00  0.00     0.000 A 
ATOM     11  C   UNL     1       5.340   1.386   0.888  1.00  0.00     0.000 A 
ATOM     12  C   UNL     1       5.468   0.349   1.786  1.00  0.00     0.000 A 
ENDBRANCH   6   7
ENDBRANCH   1   6
TORSDOF 4
ENDMDL
MODEL 3
REMARK VINA RESULT:      -6.7      3.344      5.024
REMARK SMILES O=C(O)CCc1ccccc1
REMARK SMILES IDX 4 1 2 2 1 3 3 4 5 6 6 7 7 8 11 9 8 10 10 11 9 12
REMARK H PARENT 3 5
REMARK Flexibility Score: inf
ROOT
ATOM      1  C   UNL     1       5.058   1.698   0.689  1.00  0.00     0.127 C 
ENDROOT
BRANCH   1   2
ATOM      2  C   UNL     1       4.580   1.030   1.922  1.00  0.00     0.303 C 
ATOM      3  O   UNL     1       5.276   0.159   2.501  1.00  0.00    -0.252 OA
BRANCH   2   4
ATOM      4  O   UNL     1       3.349   1.349   2.471  1.00  0.00    -0.481 OA
ATOM      5  H   UNL     1       2.768   2.061   2.019  1.00  0.00     0.296 HD
ENDBRANCH   2   4
ENDBRANCH   1   2
BRANCH   1   6
ATOM      6  C   UNL     1       6.555   1.734   0.722  1.00  0.00     0.047 C 
BRANCH   6   7
ATOM      7  C   UNL     1       7.192   0.988  -0.362  1.00  0.00    -0.047 A 
ATOM      8  C   UNL     1       8.508   1.214  -0.692  1.00  0.00     0.004 A 
ATOM      9  C   UNL     1       6.460   0.050  -1.052  1.00  0.00     0.004 A 
ATOM     10  C   UNL     1       9.052   0.464  -1.737  1.00  0.00     0.000 A 
ATOM     11  C   UNL     1       6.999  -0.690  -2.085  1.00  0.00     0.000 A 
ATOM     12  C   UNL     1       8.316  -0.470  -2.423  1.00  0.00     0.000 A 
ENDBRANCH   6   7
ENDBRANCH   1   6
TORSDOF 4
ENDMDL
MODEL 4
REMARK VINA RESULT:      -6.6      1.963      2.643
REMARK SMILES O=C(O)CCc1ccccc1
REMARK SMILES IDX 4 1 2 2 1 3 3 4 5 6 6 7 7 8 11 9 8 10 10 11 9 12
REMARK H PARENT 3 5
REMARK Flexibility Score: inf
ROOT
ATOM      1  C   UNL     1       8.205   0.297  -2.060  1.00  0.00     0.127 C 
ENDROOT
BRANCH   1   2
ATOM      2  C   UNL     1       9.386   0.380  -1.169  1.00  0.00     0.303 C 
ATOM      3  O   UNL     1       9.504  -0.375  -0.172  1.00  0.00    -0.252 OA
BRANCH   2   4
ATOM      4  O   UNL     1      10.396   1.297  -1.413  1.00  0.00    -0.481 OA
ATOM      5  H   UNL     1      11.372   0.991  -1.365  1.00  0.00     0.296 HD
ENDBRANCH   2   4
ENDBRANCH   1   2
BRANCH   1   6
ATOM      6  C   UNL     1       7.182  -0.580  -1.405  1.00  0.00     0.047 C 
BRANCH   6   7
ATOM      7  C   UNL     1       6.388   0.096  -0.380  1.00  0.00    -0.047 A 
ATOM      8  C   UNL     1       6.201  -0.477   0.856  1.00  0.00     0.004 A 
ATOM      9  C   UNL     1       5.828   1.320  -0.664  1.00  0.00     0.004 A 
ATOM     10  C   UNL     1       5.432   0.226   1.787  1.00  0.00     0.000 A 
ATOM     11  C   UNL     1       5.068   2.013   0.257  1.00  0.00     0.000 A 
ATOM     12  C   UNL     1       4.875   1.446   1.498  1.00  0.00     0.000 A 
ENDBRANCH   6   7
ENDBRANCH   1   6
TORSDOF 4
ENDMDL
MODEL 5
REMARK VINA RESULT:      -6.5      2.015      2.770
REMARK SMILES O=C(O)CCc1ccccc1
REMARK SMILES IDX 4 1 2 2 1 3 3 4 5 6 6 7 7 8 11 9 8 10 10 11 9 12
REMARK H PARENT 3 5
REMARK Flexibility Score: inf
ROOT
ATOM      1  C   UNL     1       7.900  -2.300   0.889  1.00  0.00     0.127 C 
ENDROOT
BRANCH   1   2
ATOM      2  C   UNL     1       8.744  -3.396   0.356  1.00  0.00     0.303 C 
ATOM      3  O   UNL     1       9.646  -3.921   1.054  1.00  0.00    -0.252 OA
BRANCH   2   4
ATOM      4  O   UNL     1       8.558  -3.872  -0.932  1.00  0.00    -0.481 OA
ATOM      5  H   UNL     1       9.375  -4.047  -1.524  1.00  0.00     0.296 HD
ENDBRANCH   2   4
ENDBRANCH   1   2
BRANCH   1   6
ATOM      6  C   UNL     1       7.491  -1.422  -0.254  1.00  0.00     0.047 C 
BRANCH   6   7
ATOM      7  C   UNL     1       6.608  -0.322   0.128  1.00  0.00    -0.047 A 
ATOM      8  C   UNL     1       6.077  -0.253   1.395  1.00  0.00     0.004 A 
ATOM      9  C   UNL     1       6.313   0.654  -0.796  1.00  0.00     0.004 A 
ATOM     10  C   UNL     1       5.242   0.827   1.691  1.00  0.00     0.000 A 
ATOM     11  C   UNL     1       5.487   1.721  -0.502  1.00  0.00     0.000 A 
ATOM     12  C   UNL     1       4.950   1.796   0.765  1.00  0.00     0.000 A 
ENDBRANCH   6   7
ENDBRANCH   1   6
TORSDOF 4
ENDMDL
