@<TRIPOS>MOLECULE
/home/cewinharhar/GITHUB/reincatalyze/data/processed/docking_pred/2023_Apr_20-15:07/955e59fc22a1e87e2ab10a68f3a5c98643a236a4_ligand_2.pdbqt
 12 12 0 0 0
SMALL
GASTEIGER

@<TRIPOS>ATOM
      1  C          8.2050    0.2970   -2.0600 C.3     1  UNL1        0.1270
      2  C          9.3860    0.3800   -1.1690 C.2     1  UNL1        0.3030
      3  O          9.5040   -0.3750   -0.1720 O.2     1  UNL1       -0.2520
      4  O         10.3960    1.2970   -1.4130 O.3     1  UNL1       -0.4810
      5  H         11.3720    0.9910   -1.3650 H       1  UNL1        0.2960
      6  C          7.1820   -0.5800   -1.4050 C.3     1  UNL1        0.0470
      7  C          6.3880    0.0960   -0.3800 C.2     1  UNL1       -0.0470
      8  C          6.2010   -0.4770    0.8560 C.2     1  UNL1        0.0040
      9  C          5.8280    1.3200   -0.6640 C.2     1  UNL1        0.0040
     10  C          5.4320    0.2260    1.7870 C.2     1  UNL1        0.0000
     11  C          5.0680    2.0130    0.2570 C.2     1  UNL1        0.0000
     12  C          4.8750    1.4460    1.4980 C.2     1  UNL1        0.0000
@<TRIPOS>BOND
     1     1     6    1
     2     1     2    1
     3     4     5    1
     4     4     2    1
     5     6     7    1
     6     2     3    2
     7     9     7    2
     8     9    11    1
     9     7     8    1
    10    11    12    2
    11     8    10    2
    12    12    10    1
