@<TRIPOS>MOLECULE
/home/cewinharhar/GITHUB/reincatalyze/data/processed/docking_pred/2023_Apr_20-15:07/955e59fc22a1e87e2ab10a68f3a5c98643a236a4_ligand_2.pdbqt
 12 12 0 0 0
SMALL
GASTEIGER

@<TRIPOS>ATOM
      1  C          8.4990   -0.6500   -2.1100 C.3     1  UNL1        0.1270
      2  C          8.5140   -1.9070   -2.8950 C.2     1  UNL1        0.3030
      3  O          9.5840   -2.5280   -3.1090 O.2     1  UNL1       -0.2520
      4  O          7.3420   -2.4330   -3.4150 O.3     1  UNL1       -0.4810
      5  H          6.5090   -2.4830   -2.8230 H       1  UNL1        0.2960
      6  C          7.1060   -0.1000   -2.1290 C.3     1  UNL1        0.0470
      7  C          6.5210    0.0830   -0.8020 C.2     1  UNL1       -0.0470
      8  C          5.8510    1.2420   -0.4820 C.2     1  UNL1        0.0040
      9  C          6.6440   -0.9210    0.1300 C.2     1  UNL1        0.0040
     10  C          5.3170    1.3470    0.8040 C.2     1  UNL1        0.0000
     11  C          6.1150   -0.8150    1.4020 C.2     1  UNL1        0.0000
     12  C          5.4440    0.3430    1.7310 C.2     1  UNL1        0.0000
@<TRIPOS>BOND
     1     4     2    1
     2     4     5    1
     3     3     2    2
     4     2     1    1
     5     6     1    1
     6     6     7    1
     7     7     8    2
     8     7     9    1
     9     8    10    1
    10     9    11    2
    11    10    12    2
    12    11    12    1
