@<TRIPOS>MOLECULE
/home/cewinharhar/GITHUB/reincatalyze/data/processed/docking_pred/2023_Apr_20-15:07/955e59fc22a1e87e2ab10a68f3a5c98643a236a4_ligand_2.pdbqt
 12 12 0 0 0
SMALL
GASTEIGER

@<TRIPOS>ATOM
      1  C          8.4080   -0.5690   -2.2050 C.3     1  UNL1        0.1270
      2  C          8.3950   -1.8730   -2.9100 C.2     1  UNL1        0.3030
      3  O          7.3150   -2.4340   -3.2200 O.2     1  UNL1       -0.2520
      4  O          9.5780   -2.5090   -3.2460 O.3     1  UNL1       -0.4810
      5  H         10.4260   -2.3100   -2.7080 H       1  UNL1        0.2960
      6  C          7.0000   -0.0600   -2.1300 C.3     1  UNL1        0.0470
      7  C          6.4800    0.0510   -0.7680 C.2     1  UNL1       -0.0470
      8  C          6.6120   -0.9890    0.1220 C.2     1  UNL1        0.0040
      9  C          5.8540    1.2140   -0.3820 C.2     1  UNL1        0.0040
     10  C          6.0920   -0.8120    1.4070 C.2     1  UNL1        0.0000
     11  C          5.3400    1.3860    0.8880 C.2     1  UNL1        0.0000
     12  C          5.4680    0.3490    1.7860 C.2     1  UNL1        0.0000
@<TRIPOS>BOND
     1     4     2    1
     2     4     5    1
     3     3     2    2
     4     2     1    1
     5     1     6    1
     6     6     7    1
     7     7     9    2
     8     7     8    1
     9     9    11    1
    10     8    10    2
    11    11    12    2
    12    10    12    1
