@<TRIPOS>MOLECULE
/home/cewinharhar/GITHUB/reincatalyze/data/processed/docking_pred/2023_Apr_20-15:07/955e59fc22a1e87e2ab10a68f3a5c98643a236a4_ligand_2.pdbqt
 12 12 0 0 0
SMALL
GASTEIGER

@<TRIPOS>ATOM
      1  C          5.0580    1.6980    0.6890 C.3     1  UNL1        0.1270
      2  C          4.5800    1.0300    1.9220 C.2     1  UNL1        0.3030
      3  O          5.2760    0.1590    2.5010 O.2     1  UNL1       -0.2520
      4  O          3.3490    1.3490    2.4710 O.3     1  UNL1       -0.4810
      5  H          2.7680    2.0610    2.0190 H       1  UNL1        0.2960
      6  C          6.5550    1.7340    0.7220 C.3     1  UNL1        0.0470
      7  C          7.1920    0.9880   -0.3620 C.2     1  UNL1       -0.0470
      8  C          8.5080    1.2140   -0.6920 C.2     1  UNL1        0.0040
      9  C          6.4600    0.0500   -1.0520 C.2     1  UNL1        0.0040
     10  C          9.0520    0.4640   -1.7370 C.2     1  UNL1        0.0000
     11  C          6.9990   -0.6900   -2.0850 C.2     1  UNL1        0.0000
     12  C          8.3160   -0.4700   -2.4230 C.2     1  UNL1        0.0000
@<TRIPOS>BOND
     1    12    11    2
     2    12    10    1
     3    11     9    1
     4    10     8    2
     5     9     7    2
     6     8     7    1
     7     7     6    1
     8     1     6    1
     9     1     2    1
    10     2     4    1
    11     2     3    2
    12     5     4    1
