@<TRIPOS>MOLECULE
/home/cewinharhar/GITHUB/reincatalyze/data/processed/docking_pred/2023_Apr_20-15:07/955e59fc22a1e87e2ab10a68f3a5c98643a236a4_ligand_2.pdbqt
 12 12 0 0 0
SMALL
GASTEIGER

@<TRIPOS>ATOM
      1  C          7.9000   -2.3000    0.8890 C.3     1  UNL1        0.1270
      2  C          8.7440   -3.3960    0.3560 C.2     1  UNL1        0.3030
      3  O          9.6460   -3.9210    1.0540 O.2     1  UNL1       -0.2520
      4  O          8.5580   -3.8720   -0.9320 O.3     1  UNL1       -0.4810
      5  H          9.3750   -4.0470   -1.5240 H       1  UNL1        0.2960
      6  C          7.4910   -1.4220   -0.2540 C.3     1  UNL1        0.0470
      7  C          6.6080   -0.3220    0.1280 C.2     1  UNL1       -0.0470
      8  C          6.0770   -0.2530    1.3950 C.2     1  UNL1        0.0040
      9  C          6.3130    0.6540   -0.7960 C.2     1  UNL1        0.0040
     10  C          5.2420    0.8270    1.6910 C.2     1  UNL1        0.0000
     11  C          5.4870    1.7210   -0.5020 C.2     1  UNL1        0.0000
     12  C          4.9500    1.7960    0.7650 C.2     1  UNL1        0.0000
@<TRIPOS>BOND
     1     5     4    1
     2     4     2    1
     3     9    11    1
     4     9     7    2
     5    11    12    2
     6     6     7    1
     7     6     1    1
     8     7     8    1
     9     2     1    1
    10     2     3    2
    11    12    10    1
    12     8    10    2
