@<TRIPOS>MOLECULE
/home/cewinharhar/GITHUB/reincatalyze/data/processed/docking_pred/2023_Apr_20-15:07/97a603521aa4ec025b6db977763cb198737ffc85_ligand_2.pdbqt
 12 12 0 0 0
SMALL
GASTEIGER

@<TRIPOS>ATOM
      1  C          5.3850    2.9230    0.0180 C.3     1  UNL1        0.1270
      2  C          6.2060    3.8890    0.7860 C.2     1  UNL1        0.3030
      3  O          6.8820    4.7740    0.2060 O.2     1  UNL1       -0.2520
      4  O          6.2490    3.8410    2.1700 O.3     1  UNL1       -0.4810
      5  H          6.0520    2.9570    2.6470 H       1  UNL1        0.2960
      6  C          4.9370    1.8400    0.9510 C.3     1  UNL1        0.0470
      7  C          5.7240    0.6110    0.8570 C.2     1  UNL1       -0.0470
      8  C          5.8520   -0.2270    1.9400 C.2     1  UNL1        0.0040
      9  C          6.3380    0.2980   -0.3340 C.2     1  UNL1        0.0040
     10  C          6.6180   -1.3840    1.7770 C.2     1  UNL1        0.0000
     11  C          7.0960   -0.8460   -0.4920 C.2     1  UNL1        0.0000
     12  C          7.2290   -1.6910    0.5880 C.2     1  UNL1        0.0000
@<TRIPOS>BOND
     1    11     9    1
     2    11    12    2
     3     9     7    2
     4     1     2    1
     5     1     6    1
     6     3     2    2
     7    12    10    1
     8     2     4    1
     9     7     6    1
    10     7     8    1
    11    10     8    2
    12     4     5    1
