MODEL 1
REMARK VINA RESULT:      -7.2      0.000      0.000
REMARK SMILES O=C(O)CCc1ccccc1
REMARK SMILES IDX 4 1 2 2 1 3 3 4 5 6 6 7 7 8 11 9 8 10 10 11 9 12
REMARK H PARENT 3 5
REMARK Flexibility Score: inf
ROOT
ATOM      1  C   UNL     1       8.428  -0.595  -2.167  1.00  0.00     0.127 C 
ENDROOT
BRANCH   1   2
ATOM      2  C   UNL     1       8.473  -1.878  -2.909  1.00  0.00     0.303 C 
ATOM      3  O   UNL     1       9.557  -2.484  -3.095  1.00  0.00    -0.252 OA
BRANCH   2   4
ATOM      4  O   UNL     1       7.316  -2.444  -3.419  1.00  0.00    -0.481 OA
ATOM      5  H   UNL     1       7.331  -3.419  -3.731  1.00  0.00     0.296 HD
ENDBRANCH   2   4
ENDBRANCH   1   2
BRANCH   1   6
ATOM      6  C   UNL     1       7.006  -0.125  -2.127  1.00  0.00     0.047 C 
BRANCH   6   7
ATOM      7  C   UNL     1       6.476   0.053  -0.776  1.00  0.00    -0.047 A 
ATOM      8  C   UNL     1       5.862   1.228  -0.410  1.00  0.00     0.004 A 
ATOM      9  C   UNL     1       6.596  -0.974   0.132  1.00  0.00     0.004 A 
ATOM     10  C   UNL     1       5.379   1.328   0.897  1.00  0.00     0.000 A 
ATOM     11  C   UNL     1       6.118  -0.873   1.424  1.00  0.00     0.000 A 
ATOM     12  C   UNL     1       5.502   0.301   1.799  1.00  0.00     0.000 A 
ENDBRANCH   6   7
ENDBRANCH   1   6
TORSDOF 4
ENDMDL
MODEL 2
REMARK VINA RESULT:      -7.2      0.117      1.731
REMARK SMILES O=C(O)CCc1ccccc1
REMARK SMILES IDX 4 1 2 2 1 3 3 4 5 6 6 7 7 8 11 9 8 10 10 11 9 12
REMARK H PARENT 3 5
REMARK Flexibility Score: inf
ROOT
ATOM      1  C   UNL     1       8.426  -0.614  -2.126  1.00  0.00     0.127 C 
ENDROOT
BRANCH   1   2
ATOM      2  C   UNL     1       8.388  -1.886  -2.886  1.00  0.00     0.303 C 
ATOM      3  O   UNL     1       7.297  -2.407  -3.229  1.00  0.00    -0.252 OA
BRANCH   2   4
ATOM      4  O   UNL     1       9.558  -2.537  -3.240  1.00  0.00    -0.481 OA
ATOM      5  H   UNL     1       9.569  -3.131  -4.074  1.00  0.00     0.296 HD
ENDBRANCH   2   4
ENDBRANCH   1   2
BRANCH   1   6
ATOM      6  C   UNL     1       7.040  -0.045  -2.090  1.00  0.00     0.047 C 
BRANCH   6   7
ATOM      7  C   UNL     1       6.484   0.082  -0.744  1.00  0.00    -0.047 A 
ATOM      8  C   UNL     1       6.618  -0.936   0.171  1.00  0.00     0.004 A 
ATOM      9  C   UNL     1       5.823   1.238  -0.397  1.00  0.00     0.004 A 
ATOM     10  C   UNL     1       6.063  -0.745   1.439  1.00  0.00     0.000 A 
ATOM     11  C   UNL     1       5.275   1.425   0.856  1.00  0.00     0.000 A 
ATOM     12  C   UNL     1       5.404   0.409   1.779  1.00  0.00     0.000 A 
ENDBRANCH   6   7
ENDBRANCH   1   6
TORSDOF 4
ENDMDL
MODEL 3
REMARK VINA RESULT:      -6.7      3.344      5.014
REMARK SMILES O=C(O)CCc1ccccc1
REMARK SMILES IDX 4 1 2 2 1 3 3 4 5 6 6 7 7 8 11 9 8 10 10 11 9 12
REMARK H PARENT 3 5
REMARK Flexibility Score: inf
ROOT
ATOM      1  C   UNL     1       5.065   1.760   0.691  1.00  0.00     0.127 C 
ENDROOT
BRANCH   1   2
ATOM      2  C   UNL     1       4.602   1.064   1.914  1.00  0.00     0.303 C 
ATOM      3  O   UNL     1       5.316   0.199   2.481  1.00  0.00    -0.252 OA
BRANCH   2   4
ATOM      4  O   UNL     1       3.364   1.349   2.468  1.00  0.00    -0.481 OA
ATOM      5  H   UNL     1       3.317   1.882   3.341  1.00  0.00     0.296 HD
ENDBRANCH   2   4
ENDBRANCH   1   2
BRANCH   1   6
ATOM      6  C   UNL     1       6.563   1.794   0.707  1.00  0.00     0.047 C 
BRANCH   6   7
ATOM      7  C   UNL     1       7.187   1.026  -0.369  1.00  0.00    -0.047 A 
ATOM      8  C   UNL     1       8.515   1.205  -0.681  1.00  0.00     0.004 A 
ATOM      9  C   UNL     1       6.431   0.116  -1.070  1.00  0.00     0.004 A 
ATOM     10  C   UNL     1       9.045   0.436  -1.720  1.00  0.00     0.000 A 
ATOM     11  C   UNL     1       6.957  -0.642  -2.097  1.00  0.00     0.000 A 
ATOM     12  C   UNL     1       8.286  -0.469  -2.417  1.00  0.00     0.000 A 
ENDBRANCH   6   7
ENDBRANCH   1   6
TORSDOF 4
ENDMDL
MODEL 4
REMARK VINA RESULT:      -6.6      3.770      4.995
REMARK SMILES O=C(O)CCc1ccccc1
REMARK SMILES IDX 4 1 2 2 1 3 3 4 5 6 6 7 7 8 11 9 8 10 10 11 9 12
REMARK H PARENT 3 5
REMARK Flexibility Score: inf
ROOT
ATOM      1  C   UNL     1       5.385   2.923   0.018  1.00  0.00     0.127 C 
ENDROOT
BRANCH   1   2
ATOM      2  C   UNL     1       6.206   3.889   0.786  1.00  0.00     0.303 C 
ATOM      3  O   UNL     1       6.882   4.774   0.206  1.00  0.00    -0.252 OA
BRANCH   2   4
ATOM      4  O   UNL     1       6.249   3.841   2.170  1.00  0.00    -0.481 OA
ATOM      5  H   UNL     1       6.052   2.957   2.647  1.00  0.00     0.296 HD
ENDBRANCH   2   4
ENDBRANCH   1   2
BRANCH   1   6
ATOM      6  C   UNL     1       4.937   1.840   0.951  1.00  0.00     0.047 C 
BRANCH   6   7
ATOM      7  C   UNL     1       5.724   0.611   0.857  1.00  0.00    -0.047 A 
ATOM      8  C   UNL     1       5.852  -0.227   1.940  1.00  0.00     0.004 A 
ATOM      9  C   UNL     1       6.338   0.298  -0.334  1.00  0.00     0.004 A 
ATOM     10  C   UNL     1       6.618  -1.384   1.777  1.00  0.00     0.000 A 
ATOM     11  C   UNL     1       7.096  -0.846  -0.492  1.00  0.00     0.000 A 
ATOM     12  C   UNL     1       7.229  -1.691   0.588  1.00  0.00     0.000 A 
ENDBRANCH   6   7
ENDBRANCH   1   6
TORSDOF 4
ENDMDL
MODEL 5
REMARK VINA RESULT:      -6.5      2.008      2.771
REMARK SMILES O=C(O)CCc1ccccc1
REMARK SMILES IDX 4 1 2 2 1 3 3 4 5 6 6 7 7 8 11 9 8 10 10 11 9 12
REMARK H PARENT 3 5
REMARK Flexibility Score: inf
ROOT
ATOM      1  C   UNL     1       7.992  -2.206   0.879  1.00  0.00     0.127 C 
ENDROOT
BRANCH   1   2
ATOM      2  C   UNL     1       8.771  -3.346   0.341  1.00  0.00     0.303 C 
ATOM      3  O   UNL     1       9.648  -3.920   1.034  1.00  0.00    -0.252 OA
BRANCH   2   4
ATOM      4  O   UNL     1       8.553  -3.811  -0.946  1.00  0.00    -0.481 OA
ATOM      5  H   UNL     1       8.489  -3.141  -1.717  1.00  0.00     0.296 HD
ENDBRANCH   2   4
ENDBRANCH   1   2
BRANCH   1   6
ATOM      6  C   UNL     1       7.377  -1.471  -0.273  1.00  0.00     0.047 C 
BRANCH   6   7
ATOM      7  C   UNL     1       6.535  -0.344   0.123  1.00  0.00    -0.047 A 
ATOM      8  C   UNL     1       5.980  -0.288   1.380  1.00  0.00     0.004 A 
ATOM      9  C   UNL     1       6.301   0.669  -0.779  1.00  0.00     0.004 A 
ATOM     10  C   UNL     1       5.186   0.819   1.690  1.00  0.00     0.000 A 
ATOM     11  C   UNL     1       5.516   1.762  -0.471  1.00  0.00     0.000 A 
ATOM     12  C   UNL     1       4.956   1.825   0.787  1.00  0.00     0.000 A 
ENDBRANCH   6   7
ENDBRANCH   1   6
TORSDOF 4
ENDMDL
