@<TRIPOS>MOLECULE
/home/cewinharhar/GITHUB/reincatalyze/data/processed/docking_pred/2023_Apr_20-15:07/97a603521aa4ec025b6db977763cb198737ffc85_ligand_2.pdbqt
 12 12 0 0 0
SMALL
GASTEIGER

@<TRIPOS>ATOM
      1  C          5.0650    1.7600    0.6910 C.3     1  UNL1        0.1270
      2  C          4.6020    1.0640    1.9140 C.2     1  UNL1        0.3030
      3  O          5.3160    0.1990    2.4810 O.2     1  UNL1       -0.2520
      4  O          3.3640    1.3490    2.4680 O.3     1  UNL1       -0.4810
      5  H          3.3170    1.8820    3.3410 H       1  UNL1        0.2960
      6  C          6.5630    1.7940    0.7070 C.3     1  UNL1        0.0470
      7  C          7.1870    1.0260   -0.3690 C.2     1  UNL1       -0.0470
      8  C          8.5150    1.2050   -0.6810 C.2     1  UNL1        0.0040
      9  C          6.4310    0.1160   -1.0700 C.2     1  UNL1        0.0040
     10  C          9.0450    0.4360   -1.7200 C.2     1  UNL1        0.0000
     11  C          6.9570   -0.6420   -2.0970 C.2     1  UNL1        0.0000
     12  C          8.2860   -0.4690   -2.4170 C.2     1  UNL1        0.0000
@<TRIPOS>BOND
     1    12    11    2
     2    12    10    1
     3    11     9    1
     4    10     8    2
     5     9     7    2
     6     8     7    1
     7     7     6    1
     8     1     6    1
     9     1     2    1
    10     2     4    1
    11     2     3    2
    12     4     5    1
