@<TRIPOS>MOLECULE
/home/cewinharhar/GITHUB/reincatalyze/data/processed/docking_pred/2023_Apr_20-15:07/97a603521aa4ec025b6db977763cb198737ffc85_ligand_2.pdbqt
 12 12 0 0 0
SMALL
GASTEIGER

@<TRIPOS>ATOM
      1  C          8.4280   -0.5950   -2.1670 C.3     1  UNL1        0.1270
      2  C          8.4730   -1.8780   -2.9090 C.2     1  UNL1        0.3030
      3  O          9.5570   -2.4840   -3.0950 O.2     1  UNL1       -0.2520
      4  O          7.3160   -2.4440   -3.4190 O.3     1  UNL1       -0.4810
      5  H          7.3310   -3.4190   -3.7310 H       1  UNL1        0.2960
      6  C          7.0060   -0.1250   -2.1270 C.3     1  UNL1        0.0470
      7  C          6.4760    0.0530   -0.7760 C.2     1  UNL1       -0.0470
      8  C          5.8620    1.2280   -0.4100 C.2     1  UNL1        0.0040
      9  C          6.5960   -0.9740    0.1320 C.2     1  UNL1        0.0040
     10  C          5.3790    1.3280    0.8970 C.2     1  UNL1        0.0000
     11  C          6.1180   -0.8730    1.4240 C.2     1  UNL1        0.0000
     12  C          5.5020    0.3010    1.7990 C.2     1  UNL1        0.0000
@<TRIPOS>BOND
     1     5     4    1
     2     4     2    1
     3     3     2    2
     4     2     1    1
     5     1     6    1
     6     6     7    1
     7     7     8    2
     8     7     9    1
     9     8    10    1
    10     9    11    2
    11    10    12    2
    12    11    12    1
