@<TRIPOS>MOLECULE
/home/cewinharhar/GITHUB/reincatalyze/data/processed/docking_pred/2023_Apr_20-15:07/97a603521aa4ec025b6db977763cb198737ffc85_ligand_2.pdbqt
 12 12 0 0 0
SMALL
GASTEIGER

@<TRIPOS>ATOM
      1  C          7.9920   -2.2060    0.8790 C.3     1  UNL1        0.1270
      2  C          8.7710   -3.3460    0.3410 C.2     1  UNL1        0.3030
      3  O          9.6480   -3.9200    1.0340 O.2     1  UNL1       -0.2520
      4  O          8.5530   -3.8110   -0.9460 O.3     1  UNL1       -0.4810
      5  H          8.4890   -3.1410   -1.7170 H       1  UNL1        0.2960
      6  C          7.3770   -1.4710   -0.2730 C.3     1  UNL1        0.0470
      7  C          6.5350   -0.3440    0.1230 C.2     1  UNL1       -0.0470
      8  C          5.9800   -0.2880    1.3800 C.2     1  UNL1        0.0040
      9  C          6.3010    0.6690   -0.7790 C.2     1  UNL1        0.0040
     10  C          5.1860    0.8190    1.6900 C.2     1  UNL1        0.0000
     11  C          5.5160    1.7620   -0.4710 C.2     1  UNL1        0.0000
     12  C          4.9560    1.8250    0.7870 C.2     1  UNL1        0.0000
@<TRIPOS>BOND
     1     5     4    1
     2     4     2    1
     3     9    11    1
     4     9     7    2
     5    11    12    2
     6     6     7    1
     7     6     1    1
     8     7     8    1
     9     2     1    1
    10     2     3    2
    11    12    10    1
    12     8    10    2
