@<TRIPOS>MOLECULE
/home/cewinharhar/GITHUB/reincatalyze/data/processed/docking_pred/2023_Apr_20-15:07/97a603521aa4ec025b6db977763cb198737ffc85_ligand_2.pdbqt
 12 12 0 0 0
SMALL
GASTEIGER

@<TRIPOS>ATOM
      1  C          8.4260   -0.6140   -2.1260 C.3     1  UNL1        0.1270
      2  C          8.3880   -1.8860   -2.8860 C.2     1  UNL1        0.3030
      3  O          7.2970   -2.4070   -3.2290 O.2     1  UNL1       -0.2520
      4  O          9.5580   -2.5370   -3.2400 O.3     1  UNL1       -0.4810
      5  H          9.5690   -3.1310   -4.0740 H       1  UNL1        0.2960
      6  C          7.0400   -0.0450   -2.0900 C.3     1  UNL1        0.0470
      7  C          6.4840    0.0820   -0.7440 C.2     1  UNL1       -0.0470
      8  C          6.6180   -0.9360    0.1710 C.2     1  UNL1        0.0040
      9  C          5.8230    1.2380   -0.3970 C.2     1  UNL1        0.0040
     10  C          6.0630   -0.7450    1.4390 C.2     1  UNL1        0.0000
     11  C          5.2750    1.4250    0.8560 C.2     1  UNL1        0.0000
     12  C          5.4040    0.4090    1.7790 C.2     1  UNL1        0.0000
@<TRIPOS>BOND
     1     5     4    1
     2     4     2    1
     3     3     2    2
     4     2     1    1
     5     1     6    1
     6     6     7    1
     7     7     9    2
     8     7     8    1
     9     9    11    1
    10     8    10    2
    11    11    12    2
    12    10    12    1
