@<TRIPOS>MOLECULE
/home/cewinharhar/GITHUB/reincatalyze/data/processed/docking_pred/2023_Apr_20-15:07/97b80f67ae9ab19215981068b7c743dd8d1e9d0d_ligand_2.pdbqt
 12 12 0 0 0
SMALL
GASTEIGER

@<TRIPOS>ATOM
      1  C          8.2110    0.2830   -2.2410 C.3     1  UNL1        0.1270
      2  C          9.3400    0.3520   -1.2840 C.2     1  UNL1        0.3030
      3  O          9.4150   -0.4330   -0.3070 O.2     1  UNL1       -0.2520
      4  O         10.3480    1.2900   -1.4420 O.3     1  UNL1       -0.4810
      5  H         10.7620    1.4290   -2.3690 H       1  UNL1        0.2960
      6  C          7.0890   -0.4670   -1.5900 C.3     1  UNL1        0.0470
      7  C          6.3240    0.3240   -0.6280 C.2     1  UNL1       -0.0470
      8  C          6.1120   -0.1370    0.6510 C.2     1  UNL1        0.0040
      9  C          5.8150    1.5430   -1.0140 C.2     1  UNL1        0.0040
     10  C          5.3730    0.6720    1.5170 C.2     1  UNL1        0.0000
     11  C          5.0850    2.3410   -0.1570 C.2     1  UNL1        0.0000
     12  C          4.8680    1.8870    1.1260 C.2     1  UNL1        0.0000
@<TRIPOS>BOND
     1     5     4    1
     2     1     6    1
     3     1     2    1
     4     6     7    1
     5     4     2    1
     6     2     3    2
     7     9     7    2
     8     9    11    1
     9     7     8    1
    10    11    12    2
    11     8    10    2
    12    12    10    1
