@<TRIPOS>MOLECULE
/home/cewinharhar/GITHUB/reincatalyze/data/processed/docking_pred/2023_Apr_20-15:07/97b80f67ae9ab19215981068b7c743dd8d1e9d0d_ligand_2.pdbqt
 12 12 0 0 0
SMALL
GASTEIGER

@<TRIPOS>ATOM
      1  C          5.0020    1.7960    0.7100 C.3     1  UNL1        0.1270
      2  C          4.4850    1.1130    1.9190 C.2     1  UNL1        0.3030
      3  O          5.1400    0.2010    2.4820 O.2     1  UNL1       -0.2520
      4  O          3.2590    1.4620    2.4620 O.3     1  UNL1       -0.4810
      5  H          2.4090    1.3230    1.9090 H       1  UNL1        0.2960
      6  C          6.5000    1.7690    0.7590 C.3     1  UNL1        0.0470
      7  C          7.1160    1.0210   -0.3360 C.2     1  UNL1       -0.0470
      8  C          6.3840    0.1180   -1.0710 C.2     1  UNL1        0.0040
      9  C          8.4440    1.2310   -0.6280 C.2     1  UNL1        0.0040
     10  C          7.0370   -0.5600   -2.1020 C.2     1  UNL1        0.0000
     11  C          9.0880    0.5600   -1.6480 C.2     1  UNL1        0.0000
     12  C          8.3620   -0.3480   -2.3890 C.2     1  UNL1        0.0000
@<TRIPOS>BOND
     1    12    10    2
     2    12    11    1
     3    10     8    1
     4    11     9    2
     5     8     7    2
     6     9     7    1
     7     7     6    1
     8     1     6    1
     9     1     2    1
    10     5     4    1
    11     2     4    1
    12     2     3    2
