MODEL 1
REMARK VINA RESULT:      -7.4      0.000      0.000
REMARK SMILES O=C(O)CCc1ccccc1
REMARK SMILES IDX 4 1 2 2 1 3 3 4 5 6 6 7 7 8 11 9 8 10 10 11 9 12
REMARK H PARENT 3 5
REMARK Flexibility Score: inf
ROOT
ATOM      1  C   UNL     1       8.447  -0.582  -2.211  1.00  0.00     0.127 C 
ENDROOT
BRANCH   1   2
ATOM      2  C   UNL     1       8.487  -1.884  -2.919  1.00  0.00     0.303 C 
ATOM      3  O   UNL     1       9.569  -2.497  -3.092  1.00  0.00    -0.252 OA
BRANCH   2   4
ATOM      4  O   UNL     1       7.328  -2.460  -3.412  1.00  0.00    -0.481 OA
ATOM      5  H   UNL     1       6.821  -1.997  -4.172  1.00  0.00     0.296 HD
ENDBRANCH   2   4
ENDBRANCH   1   2
BRANCH   1   6
ATOM      6  C   UNL     1       7.024  -0.115  -2.166  1.00  0.00     0.047 C 
BRANCH   6   7
ATOM      7  C   UNL     1       6.492   0.039  -0.813  1.00  0.00    -0.047 A 
ATOM      8  C   UNL     1       6.625  -0.969   0.114  1.00  0.00     0.004 A 
ATOM      9  C   UNL     1       5.854   1.209  -0.472  1.00  0.00     0.004 A 
ATOM     10  C   UNL     1       6.093  -0.752   1.388  1.00  0.00     0.000 A 
ATOM     11  C   UNL     1       5.329   1.421   0.788  1.00  0.00     0.000 A 
ATOM     12  C   UNL     1       5.457   0.417   1.722  1.00  0.00     0.000 A 
ENDBRANCH   6   7
ENDBRANCH   1   6
TORSDOF 4
ENDMDL
MODEL 2
REMARK VINA RESULT:      -7.3      0.132      1.732
REMARK SMILES O=C(O)CCc1ccccc1
REMARK SMILES IDX 4 1 2 2 1 3 3 4 5 6 6 7 7 8 11 9 8 10 10 11 9 12
REMARK H PARENT 3 5
REMARK Flexibility Score: inf
ROOT
ATOM      1  C   UNL     1       8.404  -0.608  -2.124  1.00  0.00     0.127 C 
ENDROOT
BRANCH   1   2
ATOM      2  C   UNL     1       8.381  -1.878  -2.888  1.00  0.00     0.303 C 
ATOM      3  O   UNL     1       7.296  -2.412  -3.230  1.00  0.00    -0.252 OA
BRANCH   2   4
ATOM      4  O   UNL     1       9.559  -2.514  -3.246  1.00  0.00    -0.481 OA
ATOM      5  H   UNL     1       9.680  -3.506  -3.024  1.00  0.00     0.296 HD
ENDBRANCH   2   4
ENDBRANCH   1   2
BRANCH   1   6
ATOM      6  C   UNL     1       7.013  -0.053  -2.090  1.00  0.00     0.047 C 
BRANCH   6   7
ATOM      7  C   UNL     1       6.466   0.096  -0.743  1.00  0.00    -0.047 A 
ATOM      8  C   UNL     1       5.833   1.258  -0.365  1.00  0.00     0.004 A 
ATOM      9  C   UNL     1       6.587  -0.943   0.150  1.00  0.00     0.004 A 
ATOM     10  C   UNL     1       5.334   1.330   0.937  1.00  0.00     0.000 A 
ATOM     11  C   UNL     1       6.093  -0.870   1.438  1.00  0.00     0.000 A 
ATOM     12  C   UNL     1       5.459   0.291   1.824  1.00  0.00     0.000 A 
ENDBRANCH   6   7
ENDBRANCH   1   6
TORSDOF 4
ENDMDL
MODEL 3
REMARK VINA RESULT:      -6.8      3.378      5.063
REMARK SMILES O=C(O)CCc1ccccc1
REMARK SMILES IDX 4 1 2 2 1 3 3 4 5 6 6 7 7 8 11 9 8 10 10 11 9 12
REMARK H PARENT 3 5
REMARK Flexibility Score: inf
ROOT
ATOM      1  C   UNL     1       5.002   1.796   0.710  1.00  0.00     0.127 C 
ENDROOT
BRANCH   1   2
ATOM      2  C   UNL     1       4.485   1.113   1.919  1.00  0.00     0.303 C 
ATOM      3  O   UNL     1       5.140   0.201   2.482  1.00  0.00    -0.252 OA
BRANCH   2   4
ATOM      4  O   UNL     1       3.259   1.462   2.462  1.00  0.00    -0.481 OA
ATOM      5  H   UNL     1       2.409   1.323   1.909  1.00  0.00     0.296 HD
ENDBRANCH   2   4
ENDBRANCH   1   2
BRANCH   1   6
ATOM      6  C   UNL     1       6.500   1.769   0.759  1.00  0.00     0.047 C 
BRANCH   6   7
ATOM      7  C   UNL     1       7.116   1.021  -0.336  1.00  0.00    -0.047 A 
ATOM      8  C   UNL     1       6.384   0.118  -1.071  1.00  0.00     0.004 A 
ATOM      9  C   UNL     1       8.444   1.231  -0.628  1.00  0.00     0.004 A 
ATOM     10  C   UNL     1       7.037  -0.560  -2.102  1.00  0.00     0.000 A 
ATOM     11  C   UNL     1       9.088   0.560  -1.648  1.00  0.00     0.000 A 
ATOM     12  C   UNL     1       8.362  -0.348  -2.389  1.00  0.00     0.000 A 
ENDBRANCH   6   7
ENDBRANCH   1   6
TORSDOF 4
ENDMDL
MODEL 4
REMARK VINA RESULT:      -6.7      1.907      2.292
REMARK SMILES O=C(O)CCc1ccccc1
REMARK SMILES IDX 4 1 2 2 1 3 3 4 5 6 6 7 7 8 11 9 8 10 10 11 9 12
REMARK H PARENT 3 5
REMARK Flexibility Score: inf
ROOT
ATOM      1  C   UNL     1       8.211   0.283  -2.241  1.00  0.00     0.127 C 
ENDROOT
BRANCH   1   2
ATOM      2  C   UNL     1       9.340   0.352  -1.284  1.00  0.00     0.303 C 
ATOM      3  O   UNL     1       9.415  -0.433  -0.307  1.00  0.00    -0.252 OA
BRANCH   2   4
ATOM      4  O   UNL     1      10.348   1.290  -1.442  1.00  0.00    -0.481 OA
ATOM      5  H   UNL     1      10.762   1.429  -2.369  1.00  0.00     0.296 HD
ENDBRANCH   2   4
ENDBRANCH   1   2
BRANCH   1   6
ATOM      6  C   UNL     1       7.089  -0.467  -1.590  1.00  0.00     0.047 C 
BRANCH   6   7
ATOM      7  C   UNL     1       6.324   0.324  -0.628  1.00  0.00    -0.047 A 
ATOM      8  C   UNL     1       6.112  -0.137   0.651  1.00  0.00     0.004 A 
ATOM      9  C   UNL     1       5.815   1.543  -1.014  1.00  0.00     0.004 A 
ATOM     10  C   UNL     1       5.373   0.672   1.517  1.00  0.00     0.000 A 
ATOM     11  C   UNL     1       5.085   2.341  -0.157  1.00  0.00     0.000 A 
ATOM     12  C   UNL     1       4.868   1.887   1.126  1.00  0.00     0.000 A 
ENDBRANCH   6   7
ENDBRANCH   1   6
TORSDOF 4
ENDMDL
MODEL 5
REMARK VINA RESULT:      -6.5      3.693      4.937
REMARK SMILES O=C(O)CCc1ccccc1
REMARK SMILES IDX 4 1 2 2 1 3 3 4 5 6 6 7 7 8 11 9 8 10 10 11 9 12
REMARK H PARENT 3 5
REMARK Flexibility Score: inf
ROOT
ATOM      1  C   UNL     1       5.335   2.913   0.107  1.00  0.00     0.127 C 
ENDROOT
BRANCH   1   2
ATOM      2  C   UNL     1       6.271   3.791   0.847  1.00  0.00     0.303 C 
ATOM      3  O   UNL     1       6.819   4.775   0.290  1.00  0.00    -0.252 OA
BRANCH   2   4
ATOM      4  O   UNL     1       6.568   3.550   2.179  1.00  0.00    -0.481 OA
ATOM      5  H   UNL     1       6.958   2.643   2.449  1.00  0.00     0.296 HD
ENDBRANCH   2   4
ENDBRANCH   1   2
BRANCH   1   6
ATOM      6  C   UNL     1       5.252   1.601   0.826  1.00  0.00     0.047 C 
BRANCH   6   7
ATOM      7  C   UNL     1       6.029   0.531   0.203  1.00  0.00    -0.047 A 
ATOM      8  C   UNL     1       6.482  -0.534   0.947  1.00  0.00     0.004 A 
ATOM      9  C   UNL     1       6.303   0.597  -1.143  1.00  0.00     0.004 A 
ATOM     10  C   UNL     1       7.217  -1.521   0.286  1.00  0.00     0.000 A 
ATOM     11  C   UNL     1       7.031  -0.379  -1.795  1.00  0.00     0.000 A 
ATOM     12  C   UNL     1       7.489  -1.449  -1.057  1.00  0.00     0.000 A 
ENDBRANCH   6   7
ENDBRANCH   1   6
TORSDOF 4
ENDMDL
