@<TRIPOS>MOLECULE
/home/cewinharhar/GITHUB/reincatalyze/data/processed/docking_pred/2023_Apr_20-15:07/97b80f67ae9ab19215981068b7c743dd8d1e9d0d_ligand_2.pdbqt
 12 12 0 0 0
SMALL
GASTEIGER

@<TRIPOS>ATOM
      1  C          5.3350    2.9130    0.1070 C.3     1  UNL1        0.1270
      2  C          6.2710    3.7910    0.8470 C.2     1  UNL1        0.3030
      3  O          6.8190    4.7750    0.2900 O.2     1  UNL1       -0.2520
      4  O          6.5680    3.5500    2.1790 O.3     1  UNL1       -0.4810
      5  H          6.9580    2.6430    2.4490 H       1  UNL1        0.2960
      6  C          5.2520    1.6010    0.8260 C.3     1  UNL1        0.0470
      7  C          6.0290    0.5310    0.2030 C.2     1  UNL1       -0.0470
      8  C          6.4820   -0.5340    0.9470 C.2     1  UNL1        0.0040
      9  C          6.3030    0.5970   -1.1430 C.2     1  UNL1        0.0040
     10  C          7.2170   -1.5210    0.2860 C.2     1  UNL1        0.0000
     11  C          7.0310   -0.3790   -1.7950 C.2     1  UNL1        0.0000
     12  C          7.4890   -1.4490   -1.0570 C.2     1  UNL1        0.0000
@<TRIPOS>BOND
     1    11     9    1
     2    11    12    2
     3     9     7    2
     4    12    10    1
     5     1     6    1
     6     1     2    1
     7     7     6    1
     8     7     8    1
     9    10     8    2
    10     3     2    2
    11     2     4    1
    12     4     5    1
