@<TRIPOS>MOLECULE
/home/cewinharhar/GITHUB/reincatalyze/data/processed/docking_pred/2023_Apr_20-15:07/97b80f67ae9ab19215981068b7c743dd8d1e9d0d_ligand_2.pdbqt
 12 12 0 0 0
SMALL
GASTEIGER

@<TRIPOS>ATOM
      1  C          8.4470   -0.5820   -2.2110 C.3     1  UNL1        0.1270
      2  C          8.4870   -1.8840   -2.9190 C.2     1  UNL1        0.3030
      3  O          9.5690   -2.4970   -3.0920 O.2     1  UNL1       -0.2520
      4  O          7.3280   -2.4600   -3.4120 O.3     1  UNL1       -0.4810
      5  H          6.8210   -1.9970   -4.1720 H       1  UNL1        0.2960
      6  C          7.0240   -0.1150   -2.1660 C.3     1  UNL1        0.0470
      7  C          6.4920    0.0390   -0.8130 C.2     1  UNL1       -0.0470
      8  C          6.6250   -0.9690    0.1140 C.2     1  UNL1        0.0040
      9  C          5.8540    1.2090   -0.4720 C.2     1  UNL1        0.0040
     10  C          6.0930   -0.7520    1.3880 C.2     1  UNL1        0.0000
     11  C          5.3290    1.4210    0.7880 C.2     1  UNL1        0.0000
     12  C          5.4570    0.4170    1.7220 C.2     1  UNL1        0.0000
@<TRIPOS>BOND
     1     5     4    1
     2     4     2    1
     3     3     2    2
     4     2     1    1
     5     1     6    1
     6     6     7    1
     7     7     9    2
     8     7     8    1
     9     9    11    1
    10     8    10    2
    11    11    12    2
    12    10    12    1
