@<TRIPOS>MOLECULE
/home/cewinharhar/GITHUB/reincatalyze/data/processed/docking_pred/2023_Apr_20-15:07/97b80f67ae9ab19215981068b7c743dd8d1e9d0d_ligand_2.pdbqt
 12 12 0 0 0
SMALL
GASTEIGER

@<TRIPOS>ATOM
      1  C          8.4040   -0.6080   -2.1240 C.3     1  UNL1        0.1270
      2  C          8.3810   -1.8780   -2.8880 C.2     1  UNL1        0.3030
      3  O          7.2960   -2.4120   -3.2300 O.2     1  UNL1       -0.2520
      4  O          9.5590   -2.5140   -3.2460 O.3     1  UNL1       -0.4810
      5  H          9.6800   -3.5060   -3.0240 H       1  UNL1        0.2960
      6  C          7.0130   -0.0530   -2.0900 C.3     1  UNL1        0.0470
      7  C          6.4660    0.0960   -0.7430 C.2     1  UNL1       -0.0470
      8  C          5.8330    1.2580   -0.3650 C.2     1  UNL1        0.0040
      9  C          6.5870   -0.9430    0.1500 C.2     1  UNL1        0.0040
     10  C          5.3340    1.3300    0.9370 C.2     1  UNL1        0.0000
     11  C          6.0930   -0.8700    1.4380 C.2     1  UNL1        0.0000
     12  C          5.4590    0.2910    1.8240 C.2     1  UNL1        0.0000
@<TRIPOS>BOND
     1     4     5    1
     2     4     2    1
     3     3     2    2
     4     2     1    1
     5     1     6    1
     6     6     7    1
     7     7     8    2
     8     7     9    1
     9     8    10    1
    10     9    11    2
    11    10    12    2
    12    11    12    1
