@<TRIPOS>MOLECULE
/home/cewinharhar/GITHUB/reincatalyze/data/processed/docking_pred/2023_Apr_20-15:07/98720eda2f8b5e3d73e45599e80051818594e19a_ligand_2.pdbqt
 12 12 0 0 0
SMALL
GASTEIGER

@<TRIPOS>ATOM
      1  C          8.2550    0.1520   -2.1660 C.3     1  UNL1        0.1270
      2  C          9.3800    0.3230   -1.2170 C.2     1  UNL1        0.3030
      3  O          9.4810   -0.3930   -0.1900 O.2     1  UNL1       -0.2520
      4  O         10.3560    1.2810   -1.4380 O.3     1  UNL1       -0.4810
      5  H         11.3080    1.1150   -1.1010 H       1  UNL1        0.2960
      6  C          7.1630   -0.6020   -1.4700 C.3     1  UNL1        0.0470
      7  C          6.3710    0.2120   -0.5500 C.2     1  UNL1       -0.0470
      8  C          6.1310   -0.2110    0.7370 C.2     1  UNL1        0.0040
      9  C          5.8660    1.4160   -0.9840 C.2     1  UNL1        0.0040
     10  C          5.3680    0.6190    1.5610 C.2     1  UNL1        0.0000
     11  C          5.1100    2.2350   -0.1680 C.2     1  UNL1        0.0000
     12  C          4.8650    1.8170    1.1220 C.2     1  UNL1        0.0000
@<TRIPOS>BOND
     1     1     6    1
     2     1     2    1
     3     6     7    1
     4     4     2    1
     5     4     5    1
     6     2     3    2
     7     9     7    2
     8     9    11    1
     9     7     8    1
    10    11    12    2
    11     8    10    2
    12    12    10    1
