@<TRIPOS>MOLECULE
/home/cewinharhar/GITHUB/reincatalyze/data/processed/docking_pred/2023_Apr_20-15:07/98720eda2f8b5e3d73e45599e80051818594e19a_ligand_2.pdbqt
 12 12 0 0 0
SMALL
GASTEIGER

@<TRIPOS>ATOM
      1  C          8.4630   -0.6290   -2.1250 C.3     1  UNL1        0.1270
      2  C          8.4890   -1.8990   -2.8880 C.2     1  UNL1        0.3030
      3  O          9.5630   -2.5220   -3.0780 O.2     1  UNL1       -0.2520
      4  O          7.3250   -2.4350   -3.4150 O.3     1  UNL1       -0.4810
      5  H          7.1030   -3.4190   -3.2420 H       1  UNL1        0.2960
      6  C          7.0540   -0.1180   -2.1100 C.3     1  UNL1        0.0470
      7  C          6.4920    0.0360   -0.7690 C.2     1  UNL1       -0.0470
      8  C          6.6050   -0.9720    0.1600 C.2     1  UNL1        0.0040
      9  C          5.8450    1.2050   -0.4420 C.2     1  UNL1        0.0040
     10  C          6.0440   -0.7560    1.4210 C.2     1  UNL1        0.0000
     11  C          5.2920    1.4170    0.8050 C.2     1  UNL1        0.0000
     12  C          5.4000    0.4120    1.7420 C.2     1  UNL1        0.0000
@<TRIPOS>BOND
     1     4     5    1
     2     4     2    1
     3     3     2    2
     4     2     1    1
     5     1     6    1
     6     6     7    1
     7     7     9    2
     8     7     8    1
     9     9    11    1
    10     8    10    2
    11    11    12    2
    12    10    12    1
