@<TRIPOS>MOLECULE
/home/cewinharhar/GITHUB/reincatalyze/data/processed/docking_pred/2023_Apr_20-15:07/98720eda2f8b5e3d73e45599e80051818594e19a_ligand_2.pdbqt
 12 12 0 0 0
SMALL
GASTEIGER

@<TRIPOS>ATOM
      1  C          8.3150   -0.9730   -1.7510 C.3     1  UNL1        0.1270
      2  C          8.4460   -2.0020   -2.8100 C.2     1  UNL1        0.3030
      3  O          9.5690   -2.4530   -3.1440 O.2     1  UNL1       -0.2520
      4  O          7.3280   -2.4940   -3.4640 O.3     1  UNL1       -0.4810
      5  H          6.4190   -2.4670   -2.9930 H       1  UNL1        0.2960
      6  C          7.2930   -1.4440   -0.7620 C.3     1  UNL1        0.0470
      7  C          6.5150   -0.3660   -0.1530 C.2     1  UNL1       -0.0470
      8  C          6.0980   -0.4520    1.1550 C.2     1  UNL1        0.0040
      9  C          6.2020    0.7430   -0.9050 C.2     1  UNL1        0.0040
     10  C          5.3600    0.6150    1.6710 C.2     1  UNL1        0.0000
     11  C          5.4710    1.7970   -0.3930 C.2     1  UNL1        0.0000
     12  C          5.0490    1.7190    0.9170 C.2     1  UNL1        0.0000
@<TRIPOS>BOND
     1     4     5    1
     2     4     2    1
     3     3     2    2
     4     2     1    1
     5     1     6    1
     6     9    11    1
     7     9     7    2
     8     6     7    1
     9    11    12    2
    10     7     8    1
    11    12    10    1
    12     8    10    2
