@<TRIPOS>MOLECULE
/home/cewinharhar/GITHUB/reincatalyze/data/processed/docking_pred/2023_Apr_20-15:07/98720eda2f8b5e3d73e45599e80051818594e19a_ligand_2.pdbqt
 12 12 0 0 0
SMALL
GASTEIGER

@<TRIPOS>ATOM
      1  C          5.0220    1.7310    0.6710 C.3     1  UNL1        0.1270
      2  C          4.5080    1.0910    1.9050 C.2     1  UNL1        0.3030
      3  O          5.1640    0.2000    2.4980 O.2     1  UNL1       -0.2520
      4  O          3.2840    1.4610    2.4390 O.3     1  UNL1       -0.4810
      5  H          2.9110    2.3930    2.2380 H       1  UNL1        0.2960
      6  C          6.5190    1.7420    0.7360 C.3     1  UNL1        0.0470
      7  C          7.1660    1.0010   -0.3460 C.2     1  UNL1       -0.0470
      8  C          8.4860    1.2260   -0.6610 C.2     1  UNL1        0.0040
      9  C          6.4400    0.0690   -1.0500 C.2     1  UNL1        0.0040
     10  C          9.0400    0.4820   -1.7050 C.2     1  UNL1        0.0000
     11  C          6.9880   -0.6660   -2.0820 C.2     1  UNL1        0.0000
     12  C          8.3100   -0.4460   -2.4040 C.2     1  UNL1        0.0000
@<TRIPOS>BOND
     1    12    11    2
     2    12    10    1
     3    11     9    1
     4    10     8    2
     5     9     7    2
     6     8     7    1
     7     7     6    1
     8     1     6    1
     9     1     2    1
    10     2     4    1
    11     2     3    2
    12     5     4    1
