@<TRIPOS>MOLECULE
/home/cewinharhar/GITHUB/reincatalyze/data/processed/docking_pred/2023_Apr_20-15:07/98720eda2f8b5e3d73e45599e80051818594e19a_ligand_2.pdbqt
 12 12 0 0 0
SMALL
GASTEIGER

@<TRIPOS>ATOM
      1  C          5.3840    2.9390    0.0250 C.3     1  UNL1        0.1270
      2  C          6.2060    3.8940    0.8050 C.2     1  UNL1        0.3030
      3  O          6.8970    4.7740    0.2350 O.2     1  UNL1       -0.2520
      4  O          6.2340    3.8420    2.1900 O.3     1  UNL1       -0.4810
      5  H          6.8300    4.4950    2.7040 H       1  UNL1        0.2960
      6  C          4.9020    1.8660    0.9530 C.3     1  UNL1        0.0470
      7  C          5.6940    0.6390    0.9060 C.2     1  UNL1       -0.0470
      8  C          5.8020   -0.1730    2.0110 C.2     1  UNL1        0.0040
      9  C          6.3350    0.2980   -0.2630 C.2     1  UNL1        0.0040
     10  C          6.5750   -1.3300    1.8940 C.2     1  UNL1        0.0000
     11  C          7.0990   -0.8460   -0.3780 C.2     1  UNL1        0.0000
     12  C          7.2120   -1.6640    0.7260 C.2     1  UNL1        0.0000
@<TRIPOS>BOND
     1    11     9    1
     2    11    12    2
     3     9     7    2
     4     1     2    1
     5     1     6    1
     6     3     2    2
     7    12    10    1
     8     2     4    1
     9     7     6    1
    10     7     8    1
    11    10     8    2
    12     4     5    1
