MODEL 1
REMARK VINA RESULT:      -7.4      0.000      0.000
REMARK SMILES O=C(O)CCc1ccccc1
REMARK SMILES IDX 4 1 2 2 1 3 3 4 5 6 6 7 7 8 11 9 8 10 10 11 9 12
REMARK H PARENT 3 5
REMARK Flexibility Score: inf
ROOT
ATOM      1  C   UNL     1       8.463  -0.629  -2.125  1.00  0.00     0.127 C 
ENDROOT
BRANCH   1   2
ATOM      2  C   UNL     1       8.489  -1.899  -2.888  1.00  0.00     0.303 C 
ATOM      3  O   UNL     1       9.563  -2.522  -3.078  1.00  0.00    -0.252 OA
BRANCH   2   4
ATOM      4  O   UNL     1       7.325  -2.435  -3.415  1.00  0.00    -0.481 OA
ATOM      5  H   UNL     1       7.103  -3.419  -3.242  1.00  0.00     0.296 HD
ENDBRANCH   2   4
ENDBRANCH   1   2
BRANCH   1   6
ATOM      6  C   UNL     1       7.054  -0.118  -2.110  1.00  0.00     0.047 C 
BRANCH   6   7
ATOM      7  C   UNL     1       6.492   0.036  -0.769  1.00  0.00    -0.047 A 
ATOM      8  C   UNL     1       6.605  -0.972   0.160  1.00  0.00     0.004 A 
ATOM      9  C   UNL     1       5.845   1.205  -0.442  1.00  0.00     0.004 A 
ATOM     10  C   UNL     1       6.044  -0.756   1.421  1.00  0.00     0.000 A 
ATOM     11  C   UNL     1       5.292   1.417   0.805  1.00  0.00     0.000 A 
ATOM     12  C   UNL     1       5.400   0.412   1.742  1.00  0.00     0.000 A 
ENDBRANCH   6   7
ENDBRANCH   1   6
TORSDOF 4
ENDMDL
MODEL 2
REMARK VINA RESULT:      -7.2      0.650      1.091
REMARK SMILES O=C(O)CCc1ccccc1
REMARK SMILES IDX 4 1 2 2 1 3 3 4 5 6 6 7 7 8 11 9 8 10 10 11 9 12
REMARK H PARENT 3 5
REMARK Flexibility Score: inf
ROOT
ATOM      1  C   UNL     1       8.315  -0.973  -1.751  1.00  0.00     0.127 C 
ENDROOT
BRANCH   1   2
ATOM      2  C   UNL     1       8.446  -2.002  -2.810  1.00  0.00     0.303 C 
ATOM      3  O   UNL     1       9.569  -2.453  -3.144  1.00  0.00    -0.252 OA
BRANCH   2   4
ATOM      4  O   UNL     1       7.328  -2.494  -3.464  1.00  0.00    -0.481 OA
ATOM      5  H   UNL     1       6.419  -2.467  -2.993  1.00  0.00     0.296 HD
ENDBRANCH   2   4
ENDBRANCH   1   2
BRANCH   1   6
ATOM      6  C   UNL     1       7.293  -1.444  -0.762  1.00  0.00     0.047 C 
BRANCH   6   7
ATOM      7  C   UNL     1       6.515  -0.366  -0.153  1.00  0.00    -0.047 A 
ATOM      8  C   UNL     1       6.098  -0.452   1.155  1.00  0.00     0.004 A 
ATOM      9  C   UNL     1       6.202   0.743  -0.905  1.00  0.00     0.004 A 
ATOM     10  C   UNL     1       5.360   0.615   1.671  1.00  0.00     0.000 A 
ATOM     11  C   UNL     1       5.471   1.797  -0.393  1.00  0.00     0.000 A 
ATOM     12  C   UNL     1       5.049   1.719   0.917  1.00  0.00     0.000 A 
ENDBRANCH   6   7
ENDBRANCH   1   6
TORSDOF 4
ENDMDL
MODEL 3
REMARK VINA RESULT:      -6.8      3.367      5.075
REMARK SMILES O=C(O)CCc1ccccc1
REMARK SMILES IDX 4 1 2 2 1 3 3 4 5 6 6 7 7 8 11 9 8 10 10 11 9 12
REMARK H PARENT 3 5
REMARK Flexibility Score: inf
ROOT
ATOM      1  C   UNL     1       5.022   1.731   0.671  1.00  0.00     0.127 C 
ENDROOT
BRANCH   1   2
ATOM      2  C   UNL     1       4.508   1.091   1.905  1.00  0.00     0.303 C 
ATOM      3  O   UNL     1       5.164   0.200   2.498  1.00  0.00    -0.252 OA
BRANCH   2   4
ATOM      4  O   UNL     1       3.284   1.461   2.439  1.00  0.00    -0.481 OA
ATOM      5  H   UNL     1       2.911   2.393   2.238  1.00  0.00     0.296 HD
ENDBRANCH   2   4
ENDBRANCH   1   2
BRANCH   1   6
ATOM      6  C   UNL     1       6.519   1.742   0.736  1.00  0.00     0.047 C 
BRANCH   6   7
ATOM      7  C   UNL     1       7.166   1.001  -0.346  1.00  0.00    -0.047 A 
ATOM      8  C   UNL     1       8.486   1.226  -0.661  1.00  0.00     0.004 A 
ATOM      9  C   UNL     1       6.440   0.069  -1.050  1.00  0.00     0.004 A 
ATOM     10  C   UNL     1       9.040   0.482  -1.705  1.00  0.00     0.000 A 
ATOM     11  C   UNL     1       6.988  -0.666  -2.082  1.00  0.00     0.000 A 
ATOM     12  C   UNL     1       8.310  -0.446  -2.404  1.00  0.00     0.000 A 
ENDBRANCH   6   7
ENDBRANCH   1   6
TORSDOF 4
ENDMDL
MODEL 4
REMARK VINA RESULT:      -6.7      3.794      4.948
REMARK SMILES O=C(O)CCc1ccccc1
REMARK SMILES IDX 4 1 2 2 1 3 3 4 5 6 6 7 7 8 11 9 8 10 10 11 9 12
REMARK H PARENT 3 5
REMARK Flexibility Score: inf
ROOT
ATOM      1  C   UNL     1       5.384   2.939   0.025  1.00  0.00     0.127 C 
ENDROOT
BRANCH   1   2
ATOM      2  C   UNL     1       6.206   3.894   0.805  1.00  0.00     0.303 C 
ATOM      3  O   UNL     1       6.897   4.774   0.235  1.00  0.00    -0.252 OA
BRANCH   2   4
ATOM      4  O   UNL     1       6.234   3.842   2.190  1.00  0.00    -0.481 OA
ATOM      5  H   UNL     1       6.830   4.495   2.704  1.00  0.00     0.296 HD
ENDBRANCH   2   4
ENDBRANCH   1   2
BRANCH   1   6
ATOM      6  C   UNL     1       4.902   1.866   0.953  1.00  0.00     0.047 C 
BRANCH   6   7
ATOM      7  C   UNL     1       5.694   0.639   0.906  1.00  0.00    -0.047 A 
ATOM      8  C   UNL     1       5.802  -0.173   2.011  1.00  0.00     0.004 A 
ATOM      9  C   UNL     1       6.335   0.298  -0.263  1.00  0.00     0.004 A 
ATOM     10  C   UNL     1       6.575  -1.330   1.894  1.00  0.00     0.000 A 
ATOM     11  C   UNL     1       7.099  -0.846  -0.378  1.00  0.00     0.000 A 
ATOM     12  C   UNL     1       7.212  -1.664   0.726  1.00  0.00     0.000 A 
ENDBRANCH   6   7
ENDBRANCH   1   6
TORSDOF 4
ENDMDL
MODEL 5
REMARK VINA RESULT:      -6.7      1.932      2.293
REMARK SMILES O=C(O)CCc1ccccc1
REMARK SMILES IDX 4 1 2 2 1 3 3 4 5 6 6 7 7 8 11 9 8 10 10 11 9 12
REMARK H PARENT 3 5
REMARK Flexibility Score: inf
ROOT
ATOM      1  C   UNL     1       8.255   0.152  -2.166  1.00  0.00     0.127 C 
ENDROOT
BRANCH   1   2
ATOM      2  C   UNL     1       9.380   0.323  -1.217  1.00  0.00     0.303 C 
ATOM      3  O   UNL     1       9.481  -0.393  -0.190  1.00  0.00    -0.252 OA
BRANCH   2   4
ATOM      4  O   UNL     1      10.356   1.281  -1.438  1.00  0.00    -0.481 OA
ATOM      5  H   UNL     1      11.308   1.115  -1.101  1.00  0.00     0.296 HD
ENDBRANCH   2   4
ENDBRANCH   1   2
BRANCH   1   6
ATOM      6  C   UNL     1       7.163  -0.602  -1.470  1.00  0.00     0.047 C 
BRANCH   6   7
ATOM      7  C   UNL     1       6.371   0.212  -0.550  1.00  0.00    -0.047 A 
ATOM      8  C   UNL     1       6.131  -0.211   0.737  1.00  0.00     0.004 A 
ATOM      9  C   UNL     1       5.866   1.416  -0.984  1.00  0.00     0.004 A 
ATOM     10  C   UNL     1       5.368   0.619   1.561  1.00  0.00     0.000 A 
ATOM     11  C   UNL     1       5.110   2.235  -0.168  1.00  0.00     0.000 A 
ATOM     12  C   UNL     1       4.865   1.817   1.122  1.00  0.00     0.000 A 
ENDBRANCH   6   7
ENDBRANCH   1   6
TORSDOF 4
ENDMDL
