@<TRIPOS>MOLECULE
/home/cewinharhar/GITHUB/reincatalyze/data/processed/docking_pred/2023_Apr_20-15:07/98ce2146f260201d1ebb2f82702d5d512d51d1e1_ligand_2.pdbqt
 12 12 0 0 0
SMALL
GASTEIGER

@<TRIPOS>ATOM
      1  C          8.4180   -0.5890   -2.1790 C.3     1  UNL1        0.1270
      2  C          8.4630   -1.8740   -2.9150 C.2     1  UNL1        0.3030
      3  O          9.5430   -2.4910   -3.0830 O.2     1  UNL1       -0.2520
      4  O          7.3080   -2.4320   -3.4400 O.3     1  UNL1       -0.4810
      5  H          6.6490   -1.8340   -3.9470 H       1  UNL1        0.2960
      6  C          6.9950   -0.1240   -2.1270 C.3     1  UNL1        0.0470
      7  C          6.4710    0.0370   -0.7720 C.2     1  UNL1       -0.0470
      8  C          5.8590    1.2080   -0.3890 C.2     1  UNL1        0.0040
      9  C          6.5920   -1.0010    0.1230 C.2     1  UNL1        0.0040
     10  C          5.3810    1.2920    0.9200 C.2     1  UNL1        0.0000
     11  C          6.1190   -0.9160    1.4170 C.2     1  UNL1        0.0000
     12  C          5.5060    0.2540    1.8090 C.2     1  UNL1        0.0000
@<TRIPOS>BOND
     1     5     4    1
     2     4     2    1
     3     3     2    2
     4     2     1    1
     5     1     6    1
     6     6     7    1
     7     7     8    2
     8     7     9    1
     9     8    10    1
    10     9    11    2
    11    10    12    2
    12    11    12    1
