MODEL 1
REMARK VINA RESULT:      -7.3      0.000      0.000
REMARK SMILES O=C(O)CCc1ccccc1
REMARK SMILES IDX 4 1 2 2 1 3 3 4 5 6 6 7 7 8 11 9 8 10 10 11 9 12
REMARK H PARENT 3 5
REMARK Flexibility Score: inf
ROOT
ATOM      1  C   UNL     1       8.418  -0.589  -2.179  1.00  0.00     0.127 C 
ENDROOT
BRANCH   1   2
ATOM      2  C   UNL     1       8.463  -1.874  -2.915  1.00  0.00     0.303 C 
ATOM      3  O   UNL     1       9.543  -2.491  -3.083  1.00  0.00    -0.252 OA
BRANCH   2   4
ATOM      4  O   UNL     1       7.308  -2.432  -3.440  1.00  0.00    -0.481 OA
ATOM      5  H   UNL     1       6.649  -1.834  -3.947  1.00  0.00     0.296 HD
ENDBRANCH   2   4
ENDBRANCH   1   2
BRANCH   1   6
ATOM      6  C   UNL     1       6.995  -0.124  -2.127  1.00  0.00     0.047 C 
BRANCH   6   7
ATOM      7  C   UNL     1       6.471   0.037  -0.772  1.00  0.00    -0.047 A 
ATOM      8  C   UNL     1       5.859   1.208  -0.389  1.00  0.00     0.004 A 
ATOM      9  C   UNL     1       6.592  -1.001   0.123  1.00  0.00     0.004 A 
ATOM     10  C   UNL     1       5.381   1.292   0.920  1.00  0.00     0.000 A 
ATOM     11  C   UNL     1       6.119  -0.916   1.417  1.00  0.00     0.000 A 
ATOM     12  C   UNL     1       5.506   0.254   1.809  1.00  0.00     0.000 A 
ENDBRANCH   6   7
ENDBRANCH   1   6
TORSDOF 4
ENDMDL
MODEL 2
REMARK VINA RESULT:      -7.3      0.170      1.733
REMARK SMILES O=C(O)CCc1ccccc1
REMARK SMILES IDX 4 1 2 2 1 3 3 4 5 6 6 7 7 8 11 9 8 10 10 11 9 12
REMARK H PARENT 3 5
REMARK Flexibility Score: inf
ROOT
ATOM      1  C   UNL     1       8.471  -0.623  -2.126  1.00  0.00     0.127 C 
ENDROOT
BRANCH   1   2
ATOM      2  C   UNL     1       8.397  -1.894  -2.885  1.00  0.00     0.303 C 
ATOM      3  O   UNL     1       7.292  -2.397  -3.205  1.00  0.00    -0.252 OA
BRANCH   2   4
ATOM      4  O   UNL     1       9.550  -2.563  -3.263  1.00  0.00    -0.481 OA
ATOM      5  H   UNL     1       9.833  -3.402  -2.750  1.00  0.00     0.296 HD
ENDBRANCH   2   4
ENDBRANCH   1   2
BRANCH   1   6
ATOM      6  C   UNL     1       7.107  -0.003  -2.113  1.00  0.00     0.047 C 
BRANCH   6   7
ATOM      7  C   UNL     1       6.520   0.117  -0.780  1.00  0.00    -0.047 A 
ATOM      8  C   UNL     1       6.654  -0.897   0.141  1.00  0.00     0.004 A 
ATOM      9  C   UNL     1       5.830   1.260  -0.450  1.00  0.00     0.004 A 
ATOM     10  C   UNL     1       6.069  -0.714   1.396  1.00  0.00     0.000 A 
ATOM     11  C   UNL     1       5.251   1.439   0.791  1.00  0.00     0.000 A 
ATOM     12  C   UNL     1       5.381   0.428   1.719  1.00  0.00     0.000 A 
ENDBRANCH   6   7
ENDBRANCH   1   6
TORSDOF 4
ENDMDL
MODEL 3
REMARK VINA RESULT:      -6.6      1.960      2.348
REMARK SMILES O=C(O)CCc1ccccc1
REMARK SMILES IDX 4 1 2 2 1 3 3 4 5 6 6 7 7 8 11 9 8 10 10 11 9 12
REMARK H PARENT 3 5
REMARK Flexibility Score: inf
ROOT
ATOM      1  C   UNL     1       8.284   0.241  -2.191  1.00  0.00     0.127 C 
ENDROOT
BRANCH   1   2
ATOM      2  C   UNL     1       9.395   0.366  -1.219  1.00  0.00     0.303 C 
ATOM      3  O   UNL     1       9.463  -0.377  -0.209  1.00  0.00    -0.252 OA
BRANCH   2   4
ATOM      4  O   UNL     1      10.394   1.310  -1.399  1.00  0.00    -0.481 OA
ATOM      5  H   UNL     1      10.868   1.370  -2.304  1.00  0.00     0.296 HD
ENDBRANCH   2   4
ENDBRANCH   1   2
BRANCH   1   6
ATOM      6  C   UNL     1       7.161  -0.498  -1.530  1.00  0.00     0.047 C 
BRANCH   6   7
ATOM      7  C   UNL     1       6.359   0.324  -0.625  1.00  0.00    -0.047 A 
ATOM      8  C   UNL     1       5.840   1.528  -1.043  1.00  0.00     0.004 A 
ATOM      9  C   UNL     1       6.124  -0.120   0.655  1.00  0.00     0.004 A 
ATOM     10  C   UNL     1       5.083   2.261  -0.126  1.00  0.00     0.000 A 
ATOM     11  C   UNL     1       5.375   0.606   1.561  1.00  0.00     0.000 A 
ATOM     12  C   UNL     1       4.853   1.813   1.151  1.00  0.00     0.000 A 
ENDBRANCH   6   7
ENDBRANCH   1   6
TORSDOF 4
ENDMDL
MODEL 4
REMARK VINA RESULT:      -6.6      3.336      5.081
REMARK SMILES O=C(O)CCc1ccccc1
REMARK SMILES IDX 4 1 2 2 1 3 3 4 5 6 6 7 7 8 11 9 8 10 10 11 9 12
REMARK H PARENT 3 5
REMARK Flexibility Score: inf
ROOT
ATOM      1  C   UNL     1       5.022   1.747   0.667  1.00  0.00     0.127 C 
ENDROOT
BRANCH   1   2
ATOM      2  C   UNL     1       4.564   1.072   1.905  1.00  0.00     0.303 C 
ATOM      3  O   UNL     1       3.446   1.333   2.413  1.00  0.00    -0.252 OA
BRANCH   2   4
ATOM      4  O   UNL     1       5.362   0.132   2.537  1.00  0.00    -0.481 OA
ATOM      5  H   UNL     1       4.951  -0.473   3.254  1.00  0.00     0.296 HD
ENDBRANCH   2   4
ENDBRANCH   1   2
BRANCH   1   6
ATOM      6  C   UNL     1       6.518   1.814   0.693  1.00  0.00     0.047 C 
BRANCH   6   7
ATOM      7  C   UNL     1       7.166   1.047  -0.369  1.00  0.00    -0.047 A 
ATOM      8  C   UNL     1       8.503   1.217  -0.644  1.00  0.00     0.004 A 
ATOM      9  C   UNL     1       6.423   0.145  -1.095  1.00  0.00     0.004 A 
ATOM     10  C   UNL     1       9.057   0.450  -1.672  1.00  0.00     0.000 A 
ATOM     11  C   UNL     1       6.972  -0.612  -2.111  1.00  0.00     0.000 A 
ATOM     12  C   UNL     1       8.310  -0.447  -2.394  1.00  0.00     0.000 A 
ENDBRANCH   6   7
ENDBRANCH   1   6
TORSDOF 4
ENDMDL
MODEL 5
REMARK VINA RESULT:      -6.6      3.717      5.051
REMARK SMILES O=C(O)CCc1ccccc1
REMARK SMILES IDX 4 1 2 2 1 3 3 4 5 6 6 7 7 8 11 9 8 10 10 11 9 12
REMARK H PARENT 3 5
REMARK Flexibility Score: inf
ROOT
ATOM      1  C   UNL     1       5.380   2.939   0.012  1.00  0.00     0.127 C 
ENDROOT
BRANCH   1   2
ATOM      2  C   UNL     1       6.225   3.853   0.817  1.00  0.00     0.303 C 
ATOM      3  O   UNL     1       6.885   4.774   0.276  1.00  0.00    -0.252 OA
BRANCH   2   4
ATOM      4  O   UNL     1       6.311   3.714   2.193  1.00  0.00    -0.481 OA
ATOM      5  H   UNL     1       6.623   2.822   2.588  1.00  0.00     0.296 HD
ENDBRANCH   2   4
ENDBRANCH   1   2
BRANCH   1   6
ATOM      6  C   UNL     1       5.206   1.662   0.777  1.00  0.00     0.047 C 
BRANCH   6   7
ATOM      7  C   UNL     1       6.010   0.552   0.269  1.00  0.00    -0.047 A 
ATOM      8  C   UNL     1       6.428  -0.455   1.108  1.00  0.00     0.004 A 
ATOM      9  C   UNL     1       6.345   0.520  -1.064  1.00  0.00     0.004 A 
ATOM     10  C   UNL     1       7.191  -1.485   0.555  1.00  0.00     0.000 A 
ATOM     11  C   UNL     1       7.100  -0.499  -1.610  1.00  0.00     0.000 A 
ATOM     12  C   UNL     1       7.524  -1.511  -0.776  1.00  0.00     0.000 A 
ENDBRANCH   6   7
ENDBRANCH   1   6
TORSDOF 4
ENDMDL
