@<TRIPOS>MOLECULE
/home/cewinharhar/GITHUB/reincatalyze/data/processed/docking_pred/2023_Apr_20-15:07/98ce2146f260201d1ebb2f82702d5d512d51d1e1_ligand_2.pdbqt
 12 12 0 0 0
SMALL
GASTEIGER

@<TRIPOS>ATOM
      1  C          5.3800    2.9390    0.0120 C.3     1  UNL1        0.1270
      2  C          6.2250    3.8530    0.8170 C.2     1  UNL1        0.3030
      3  O          6.8850    4.7740    0.2760 O.2     1  UNL1       -0.2520
      4  O          6.3110    3.7140    2.1930 O.3     1  UNL1       -0.4810
      5  H          6.6230    2.8220    2.5880 H       1  UNL1        0.2960
      6  C          5.2060    1.6620    0.7770 C.3     1  UNL1        0.0470
      7  C          6.0100    0.5520    0.2690 C.2     1  UNL1       -0.0470
      8  C          6.4280   -0.4550    1.1080 C.2     1  UNL1        0.0040
      9  C          6.3450    0.5200   -1.0640 C.2     1  UNL1        0.0040
     10  C          7.1910   -1.4850    0.5550 C.2     1  UNL1        0.0000
     11  C          7.1000   -0.4990   -1.6100 C.2     1  UNL1        0.0000
     12  C          7.5240   -1.5110   -0.7760 C.2     1  UNL1        0.0000
@<TRIPOS>BOND
     1    11     9    1
     2    11    12    2
     3     9     7    2
     4    12    10    1
     5     1     6    1
     6     1     2    1
     7     7     6    1
     8     7     8    1
     9     3     2    2
    10    10     8    2
    11     2     4    1
    12     4     5    1
