@<TRIPOS>MOLECULE
/home/cewinharhar/GITHUB/reincatalyze/data/processed/docking_pred/2023_Apr_20-15:07/98ce2146f260201d1ebb2f82702d5d512d51d1e1_ligand_2.pdbqt
 12 12 0 0 0
SMALL
GASTEIGER

@<TRIPOS>ATOM
      1  C          8.2840    0.2410   -2.1910 C.3     1  UNL1        0.1270
      2  C          9.3950    0.3660   -1.2190 C.2     1  UNL1        0.3030
      3  O          9.4630   -0.3770   -0.2090 O.2     1  UNL1       -0.2520
      4  O         10.3940    1.3100   -1.3990 O.3     1  UNL1       -0.4810
      5  H         10.8680    1.3700   -2.3040 H       1  UNL1        0.2960
      6  C          7.1610   -0.4980   -1.5300 C.3     1  UNL1        0.0470
      7  C          6.3590    0.3240   -0.6250 C.2     1  UNL1       -0.0470
      8  C          5.8400    1.5280   -1.0430 C.2     1  UNL1        0.0040
      9  C          6.1240   -0.1200    0.6550 C.2     1  UNL1        0.0040
     10  C          5.0830    2.2610   -0.1260 C.2     1  UNL1        0.0000
     11  C          5.3750    0.6060    1.5610 C.2     1  UNL1        0.0000
     12  C          4.8530    1.8130    1.1510 C.2     1  UNL1        0.0000
@<TRIPOS>BOND
     1     5     4    1
     2     1     6    1
     3     1     2    1
     4     6     7    1
     5     4     2    1
     6     2     3    2
     7     8     7    2
     8     8    10    1
     9     7     9    1
    10    10    12    2
    11     9    11    2
    12    12    11    1
