@<TRIPOS>MOLECULE
/home/cewinharhar/GITHUB/reincatalyze/data/processed/docking_pred/2023_Apr_20-15:07/98ce2146f260201d1ebb2f82702d5d512d51d1e1_ligand_2.pdbqt
 12 12 0 0 0
SMALL
GASTEIGER

@<TRIPOS>ATOM
      1  C          8.4710   -0.6230   -2.1260 C.3     1  UNL1        0.1270
      2  C          8.3970   -1.8940   -2.8850 C.2     1  UNL1        0.3030
      3  O          7.2920   -2.3970   -3.2050 O.2     1  UNL1       -0.2520
      4  O          9.5500   -2.5630   -3.2630 O.3     1  UNL1       -0.4810
      5  H          9.8330   -3.4020   -2.7500 H       1  UNL1        0.2960
      6  C          7.1070   -0.0030   -2.1130 C.3     1  UNL1        0.0470
      7  C          6.5200    0.1170   -0.7800 C.2     1  UNL1       -0.0470
      8  C          6.6540   -0.8970    0.1410 C.2     1  UNL1        0.0040
      9  C          5.8300    1.2600   -0.4500 C.2     1  UNL1        0.0040
     10  C          6.0690   -0.7140    1.3960 C.2     1  UNL1        0.0000
     11  C          5.2510    1.4390    0.7910 C.2     1  UNL1        0.0000
     12  C          5.3810    0.4280    1.7190 C.2     1  UNL1        0.0000
@<TRIPOS>BOND
     1     4     2    1
     2     4     5    1
     3     3     2    2
     4     2     1    1
     5     1     6    1
     6     6     7    1
     7     7     9    2
     8     7     8    1
     9     9    11    1
    10     8    10    2
    11    11    12    2
    12    10    12    1
