@<TRIPOS>MOLECULE
/home/cewinharhar/GITHUB/reincatalyze/data/processed/docking_pred/2023_Apr_20-15:07/98ce2146f260201d1ebb2f82702d5d512d51d1e1_ligand_2.pdbqt
 12 12 0 0 0
SMALL
GASTEIGER

@<TRIPOS>ATOM
      1  C          5.0220    1.7470    0.6670 C.3     1  UNL1        0.1270
      2  C          4.5640    1.0720    1.9050 C.2     1  UNL1        0.3030
      3  O          3.4460    1.3330    2.4130 O.2     1  UNL1       -0.2520
      4  O          5.3620    0.1320    2.5370 O.3     1  UNL1       -0.4810
      5  H          4.9510   -0.4730    3.2540 H       1  UNL1        0.2960
      6  C          6.5180    1.8140    0.6930 C.3     1  UNL1        0.0470
      7  C          7.1660    1.0470   -0.3690 C.2     1  UNL1       -0.0470
      8  C          8.5030    1.2170   -0.6440 C.2     1  UNL1        0.0040
      9  C          6.4230    0.1450   -1.0950 C.2     1  UNL1        0.0040
     10  C          9.0570    0.4500   -1.6720 C.2     1  UNL1        0.0000
     11  C          6.9720   -0.6120   -2.1110 C.2     1  UNL1        0.0000
     12  C          8.3100   -0.4470   -2.3940 C.2     1  UNL1        0.0000
@<TRIPOS>BOND
     1    12    11    2
     2    12    10    1
     3    11     9    1
     4    10     8    2
     5     9     7    2
     6     8     7    1
     7     7     6    1
     8     1     6    1
     9     1     2    1
    10     2     3    2
    11     2     4    1
    12     4     5    1
