@<TRIPOS>MOLECULE
/home/cewinharhar/GITHUB/reincatalyze/data/processed/docking_pred/2023_Apr_20-15:07/9a7d3f5f853688f06c0e35b58fb12e655ab1ce10_ligand_2.pdbqt
 12 12 0 0 0
SMALL
GASTEIGER

@<TRIPOS>ATOM
      1  C          8.2140   -0.3500   -2.3940 C.3     1  UNL1        0.1270
      2  C          8.4150   -1.7190   -2.9250 C.2     1  UNL1        0.3030
      3  O          9.5540   -2.2470   -2.9500 O.2     1  UNL1       -0.2520
      4  O          7.3470   -2.4560   -3.4110 O.3     1  UNL1       -0.4810
      5  H          6.5960   -2.7300   -2.7730 H       1  UNL1        0.2960
      6  C          6.9170   -0.3220   -1.6450 C.3     1  UNL1        0.0470
      7  C          6.7570    0.8440   -0.7770 C.2     1  UNL1       -0.0470
      8  C          5.5210    1.4200   -0.5940 C.2     1  UNL1        0.0040
      9  C          7.8600    1.3630   -0.1400 C.2     1  UNL1        0.0040
     10  C          5.4420    2.5310    0.2490 C.2     1  UNL1        0.0000
     11  C          7.7800    2.4610    0.6930 C.2     1  UNL1        0.0000
     12  C          6.5460    3.0450    0.8820 C.2     1  UNL1        0.0000
@<TRIPOS>BOND
     1     4     2    1
     2     4     5    1
     3     3     2    2
     4     2     1    1
     5     1     6    1
     6     6     7    1
     7     7     8    2
     8     7     9    1
     9     8    10    1
    10     9    11    2
    11    10    12    2
    12    11    12    1
