MODEL 1
REMARK VINA RESULT:      -7.1      0.000      0.000
REMARK SMILES O=C(O)CCc1ccccc1
REMARK SMILES IDX 4 1 2 2 1 3 3 4 5 6 6 7 7 8 11 9 8 10 10 11 9 12
REMARK H PARENT 3 5
REMARK Flexibility Score: inf
ROOT
ATOM      1  C   UNL     1       8.429  -0.566  -2.205  1.00  0.00     0.127 C 
ENDROOT
BRANCH   1   2
ATOM      2  C   UNL     1       8.464  -1.860  -2.925  1.00  0.00     0.303 C 
ATOM      3  O   UNL     1       9.548  -2.459  -3.136  1.00  0.00    -0.252 OA
BRANCH   2   4
ATOM      4  O   UNL     1       7.298  -2.447  -3.388  1.00  0.00    -0.481 OA
ATOM      5  H   UNL     1       6.437  -1.894  -3.418  1.00  0.00     0.296 HD
ENDBRANCH   2   4
ENDBRANCH   1   2
BRANCH   1   6
ATOM      6  C   UNL     1       7.018  -0.062  -2.209  1.00  0.00     0.047 C 
BRANCH   6   7
ATOM      7  C   UNL     1       6.460   0.155  -0.876  1.00  0.00    -0.047 A 
ATOM      8  C   UNL     1       5.795   1.320  -0.573  1.00  0.00     0.004 A 
ATOM      9  C   UNL     1       6.604  -0.824   0.080  1.00  0.00     0.004 A 
ATOM     10  C   UNL     1       5.287   1.459   0.721  1.00  0.00     0.000 A 
ATOM     11  C   UNL     1       6.102  -0.685   1.358  1.00  0.00     0.000 A 
ATOM     12  C   UNL     1       5.435   0.480   1.670  1.00  0.00     0.000 A 
ENDBRANCH   6   7
ENDBRANCH   1   6
TORSDOF 4
ENDMDL
MODEL 2
REMARK VINA RESULT:      -7.1      0.100      1.439
REMARK SMILES O=C(O)CCc1ccccc1
REMARK SMILES IDX 4 1 2 2 1 3 3 4 5 6 6 7 7 8 11 9 8 10 10 11 9 12
REMARK H PARENT 3 5
REMARK Flexibility Score: inf
ROOT
ATOM      1  C   UNL     1       8.435  -0.556  -2.237  1.00  0.00     0.127 C 
ENDROOT
BRANCH   1   2
ATOM      2  C   UNL     1       8.489  -1.864  -2.932  1.00  0.00     0.303 C 
ATOM      3  O   UNL     1       9.576  -2.472  -3.091  1.00  0.00    -0.252 OA
BRANCH   2   4
ATOM      4  O   UNL     1       7.337  -2.453  -3.428  1.00  0.00    -0.481 OA
ATOM      5  H   UNL     1       6.450  -2.309  -2.937  1.00  0.00     0.296 HD
ENDBRANCH   2   4
ENDBRANCH   1   2
BRANCH   1   6
ATOM      6  C   UNL     1       7.005  -0.110  -2.184  1.00  0.00     0.047 C 
BRANCH   6   7
ATOM      7  C   UNL     1       6.476   0.031  -0.829  1.00  0.00    -0.047 A 
ATOM      8  C   UNL     1       6.615  -0.983   0.090  1.00  0.00     0.004 A 
ATOM      9  C   UNL     1       5.835   1.196  -0.476  1.00  0.00     0.004 A 
ATOM     10  C   UNL     1       6.086  -0.779   1.366  1.00  0.00     0.000 A 
ATOM     11  C   UNL     1       5.313   1.397   0.786  1.00  0.00     0.000 A 
ATOM     12  C   UNL     1       5.447   0.385   1.712  1.00  0.00     0.000 A 
ENDBRANCH   6   7
ENDBRANCH   1   6
TORSDOF 4
ENDMDL
MODEL 3
REMARK VINA RESULT:      -6.6      1.326      1.670
REMARK SMILES O=C(O)CCc1ccccc1
REMARK SMILES IDX 4 1 2 2 1 3 3 4 5 6 6 7 7 8 11 9 8 10 10 11 9 12
REMARK H PARENT 3 5
REMARK Flexibility Score: inf
ROOT
ATOM      1  C   UNL     1       8.214  -0.350  -2.394  1.00  0.00     0.127 C 
ENDROOT
BRANCH   1   2
ATOM      2  C   UNL     1       8.415  -1.719  -2.925  1.00  0.00     0.303 C 
ATOM      3  O   UNL     1       9.554  -2.247  -2.950  1.00  0.00    -0.252 OA
BRANCH   2   4
ATOM      4  O   UNL     1       7.347  -2.456  -3.411  1.00  0.00    -0.481 OA
ATOM      5  H   UNL     1       6.596  -2.730  -2.773  1.00  0.00     0.296 HD
ENDBRANCH   2   4
ENDBRANCH   1   2
BRANCH   1   6
ATOM      6  C   UNL     1       6.917  -0.322  -1.645  1.00  0.00     0.047 C 
BRANCH   6   7
ATOM      7  C   UNL     1       6.757   0.844  -0.777  1.00  0.00    -0.047 A 
ATOM      8  C   UNL     1       5.521   1.420  -0.594  1.00  0.00     0.004 A 
ATOM      9  C   UNL     1       7.860   1.363  -0.140  1.00  0.00     0.004 A 
ATOM     10  C   UNL     1       5.442   2.531   0.249  1.00  0.00     0.000 A 
ATOM     11  C   UNL     1       7.780   2.461   0.693  1.00  0.00     0.000 A 
ATOM     12  C   UNL     1       6.546   3.045   0.882  1.00  0.00     0.000 A 
ENDBRANCH   6   7
ENDBRANCH   1   6
TORSDOF 4
ENDMDL
MODEL 4
REMARK VINA RESULT:      -6.4      3.420      5.092
REMARK SMILES O=C(O)CCc1ccccc1
REMARK SMILES IDX 4 1 2 2 1 3 3 4 5 6 6 7 7 8 11 9 8 10 10 11 9 12
REMARK H PARENT 3 5
REMARK Flexibility Score: inf
ROOT
ATOM      1  C   UNL     1       4.928   1.812   0.799  1.00  0.00     0.127 C 
ENDROOT
BRANCH   1   2
ATOM      2  C   UNL     1       4.428   1.086   1.990  1.00  0.00     0.303 C 
ATOM      3  O   UNL     1       5.102   0.171   2.525  1.00  0.00    -0.252 OA
BRANCH   2   4
ATOM      4  O   UNL     1       3.199   1.398   2.548  1.00  0.00    -0.481 OA
ATOM      5  H   UNL     1       2.881   0.888   3.377  1.00  0.00     0.296 HD
ENDBRANCH   2   4
ENDBRANCH   1   2
BRANCH   1   6
ATOM      6  C   UNL     1       6.419   1.919   0.904  1.00  0.00     0.047 C 
BRANCH   6   7
ATOM      7  C   UNL     1       7.141   1.245  -0.174  1.00  0.00    -0.047 A 
ATOM      8  C   UNL     1       6.463   0.536  -1.138  1.00  0.00     0.004 A 
ATOM      9  C   UNL     1       8.513   1.328  -0.217  1.00  0.00     0.004 A 
ATOM     10  C   UNL     1       7.217  -0.082  -2.139  1.00  0.00     0.000 A 
ATOM     11  C   UNL     1       9.257   0.717  -1.207  1.00  0.00     0.000 A 
ATOM     12  C   UNL     1       8.586   0.004  -2.176  1.00  0.00     0.000 A 
ENDBRANCH   6   7
ENDBRANCH   1   6
TORSDOF 4
ENDMDL
MODEL 5
REMARK VINA RESULT:      -6.4      4.620      5.365
REMARK SMILES O=C(O)CCc1ccccc1
REMARK SMILES IDX 4 1 2 2 1 3 3 4 5 6 6 7 7 8 11 9 8 10 10 11 9 12
REMARK H PARENT 3 5
REMARK Flexibility Score: inf
ROOT
ATOM      1  C   UNL     1       7.580  -0.314   1.047  1.00  0.00     0.127 C 
ENDROOT
BRANCH   1   2
ATOM      2  C   UNL     1       6.627  -1.148   1.815  1.00  0.00     0.303 C 
ATOM      3  O   UNL     1       5.836  -0.636   2.645  1.00  0.00    -0.252 OA
BRANCH   2   4
ATOM      4  O   UNL     1       6.582  -2.522   1.637  1.00  0.00    -0.481 OA
ATOM      5  H   UNL     1       7.368  -3.094   1.957  1.00  0.00     0.296 HD
ENDBRANCH   2   4
ENDBRANCH   1   2
BRANCH   1   6
ATOM      6  C   UNL     1       7.950   0.872   1.886  1.00  0.00     0.047 C 
BRANCH   6   7
ATOM      7  C   UNL     1       9.375   0.958   2.197  1.00  0.00    -0.047 A 
ATOM      8  C   UNL     1       9.848   1.911   3.070  1.00  0.00     0.004 A 
ATOM      9  C   UNL     1      10.246   0.071   1.608  1.00  0.00     0.004 A 
ATOM     10  C   UNL     1      11.222   1.935   3.321  1.00  0.00     0.000 A 
ATOM     11  C   UNL     1      11.604   0.097   1.857  1.00  0.00     0.000 A 
ATOM     12  C   UNL     1      12.086   1.049   2.730  1.00  0.00     0.000 A 
ENDBRANCH   6   7
ENDBRANCH   1   6
TORSDOF 4
ENDMDL
