@<TRIPOS>MOLECULE
/home/cewinharhar/GITHUB/reincatalyze/data/processed/docking_pred/2023_Apr_20-15:07/9a7d3f5f853688f06c0e35b58fb12e655ab1ce10_ligand_2.pdbqt
 12 12 0 0 0
SMALL
GASTEIGER

@<TRIPOS>ATOM
      1  C          7.5800   -0.3140    1.0470 C.3     1  UNL1        0.1270
      2  C          6.6270   -1.1480    1.8150 C.2     1  UNL1        0.3030
      3  O          5.8360   -0.6360    2.6450 O.2     1  UNL1       -0.2520
      4  O          6.5820   -2.5220    1.6370 O.3     1  UNL1       -0.4810
      5  H          7.3680   -3.0940    1.9570 H       1  UNL1        0.2960
      6  C          7.9500    0.8720    1.8860 C.3     1  UNL1        0.0470
      7  C          9.3750    0.9580    2.1970 C.2     1  UNL1       -0.0470
      8  C          9.8480    1.9110    3.0700 C.2     1  UNL1        0.0040
      9  C         10.2460    0.0710    1.6080 C.2     1  UNL1        0.0040
     10  C         11.2220    1.9350    3.3210 C.2     1  UNL1        0.0000
     11  C         11.6040    0.0970    1.8570 C.2     1  UNL1        0.0000
     12  C         12.0860    1.0490    2.7300 C.2     1  UNL1        0.0000
@<TRIPOS>BOND
     1     1     2    1
     2     1     6    1
     3     9    11    1
     4     9     7    2
     5     4     2    1
     6     4     5    1
     7     2     3    2
     8    11    12    2
     9     6     7    1
    10     7     8    1
    11    12    10    1
    12     8    10    2
