@<TRIPOS>MOLECULE
/home/cewinharhar/GITHUB/reincatalyze/data/processed/docking_pred/2023_Apr_20-15:07/9a7d3f5f853688f06c0e35b58fb12e655ab1ce10_ligand_2.pdbqt
 12 12 0 0 0
SMALL
GASTEIGER

@<TRIPOS>ATOM
      1  C          4.9280    1.8120    0.7990 C.3     1  UNL1        0.1270
      2  C          4.4280    1.0860    1.9900 C.2     1  UNL1        0.3030
      3  O          5.1020    0.1710    2.5250 O.2     1  UNL1       -0.2520
      4  O          3.1990    1.3980    2.5480 O.3     1  UNL1       -0.4810
      5  H          2.8810    0.8880    3.3770 H       1  UNL1        0.2960
      6  C          6.4190    1.9190    0.9040 C.3     1  UNL1        0.0470
      7  C          7.1410    1.2450   -0.1740 C.2     1  UNL1       -0.0470
      8  C          6.4630    0.5360   -1.1380 C.2     1  UNL1        0.0040
      9  C          8.5130    1.3280   -0.2170 C.2     1  UNL1        0.0040
     10  C          7.2170   -0.0820   -2.1390 C.2     1  UNL1        0.0000
     11  C          9.2570    0.7170   -1.2070 C.2     1  UNL1        0.0000
     12  C          8.5860    0.0040   -2.1760 C.2     1  UNL1        0.0000
@<TRIPOS>BOND
     1    12    10    2
     2    12    11    1
     3    10     8    1
     4    11     9    2
     5     8     7    2
     6     9     7    1
     7     7     6    1
     8     1     6    1
     9     1     2    1
    10     2     3    2
    11     2     4    1
    12     4     5    1
