@<TRIPOS>MOLECULE
/home/cewinharhar/GITHUB/reincatalyze/data/processed/docking_pred/2023_Apr_20-15:07/9a7d3f5f853688f06c0e35b58fb12e655ab1ce10_ligand_2.pdbqt
 12 12 0 0 0
SMALL
GASTEIGER

@<TRIPOS>ATOM
      1  C          8.4350   -0.5560   -2.2370 C.3     1  UNL1        0.1270
      2  C          8.4890   -1.8640   -2.9320 C.2     1  UNL1        0.3030
      3  O          9.5760   -2.4720   -3.0910 O.2     1  UNL1       -0.2520
      4  O          7.3370   -2.4530   -3.4280 O.3     1  UNL1       -0.4810
      5  H          6.4500   -2.3090   -2.9370 H       1  UNL1        0.2960
      6  C          7.0050   -0.1100   -2.1840 C.3     1  UNL1        0.0470
      7  C          6.4760    0.0310   -0.8290 C.2     1  UNL1       -0.0470
      8  C          6.6150   -0.9830    0.0900 C.2     1  UNL1        0.0040
      9  C          5.8350    1.1960   -0.4760 C.2     1  UNL1        0.0040
     10  C          6.0860   -0.7790    1.3660 C.2     1  UNL1        0.0000
     11  C          5.3130    1.3970    0.7860 C.2     1  UNL1        0.0000
     12  C          5.4470    0.3850    1.7120 C.2     1  UNL1        0.0000
@<TRIPOS>BOND
     1     4     5    1
     2     4     2    1
     3     3     2    2
     4     2     1    1
     5     1     6    1
     6     6     7    1
     7     7     9    2
     8     7     8    1
     9     9    11    1
    10     8    10    2
    11    11    12    2
    12    10    12    1
