@<TRIPOS>MOLECULE
/home/cewinharhar/GITHUB/reincatalyze/data/processed/docking_pred/2023_Apr_20-15:07/9c92d7019ca479aa147a964f0da84773825070a7_ligand_2.pdbqt
 12 12 0 0 0
SMALL
GASTEIGER

@<TRIPOS>ATOM
      1  C          8.2600    0.1280   -2.2010 C.3     1  UNL1        0.1270
      2  C          9.3660    0.3290   -1.2350 C.2     1  UNL1        0.3030
      3  O          9.4760   -0.3920   -0.2130 O.2     1  UNL1       -0.2520
      4  O         10.3110    1.3230   -1.4350 O.3     1  UNL1       -0.4810
      5  H         10.0700    2.2940   -1.2180 H       1  UNL1        0.2960
      6  C          7.1460   -0.5870   -1.5000 C.3     1  UNL1        0.0470
      7  C          6.3600    0.2660   -0.6100 C.2     1  UNL1       -0.0470
      8  C          5.8620    1.4720   -1.0490 C.2     1  UNL1        0.0040
      9  C          6.1170   -0.1500    0.6780 C.2     1  UNL1        0.0040
     10  C          5.1190    2.2340   -0.1460 C.2     1  UNL1        0.0000
     11  C          5.3820    0.6050    1.5700 C.2     1  UNL1        0.0000
     12  C          4.8810    1.8140    1.1390 C.2     1  UNL1        0.0000
@<TRIPOS>BOND
     1     1     6    1
     2     1     2    1
     3     6     7    1
     4     4     2    1
     5     4     5    1
     6     2     3    2
     7     8     7    2
     8     8    10    1
     9     7     9    1
    10    10    12    2
    11     9    11    2
    12    12    11    1
