@<TRIPOS>MOLECULE
/home/cewinharhar/GITHUB/reincatalyze/data/processed/docking_pred/2023_Apr_20-15:07/9c92d7019ca479aa147a964f0da84773825070a7_ligand_2.pdbqt
 12 12 0 0 0
SMALL
GASTEIGER

@<TRIPOS>ATOM
      1  C          8.4650   -0.6980   -2.0280 C.3     1  UNL1        0.1270
      2  C          8.4830   -1.9220   -2.8640 C.2     1  UNL1        0.3030
      3  O          9.5570   -2.5240   -3.1130 O.2     1  UNL1       -0.2520
      4  O          7.3110   -2.4370   -3.3940 O.3     1  UNL1       -0.4810
      5  H          6.5710   -2.7520   -2.7610 H       1  UNL1        0.2960
      6  C          7.0880   -0.1100   -2.0840 C.3     1  UNL1        0.0470
      7  C          6.4850    0.1160   -0.7720 C.2     1  UNL1       -0.0470
      8  C          6.6010   -0.8230    0.2270 C.2     1  UNL1        0.0040
      9  C          5.7960    1.2840   -0.5420 C.2     1  UNL1        0.0040
     10  C          6.0010   -0.5400    1.4560 C.2     1  UNL1        0.0000
     11  C          5.2030    1.5630    0.6730 C.2     1  UNL1        0.0000
     12  C          5.3140    0.6270    1.6790 C.2     1  UNL1        0.0000
@<TRIPOS>BOND
     1     4     2    1
     2     4     5    1
     3     3     2    2
     4     2     1    1
     5     6     1    1
     6     6     7    1
     7     7     9    2
     8     7     8    1
     9     9    11    1
    10     8    10    2
    11    11    12    2
    12    10    12    1
