@<TRIPOS>MOLECULE
/home/cewinharhar/GITHUB/reincatalyze/data/processed/docking_pred/2023_Apr_20-15:07/9c92d7019ca479aa147a964f0da84773825070a7_ligand_2.pdbqt
 12 12 0 0 0
SMALL
GASTEIGER

@<TRIPOS>ATOM
      1  C          5.0220    1.8200    0.7300 C.3     1  UNL1        0.1270
      2  C          4.4890    1.1190    1.9220 C.2     1  UNL1        0.3030
      3  O          5.1370    0.2000    2.4810 O.2     1  UNL1       -0.2520
      4  O          3.2550    1.4590    2.4530 O.3     1  UNL1       -0.4810
      5  H          2.9440    1.0160    3.3220 H       1  UNL1        0.2960
      6  C          6.5180    1.7530    0.7750 C.3     1  UNL1        0.0470
      7  C          7.1130    1.0080   -0.3340 C.2     1  UNL1       -0.0470
      8  C          6.3640    0.1120   -1.0610 C.2     1  UNL1        0.0040
      9  C          8.4370    1.2130   -0.6460 C.2     1  UNL1        0.0040
     10  C          6.9980   -0.5630   -2.1070 C.2     1  UNL1        0.0000
     11  C          9.0620    0.5440   -1.6800 C.2     1  UNL1        0.0000
     12  C          8.3190   -0.3550   -2.4130 C.2     1  UNL1        0.0000
@<TRIPOS>BOND
     1    12    10    2
     2    12    11    1
     3    10     8    1
     4    11     9    2
     5     8     7    2
     6     9     7    1
     7     7     6    1
     8     1     6    1
     9     1     2    1
    10     2     4    1
    11     2     3    2
    12     4     5    1
