@<TRIPOS>MOLECULE
/home/cewinharhar/GITHUB/reincatalyze/data/processed/docking_pred/2023_Apr_20-15:07/9c92d7019ca479aa147a964f0da84773825070a7_ligand_2.pdbqt
 12 12 0 0 0
SMALL
GASTEIGER

@<TRIPOS>ATOM
      1  C          5.0680    1.6960    0.6600 C.3     1  UNL1        0.1270
      2  C          4.6170    1.0360    1.9080 C.2     1  UNL1        0.3030
      3  O          5.3320    0.1820    2.4880 O.2     1  UNL1       -0.2520
      4  O          3.3900    1.3460    2.4710 O.3     1  UNL1       -0.4810
      5  H          3.3430    1.6040    3.4610 H       1  UNL1        0.2960
      6  C          6.5650    1.7580    0.6750 C.3     1  UNL1        0.0470
      7  C          7.2030    0.9900   -0.3930 C.2     1  UNL1       -0.0470
      8  C          8.5310    1.1790   -0.6980 C.2     1  UNL1        0.0040
      9  C          6.4590    0.0700   -1.0940 C.2     1  UNL1        0.0040
     10  C          9.0740    0.4090   -1.7300 C.2     1  UNL1        0.0000
     11  C          6.9970   -0.6900   -2.1140 C.2     1  UNL1        0.0000
     12  C          8.3270   -0.5070   -2.4260 C.2     1  UNL1        0.0000
@<TRIPOS>BOND
     1    12    11    2
     2    12    10    1
     3    11     9    1
     4    10     8    2
     5     9     7    2
     6     8     7    1
     7     7     6    1
     8     1     6    1
     9     1     2    1
    10     2     4    1
    11     2     3    2
    12     4     5    1
