MODEL 1
REMARK VINA RESULT:      -7.4      0.000      0.000
REMARK SMILES O=C(O)CCc1ccccc1
REMARK SMILES IDX 4 1 2 2 1 3 3 4 5 6 6 7 7 8 11 9 8 10 10 11 9 12
REMARK H PARENT 3 5
REMARK Flexibility Score: inf
ROOT
ATOM      1  C   UNL     1       8.465  -0.698  -2.028  1.00  0.00     0.127 C 
ENDROOT
BRANCH   1   2
ATOM      2  C   UNL     1       8.483  -1.922  -2.864  1.00  0.00     0.303 C 
ATOM      3  O   UNL     1       9.557  -2.524  -3.113  1.00  0.00    -0.252 OA
BRANCH   2   4
ATOM      4  O   UNL     1       7.311  -2.437  -3.394  1.00  0.00    -0.481 OA
ATOM      5  H   UNL     1       6.571  -2.752  -2.761  1.00  0.00     0.296 HD
ENDBRANCH   2   4
ENDBRANCH   1   2
BRANCH   1   6
ATOM      6  C   UNL     1       7.088  -0.110  -2.084  1.00  0.00     0.047 C 
BRANCH   6   7
ATOM      7  C   UNL     1       6.485   0.116  -0.772  1.00  0.00    -0.047 A 
ATOM      8  C   UNL     1       6.601  -0.823   0.227  1.00  0.00     0.004 A 
ATOM      9  C   UNL     1       5.796   1.284  -0.542  1.00  0.00     0.004 A 
ATOM     10  C   UNL     1       6.001  -0.540   1.456  1.00  0.00     0.000 A 
ATOM     11  C   UNL     1       5.203   1.563   0.673  1.00  0.00     0.000 A 
ATOM     12  C   UNL     1       5.314   0.627   1.679  1.00  0.00     0.000 A 
ENDBRANCH   6   7
ENDBRANCH   1   6
TORSDOF 4
ENDMDL
MODEL 2
REMARK VINA RESULT:      -7.4      0.215      1.449
REMARK SMILES O=C(O)CCc1ccccc1
REMARK SMILES IDX 4 1 2 2 1 3 3 4 5 6 6 7 7 8 11 9 8 10 10 11 9 12
REMARK H PARENT 3 5
REMARK Flexibility Score: inf
ROOT
ATOM      1  C   UNL     1       8.399  -0.603  -2.140  1.00  0.00     0.127 C 
ENDROOT
BRANCH   1   2
ATOM      2  C   UNL     1       8.449  -1.878  -2.894  1.00  0.00     0.303 C 
ATOM      3  O   UNL     1       9.536  -2.475  -3.093  1.00  0.00    -0.252 OA
BRANCH   2   4
ATOM      4  O   UNL     1       7.292  -2.449  -3.401  1.00  0.00    -0.481 OA
ATOM      5  H   UNL     1       6.929  -2.127  -4.302  1.00  0.00     0.296 HD
ENDBRANCH   2   4
ENDBRANCH   1   2
BRANCH   1   6
ATOM      6  C   UNL     1       6.977  -0.134  -2.103  1.00  0.00     0.047 C 
BRANCH   6   7
ATOM      7  C   UNL     1       6.445   0.047  -0.753  1.00  0.00    -0.047 A 
ATOM      8  C   UNL     1       5.817   1.217  -0.395  1.00  0.00     0.004 A 
ATOM      9  C   UNL     1       6.579  -0.971   0.163  1.00  0.00     0.004 A 
ATOM     10  C   UNL     1       5.333   1.320   0.911  1.00  0.00     0.000 A 
ATOM     11  C   UNL     1       6.100  -0.868   1.454  1.00  0.00     0.000 A 
ATOM     12  C   UNL     1       5.470   0.301   1.820  1.00  0.00     0.000 A 
ENDBRANCH   6   7
ENDBRANCH   1   6
TORSDOF 4
ENDMDL
MODEL 3
REMARK VINA RESULT:      -6.8      3.356      5.070
REMARK SMILES O=C(O)CCc1ccccc1
REMARK SMILES IDX 4 1 2 2 1 3 3 4 5 6 6 7 7 8 11 9 8 10 10 11 9 12
REMARK H PARENT 3 5
REMARK Flexibility Score: inf
ROOT
ATOM      1  C   UNL     1       5.022   1.820   0.730  1.00  0.00     0.127 C 
ENDROOT
BRANCH   1   2
ATOM      2  C   UNL     1       4.489   1.119   1.922  1.00  0.00     0.303 C 
ATOM      3  O   UNL     1       5.137   0.200   2.481  1.00  0.00    -0.252 OA
BRANCH   2   4
ATOM      4  O   UNL     1       3.255   1.459   2.453  1.00  0.00    -0.481 OA
ATOM      5  H   UNL     1       2.944   1.016   3.322  1.00  0.00     0.296 HD
ENDBRANCH   2   4
ENDBRANCH   1   2
BRANCH   1   6
ATOM      6  C   UNL     1       6.518   1.753   0.775  1.00  0.00     0.047 C 
BRANCH   6   7
ATOM      7  C   UNL     1       7.113   1.008  -0.334  1.00  0.00    -0.047 A 
ATOM      8  C   UNL     1       6.364   0.112  -1.061  1.00  0.00     0.004 A 
ATOM      9  C   UNL     1       8.437   1.213  -0.646  1.00  0.00     0.004 A 
ATOM     10  C   UNL     1       6.998  -0.563  -2.107  1.00  0.00     0.000 A 
ATOM     11  C   UNL     1       9.062   0.544  -1.680  1.00  0.00     0.000 A 
ATOM     12  C   UNL     1       8.319  -0.355  -2.413  1.00  0.00     0.000 A 
ENDBRANCH   6   7
ENDBRANCH   1   6
TORSDOF 4
ENDMDL
MODEL 4
REMARK VINA RESULT:      -6.7      3.319      5.036
REMARK SMILES O=C(O)CCc1ccccc1
REMARK SMILES IDX 4 1 2 2 1 3 3 4 5 6 6 7 7 8 11 9 8 10 10 11 9 12
REMARK H PARENT 3 5
REMARK Flexibility Score: inf
ROOT
ATOM      1  C   UNL     1       5.068   1.696   0.660  1.00  0.00     0.127 C 
ENDROOT
BRANCH   1   2
ATOM      2  C   UNL     1       4.617   1.036   1.908  1.00  0.00     0.303 C 
ATOM      3  O   UNL     1       5.332   0.182   2.488  1.00  0.00    -0.252 OA
BRANCH   2   4
ATOM      4  O   UNL     1       3.390   1.346   2.471  1.00  0.00    -0.481 OA
ATOM      5  H   UNL     1       3.343   1.604   3.461  1.00  0.00     0.296 HD
ENDBRANCH   2   4
ENDBRANCH   1   2
BRANCH   1   6
ATOM      6  C   UNL     1       6.565   1.758   0.675  1.00  0.00     0.047 C 
BRANCH   6   7
ATOM      7  C   UNL     1       7.203   0.990  -0.393  1.00  0.00    -0.047 A 
ATOM      8  C   UNL     1       8.531   1.179  -0.698  1.00  0.00     0.004 A 
ATOM      9  C   UNL     1       6.459   0.070  -1.094  1.00  0.00     0.004 A 
ATOM     10  C   UNL     1       9.074   0.409  -1.730  1.00  0.00     0.000 A 
ATOM     11  C   UNL     1       6.997  -0.690  -2.114  1.00  0.00     0.000 A 
ATOM     12  C   UNL     1       8.327  -0.507  -2.426  1.00  0.00     0.000 A 
ENDBRANCH   6   7
ENDBRANCH   1   6
TORSDOF 4
ENDMDL
MODEL 5
REMARK VINA RESULT:      -6.7      1.916      2.621
REMARK SMILES O=C(O)CCc1ccccc1
REMARK SMILES IDX 4 1 2 2 1 3 3 4 5 6 6 7 7 8 11 9 8 10 10 11 9 12
REMARK H PARENT 3 5
REMARK Flexibility Score: inf
ROOT
ATOM      1  C   UNL     1       8.260   0.128  -2.201  1.00  0.00     0.127 C 
ENDROOT
BRANCH   1   2
ATOM      2  C   UNL     1       9.366   0.329  -1.235  1.00  0.00     0.303 C 
ATOM      3  O   UNL     1       9.476  -0.392  -0.213  1.00  0.00    -0.252 OA
BRANCH   2   4
ATOM      4  O   UNL     1      10.311   1.323  -1.435  1.00  0.00    -0.481 OA
ATOM      5  H   UNL     1      10.070   2.294  -1.218  1.00  0.00     0.296 HD
ENDBRANCH   2   4
ENDBRANCH   1   2
BRANCH   1   6
ATOM      6  C   UNL     1       7.146  -0.587  -1.500  1.00  0.00     0.047 C 
BRANCH   6   7
ATOM      7  C   UNL     1       6.360   0.266  -0.610  1.00  0.00    -0.047 A 
ATOM      8  C   UNL     1       5.862   1.472  -1.049  1.00  0.00     0.004 A 
ATOM      9  C   UNL     1       6.117  -0.150   0.678  1.00  0.00     0.004 A 
ATOM     10  C   UNL     1       5.119   2.234  -0.146  1.00  0.00     0.000 A 
ATOM     11  C   UNL     1       5.382   0.605   1.570  1.00  0.00     0.000 A 
ATOM     12  C   UNL     1       4.881   1.814   1.139  1.00  0.00     0.000 A 
ENDBRANCH   6   7
ENDBRANCH   1   6
TORSDOF 4
ENDMDL
