@<TRIPOS>MOLECULE
/home/cewinharhar/GITHUB/reincatalyze/data/processed/docking_pred/2023_Apr_20-15:07/9c92d7019ca479aa147a964f0da84773825070a7_ligand_2.pdbqt
 12 12 0 0 0
SMALL
GASTEIGER

@<TRIPOS>ATOM
      1  C          8.3990   -0.6030   -2.1400 C.3     1  UNL1        0.1270
      2  C          8.4490   -1.8780   -2.8940 C.2     1  UNL1        0.3030
      3  O          9.5360   -2.4750   -3.0930 O.2     1  UNL1       -0.2520
      4  O          7.2920   -2.4490   -3.4010 O.3     1  UNL1       -0.4810
      5  H          6.9290   -2.1270   -4.3020 H       1  UNL1        0.2960
      6  C          6.9770   -0.1340   -2.1030 C.3     1  UNL1        0.0470
      7  C          6.4450    0.0470   -0.7530 C.2     1  UNL1       -0.0470
      8  C          5.8170    1.2170   -0.3950 C.2     1  UNL1        0.0040
      9  C          6.5790   -0.9710    0.1630 C.2     1  UNL1        0.0040
     10  C          5.3330    1.3200    0.9110 C.2     1  UNL1        0.0000
     11  C          6.1000   -0.8680    1.4540 C.2     1  UNL1        0.0000
     12  C          5.4700    0.3010    1.8200 C.2     1  UNL1        0.0000
@<TRIPOS>BOND
     1     5     4    1
     2     4     2    1
     3     3     2    2
     4     2     1    1
     5     1     6    1
     6     6     7    1
     7     7     8    2
     8     7     9    1
     9     8    10    1
    10     9    11    2
    11    10    12    2
    12    11    12    1
