@<TRIPOS>MOLECULE
/home/cewinharhar/GITHUB/reincatalyze/data/processed/docking_pred/2023_Apr_20-15:07/9cf679a9c5542d052f5b9fd38195e755841f8057_ligand_2.pdbqt
 12 12 0 0 0
SMALL
GASTEIGER

@<TRIPOS>ATOM
      1  C          8.0980   -2.0790    0.8290 C.3     1  UNL1        0.1270
      2  C          8.7900   -3.3020    0.3590 C.2     1  UNL1        0.3030
      3  O          9.6270   -3.8960    1.0830 O.2     1  UNL1       -0.2520
      4  O          8.5320   -3.8260   -0.8980 O.3     1  UNL1       -0.4810
      5  H          7.6120   -3.6780   -1.3220 H       1  UNL1        0.2960
      6  C          7.3470   -1.4900   -0.3260 C.3     1  UNL1        0.0470
      7  C          6.5320   -0.3280    0.0250 C.2     1  UNL1       -0.0470
      8  C          6.3120    0.6780   -0.8870 C.2     1  UNL1        0.0040
      9  C          5.9810   -0.2500    1.2830 C.2     1  UNL1        0.0040
     10  C          5.5230    1.7570   -0.4830 C.2     1  UNL1        0.0000
     11  C          5.2010    0.8170    1.6810 C.2     1  UNL1        0.0000
     12  C          4.9770    1.8300    0.7740 C.2     1  UNL1        0.0000
@<TRIPOS>BOND
     1     5     4    1
     2     4     2    1
     3     8    10    1
     4     8     7    2
     5    10    12    2
     6     6     7    1
     7     6     1    1
     8     7     9    1
     9     2     1    1
    10     2     3    2
    11    12    11    1
    12     9    11    2
