@<TRIPOS>MOLECULE
/home/cewinharhar/GITHUB/reincatalyze/data/processed/docking_pred/2023_Apr_20-15:07/9cf679a9c5542d052f5b9fd38195e755841f8057_ligand_2.pdbqt
 12 12 0 0 0
SMALL
GASTEIGER

@<TRIPOS>ATOM
      1  C          8.4330   -0.5640   -2.2350 C.3     1  UNL1        0.1270
      2  C          8.4840   -1.8740   -2.9250 C.2     1  UNL1        0.3030
      3  O          9.5710   -2.4830   -3.0870 O.2     1  UNL1       -0.2520
      4  O          7.3290   -2.4660   -3.4120 O.3     1  UNL1       -0.4810
      5  H          6.9200   -3.2560   -2.9060 H       1  UNL1        0.2960
      6  C          7.0040   -0.1180   -2.1760 C.3     1  UNL1        0.0470
      7  C          6.4840    0.0310   -0.8170 C.2     1  UNL1       -0.0470
      8  C          6.6250   -0.9800    0.1050 C.2     1  UNL1        0.0040
      9  C          5.8500    1.2010   -0.4660 C.2     1  UNL1        0.0040
     10  C          6.1050   -0.7680    1.3840 C.2     1  UNL1        0.0000
     11  C          5.3360    1.4080    0.7980 C.2     1  UNL1        0.0000
     12  C          5.4720    0.4000    1.7280 C.2     1  UNL1        0.0000
@<TRIPOS>BOND
     1     4     2    1
     2     4     5    1
     3     3     2    2
     4     2     1    1
     5     1     6    1
     6     6     7    1
     7     7     9    2
     8     7     8    1
     9     9    11    1
    10     8    10    2
    11    11    12    2
    12    10    12    1
