@<TRIPOS>MOLECULE
/home/cewinharhar/GITHUB/reincatalyze/data/processed/docking_pred/2023_Apr_20-15:07/9cf679a9c5542d052f5b9fd38195e755841f8057_ligand_2.pdbqt
 12 12 0 0 0
SMALL
GASTEIGER

@<TRIPOS>ATOM
      1  C          4.9990    1.7770    0.7010 C.3     1  UNL1        0.1270
      2  C          4.4880    1.1000    1.9160 C.2     1  UNL1        0.3030
      3  O          5.1480    0.1950    2.4840 O.2     1  UNL1       -0.2520
      4  O          3.2630    1.4500    2.4610 O.3     1  UNL1       -0.4810
      5  H          3.0780    1.2520    3.4480 H       1  UNL1        0.2960
      6  C          6.4970    1.7580    0.7470 C.3     1  UNL1        0.0470
      7  C          7.1160    0.9920   -0.3330 C.2     1  UNL1       -0.0470
      8  C          6.3870    0.0700   -1.0490 C.2     1  UNL1        0.0040
      9  C          8.4420    1.2020   -0.6320 C.2     1  UNL1        0.0040
     10  C          7.0420   -0.6250   -2.0670 C.2     1  UNL1        0.0000
     11  C          9.0890    0.5140   -1.6390 C.2     1  UNL1        0.0000
     12  C          8.3660   -0.4110   -2.3600 C.2     1  UNL1        0.0000
@<TRIPOS>BOND
     1    12    10    2
     2    12    11    1
     3    10     8    1
     4    11     9    2
     5     8     7    2
     6     9     7    1
     7     7     6    1
     8     1     6    1
     9     1     2    1
    10     2     4    1
    11     2     3    2
    12     4     5    1
