@<TRIPOS>MOLECULE
/home/cewinharhar/GITHUB/reincatalyze/data/processed/docking_pred/2023_Apr_20-15:07/9cf679a9c5542d052f5b9fd38195e755841f8057_ligand_2.pdbqt
 12 12 0 0 0
SMALL
GASTEIGER

@<TRIPOS>ATOM
      1  C          8.3130    0.1400   -1.9530 C.3     1  UNL1        0.1270
      2  C          9.4480    0.1340   -1.0000 C.2     1  UNL1        0.3030
      3  O          9.4090   -0.5480    0.0540 O.2     1  UNL1       -0.2520
      4  O         10.5870    0.8820   -1.2480 O.3     1  UNL1       -0.4810
      5  H         11.5050    0.4320   -1.1880 H       1  UNL1        0.2960
      6  C          7.1710   -0.6030   -1.3300 C.3     1  UNL1        0.0470
      7  C          6.3500    0.2100   -0.4340 C.2     1  UNL1       -0.0470
      8  C          6.0670   -0.2190    0.8420 C.2     1  UNL1        0.0040
      9  C          5.8630    1.4160   -0.8790 C.2     1  UNL1        0.0040
     10  C          5.2780    0.6090    1.6440 C.2     1  UNL1        0.0000
     11  C          5.0830    2.2340   -0.0850 C.2     1  UNL1        0.0000
     12  C          4.7940    1.8120    1.1940 C.2     1  UNL1        0.0000
@<TRIPOS>BOND
     1     1     6    1
     2     1     2    1
     3     6     7    1
     4     4     5    1
     5     4     2    1
     6     2     3    2
     7     9     7    2
     8     9    11    1
     9     7     8    1
    10    11    12    2
    11     8    10    2
    12    12    10    1
