MODEL 1
REMARK VINA RESULT:      -7.3      0.000      0.000
REMARK SMILES O=C(O)CCc1ccccc1
REMARK SMILES IDX 4 1 2 2 1 3 3 4 5 6 6 7 7 8 11 9 8 10 10 11 9 12
REMARK H PARENT 3 5
REMARK Flexibility Score: inf
ROOT
ATOM      1  C   UNL     1       8.433  -0.564  -2.235  1.00  0.00     0.127 C 
ENDROOT
BRANCH   1   2
ATOM      2  C   UNL     1       8.484  -1.874  -2.925  1.00  0.00     0.303 C 
ATOM      3  O   UNL     1       9.571  -2.483  -3.087  1.00  0.00    -0.252 OA
BRANCH   2   4
ATOM      4  O   UNL     1       7.329  -2.466  -3.412  1.00  0.00    -0.481 OA
ATOM      5  H   UNL     1       6.920  -3.256  -2.906  1.00  0.00     0.296 HD
ENDBRANCH   2   4
ENDBRANCH   1   2
BRANCH   1   6
ATOM      6  C   UNL     1       7.004  -0.118  -2.176  1.00  0.00     0.047 C 
BRANCH   6   7
ATOM      7  C   UNL     1       6.484   0.031  -0.817  1.00  0.00    -0.047 A 
ATOM      8  C   UNL     1       6.625  -0.980   0.105  1.00  0.00     0.004 A 
ATOM      9  C   UNL     1       5.850   1.201  -0.466  1.00  0.00     0.004 A 
ATOM     10  C   UNL     1       6.105  -0.768   1.384  1.00  0.00     0.000 A 
ATOM     11  C   UNL     1       5.336   1.408   0.798  1.00  0.00     0.000 A 
ATOM     12  C   UNL     1       5.472   0.400   1.728  1.00  0.00     0.000 A 
ENDBRANCH   6   7
ENDBRANCH   1   6
TORSDOF 4
ENDMDL
MODEL 2
REMARK VINA RESULT:      -7.3      0.177      1.737
REMARK SMILES O=C(O)CCc1ccccc1
REMARK SMILES IDX 4 1 2 2 1 3 3 4 5 6 6 7 7 8 11 9 8 10 10 11 9 12
REMARK H PARENT 3 5
REMARK Flexibility Score: inf
ROOT
ATOM      1  C   UNL     1       8.407  -0.739  -1.979  1.00  0.00     0.127 C 
ENDROOT
BRANCH   1   2
ATOM      2  C   UNL     1       8.371  -1.935  -2.853  1.00  0.00     0.303 C 
ATOM      3  O   UNL     1       7.282  -2.410  -3.261  1.00  0.00    -0.252 OA
BRANCH   2   4
ATOM      4  O   UNL     1       9.542  -2.565  -3.243  1.00  0.00    -0.481 OA
ATOM      5  H   UNL     1       9.496  -3.511  -3.631  1.00  0.00     0.296 HD
ENDBRANCH   2   4
ENDBRANCH   1   2
BRANCH   1   6
ATOM      6  C   UNL     1       7.055  -0.093  -2.010  1.00  0.00     0.047 C 
BRANCH   6   7
ATOM      7  C   UNL     1       6.458   0.097  -0.689  1.00  0.00    -0.047 A 
ATOM      8  C   UNL     1       5.795   1.262  -0.378  1.00  0.00     0.004 A 
ATOM      9  C   UNL     1       6.563  -0.906   0.246  1.00  0.00     0.004 A 
ATOM     10  C   UNL     1       5.248   1.375   0.902  1.00  0.00     0.000 A 
ATOM     11  C   UNL     1       6.021  -0.793   1.511  1.00  0.00     0.000 A 
ATOM     12  C   UNL     1       5.357   0.371   1.831  1.00  0.00     0.000 A 
ENDBRANCH   6   7
ENDBRANCH   1   6
TORSDOF 4
ENDMDL
MODEL 3
REMARK VINA RESULT:      -6.8      3.375      5.052
REMARK SMILES O=C(O)CCc1ccccc1
REMARK SMILES IDX 4 1 2 2 1 3 3 4 5 6 6 7 7 8 11 9 8 10 10 11 9 12
REMARK H PARENT 3 5
REMARK Flexibility Score: inf
ROOT
ATOM      1  C   UNL     1       4.999   1.777   0.701  1.00  0.00     0.127 C 
ENDROOT
BRANCH   1   2
ATOM      2  C   UNL     1       4.488   1.100   1.916  1.00  0.00     0.303 C 
ATOM      3  O   UNL     1       5.148   0.195   2.484  1.00  0.00    -0.252 OA
BRANCH   2   4
ATOM      4  O   UNL     1       3.263   1.450   2.461  1.00  0.00    -0.481 OA
ATOM      5  H   UNL     1       3.078   1.252   3.448  1.00  0.00     0.296 HD
ENDBRANCH   2   4
ENDBRANCH   1   2
BRANCH   1   6
ATOM      6  C   UNL     1       6.497   1.758   0.747  1.00  0.00     0.047 C 
BRANCH   6   7
ATOM      7  C   UNL     1       7.116   0.992  -0.333  1.00  0.00    -0.047 A 
ATOM      8  C   UNL     1       6.387   0.070  -1.049  1.00  0.00     0.004 A 
ATOM      9  C   UNL     1       8.442   1.202  -0.632  1.00  0.00     0.004 A 
ATOM     10  C   UNL     1       7.042  -0.625  -2.067  1.00  0.00     0.000 A 
ATOM     11  C   UNL     1       9.089   0.514  -1.639  1.00  0.00     0.000 A 
ATOM     12  C   UNL     1       8.366  -0.411  -2.360  1.00  0.00     0.000 A 
ENDBRANCH   6   7
ENDBRANCH   1   6
TORSDOF 4
ENDMDL
MODEL 4
REMARK VINA RESULT:      -6.6      2.006      2.756
REMARK SMILES O=C(O)CCc1ccccc1
REMARK SMILES IDX 4 1 2 2 1 3 3 4 5 6 6 7 7 8 11 9 8 10 10 11 9 12
REMARK H PARENT 3 5
REMARK Flexibility Score: inf
ROOT
ATOM      1  C   UNL     1       8.098  -2.079   0.829  1.00  0.00     0.127 C 
ENDROOT
BRANCH   1   2
ATOM      2  C   UNL     1       8.790  -3.302   0.359  1.00  0.00     0.303 C 
ATOM      3  O   UNL     1       9.627  -3.896   1.083  1.00  0.00    -0.252 OA
BRANCH   2   4
ATOM      4  O   UNL     1       8.532  -3.826  -0.898  1.00  0.00    -0.481 OA
ATOM      5  H   UNL     1       7.612  -3.678  -1.322  1.00  0.00     0.296 HD
ENDBRANCH   2   4
ENDBRANCH   1   2
BRANCH   1   6
ATOM      6  C   UNL     1       7.347  -1.490  -0.326  1.00  0.00     0.047 C 
BRANCH   6   7
ATOM      7  C   UNL     1       6.532  -0.328   0.025  1.00  0.00    -0.047 A 
ATOM      8  C   UNL     1       6.312   0.678  -0.887  1.00  0.00     0.004 A 
ATOM      9  C   UNL     1       5.981  -0.250   1.283  1.00  0.00     0.004 A 
ATOM     10  C   UNL     1       5.523   1.757  -0.483  1.00  0.00     0.000 A 
ATOM     11  C   UNL     1       5.201   0.817   1.681  1.00  0.00     0.000 A 
ATOM     12  C   UNL     1       4.977   1.830   0.774  1.00  0.00     0.000 A 
ENDBRANCH   6   7
ENDBRANCH   1   6
TORSDOF 4
ENDMDL
MODEL 5
REMARK VINA RESULT:      -6.5      1.986      2.318
REMARK SMILES O=C(O)CCc1ccccc1
REMARK SMILES IDX 4 1 2 2 1 3 3 4 5 6 6 7 7 8 11 9 8 10 10 11 9 12
REMARK H PARENT 3 5
REMARK Flexibility Score: inf
ROOT
ATOM      1  C   UNL     1       8.313   0.140  -1.953  1.00  0.00     0.127 C 
ENDROOT
BRANCH   1   2
ATOM      2  C   UNL     1       9.448   0.134  -1.000  1.00  0.00     0.303 C 
ATOM      3  O   UNL     1       9.409  -0.548   0.054  1.00  0.00    -0.252 OA
BRANCH   2   4
ATOM      4  O   UNL     1      10.587   0.882  -1.248  1.00  0.00    -0.481 OA
ATOM      5  H   UNL     1      11.505   0.432  -1.188  1.00  0.00     0.296 HD
ENDBRANCH   2   4
ENDBRANCH   1   2
BRANCH   1   6
ATOM      6  C   UNL     1       7.171  -0.603  -1.330  1.00  0.00     0.047 C 
BRANCH   6   7
ATOM      7  C   UNL     1       6.350   0.210  -0.434  1.00  0.00    -0.047 A 
ATOM      8  C   UNL     1       6.067  -0.219   0.842  1.00  0.00     0.004 A 
ATOM      9  C   UNL     1       5.863   1.416  -0.879  1.00  0.00     0.004 A 
ATOM     10  C   UNL     1       5.278   0.609   1.644  1.00  0.00     0.000 A 
ATOM     11  C   UNL     1       5.083   2.234  -0.085  1.00  0.00     0.000 A 
ATOM     12  C   UNL     1       4.794   1.812   1.194  1.00  0.00     0.000 A 
ENDBRANCH   6   7
ENDBRANCH   1   6
TORSDOF 4
ENDMDL
