@<TRIPOS>MOLECULE
/home/cewinharhar/GITHUB/reincatalyze/data/processed/docking_pred/2023_Apr_20-15:07/9cf679a9c5542d052f5b9fd38195e755841f8057_ligand_2.pdbqt
 12 12 0 0 0
SMALL
GASTEIGER

@<TRIPOS>ATOM
      1  C          8.4070   -0.7390   -1.9790 C.3     1  UNL1        0.1270
      2  C          8.3710   -1.9350   -2.8530 C.2     1  UNL1        0.3030
      3  O          7.2820   -2.4100   -3.2610 O.2     1  UNL1       -0.2520
      4  O          9.5420   -2.5650   -3.2430 O.3     1  UNL1       -0.4810
      5  H          9.4960   -3.5110   -3.6310 H       1  UNL1        0.2960
      6  C          7.0550   -0.0930   -2.0100 C.3     1  UNL1        0.0470
      7  C          6.4580    0.0970   -0.6890 C.2     1  UNL1       -0.0470
      8  C          5.7950    1.2620   -0.3780 C.2     1  UNL1        0.0040
      9  C          6.5630   -0.9060    0.2460 C.2     1  UNL1        0.0040
     10  C          5.2480    1.3750    0.9020 C.2     1  UNL1        0.0000
     11  C          6.0210   -0.7930    1.5110 C.2     1  UNL1        0.0000
     12  C          5.3570    0.3710    1.8310 C.2     1  UNL1        0.0000
@<TRIPOS>BOND
     1     5     4    1
     2     3     2    2
     3     4     2    1
     4     2     1    1
     5     6     1    1
     6     6     7    1
     7     7     8    2
     8     7     9    1
     9     8    10    1
    10     9    11    2
    11    10    12    2
    12    11    12    1
