@<TRIPOS>MOLECULE
/home/cewinharhar/GITHUB/reincatalyze/data/processed/docking_pred/2023_Apr_20-15:07/9e6208548f5309b91e7f4e881f40d3475c8e3dc2_ligand_2.pdbqt
 12 12 0 0 0
SMALL
GASTEIGER

@<TRIPOS>ATOM
      1  C          5.0330    1.7120    0.6760 C.3     1  UNL1        0.1270
      2  C          4.5990    1.0280    1.9170 C.2     1  UNL1        0.3030
      3  O          5.3320    0.1780    2.4820 O.2     1  UNL1       -0.2520
      4  O          3.3690    1.3080    2.4900 O.3     1  UNL1       -0.4810
      5  H          2.5520    1.4320    1.8850 H       1  UNL1        0.2960
      6  C          6.5290    1.7970    0.6850 C.3     1  UNL1        0.0470
      7  C          7.1740    1.0320   -0.3800 C.2     1  UNL1       -0.0470
      8  C          8.5160    1.1860   -0.6440 C.2     1  UNL1        0.0040
      9  C          6.4240    0.1480   -1.1210 C.2     1  UNL1        0.0040
     10  C          9.0660    0.4210   -1.6750 C.2     1  UNL1        0.0000
     11  C          6.9690   -0.6070   -2.1400 C.2     1  UNL1        0.0000
     12  C          8.3120   -0.4580   -2.4110 C.2     1  UNL1        0.0000
@<TRIPOS>BOND
     1    12    11    2
     2    12    10    1
     3    11     9    1
     4    10     8    2
     5     9     7    2
     6     8     7    1
     7     7     6    1
     8     1     6    1
     9     1     2    1
    10     5     4    1
    11     2     3    2
    12     2     4    1
