@<TRIPOS>MOLECULE
/home/cewinharhar/GITHUB/reincatalyze/data/processed/docking_pred/2023_Apr_20-15:07/9e6208548f5309b91e7f4e881f40d3475c8e3dc2_ligand_2.pdbqt
 12 12 0 0 0
SMALL
GASTEIGER

@<TRIPOS>ATOM
      1  C          8.2600    0.2140   -2.1320 C.3     1  UNL1        0.1270
      2  C          9.3990    0.3540   -1.1950 C.2     1  UNL1        0.3030
      3  O          9.4990   -0.3770   -0.1780 O.2     1  UNL1       -0.2520
      4  O         10.3880    1.2990   -1.4150 O.3     1  UNL1       -0.4810
      5  H         10.2040    2.0770   -2.0550 H       1  UNL1        0.2960
      6  C          7.1810   -0.5690   -1.4480 C.3     1  UNL1        0.0470
      7  C          6.3770    0.2170   -0.5140 C.2     1  UNL1       -0.0470
      8  C          6.1480   -0.2320    0.7660 C.2     1  UNL1        0.0040
      9  C          5.8500    1.4180   -0.9270 C.2     1  UNL1        0.0040
     10  C          5.3720    0.5710    1.6050 C.2     1  UNL1        0.0000
     11  C          5.0820    2.2110   -0.0970 C.2     1  UNL1        0.0000
     12  C          4.8480    1.7680    1.1870 C.2     1  UNL1        0.0000
@<TRIPOS>BOND
     1     1     6    1
     2     1     2    1
     3     5     4    1
     4     6     7    1
     5     4     2    1
     6     2     3    2
     7     9     7    2
     8     9    11    1
     9     7     8    1
    10    11    12    2
    11     8    10    2
    12    12    10    1
