@<TRIPOS>MOLECULE
/home/cewinharhar/GITHUB/reincatalyze/data/processed/docking_pred/2023_Apr_20-15:07/9e6208548f5309b91e7f4e881f40d3475c8e3dc2_ligand_2.pdbqt
 12 12 0 0 0
SMALL
GASTEIGER

@<TRIPOS>ATOM
      1  C          8.4530   -0.6090   -2.1520 C.3     1  UNL1        0.1270
      2  C          8.4900   -1.8770   -2.9180 C.2     1  UNL1        0.3030
      3  O          9.5710   -2.4840   -3.1200 O.2     1  UNL1       -0.2520
      4  O          7.3290   -2.4300   -3.4330 O.3     1  UNL1       -0.4810
      5  H          7.3770   -2.9920   -4.2870 H       1  UNL1        0.2960
      6  C          7.0390   -0.1130   -2.1320 C.3     1  UNL1        0.0470
      7  C          6.4870    0.0540   -0.7890 C.2     1  UNL1       -0.0470
      8  C          6.6140   -0.9410    0.1530 C.2     1  UNL1        0.0040
      9  C          5.8360    1.2230   -0.4710 C.2     1  UNL1        0.0040
     10  C          6.0630   -0.7140    1.4160 C.2     1  UNL1        0.0000
     11  C          5.2910    1.4460    0.7780 C.2     1  UNL1        0.0000
     12  C          5.4130    0.4540    1.7270 C.2     1  UNL1        0.0000
@<TRIPOS>BOND
     1     5     4    1
     2     4     2    1
     3     3     2    2
     4     2     1    1
     5     1     6    1
     6     6     7    1
     7     7     9    2
     8     7     8    1
     9     9    11    1
    10     8    10    2
    11    11    12    2
    12    10    12    1
