@<TRIPOS>MOLECULE
/home/cewinharhar/GITHUB/reincatalyze/data/processed/docking_pred/2023_Apr_20-15:07/9e6208548f5309b91e7f4e881f40d3475c8e3dc2_ligand_2.pdbqt
 12 12 0 0 0
SMALL
GASTEIGER

@<TRIPOS>ATOM
      1  C          8.4260   -0.5860   -2.2190 C.3     1  UNL1        0.1270
      2  C          8.4710   -1.8910   -2.9200 C.2     1  UNL1        0.3030
      3  O          9.5570   -2.4980   -3.0950 O.2     1  UNL1       -0.2520
      4  O          7.3130   -2.4780   -3.4020 O.3     1  UNL1       -0.4810
      5  H          7.0220   -3.3880   -3.0340 H       1  UNL1        0.2960
      6  C          7.0010   -0.1270   -2.1700 C.3     1  UNL1        0.0470
      7  C          6.4780    0.0470   -0.8160 C.2     1  UNL1       -0.0470
      8  C          5.8550    1.2170   -0.4470 C.2     1  UNL1        0.0040
      9  C          6.6140   -0.9770    0.0930 C.2     1  UNL1        0.0040
     10  C          5.3800    1.3120    0.8630 C.2     1  UNL1        0.0000
     11  C          6.1430   -0.8810    1.3870 C.2     1  UNL1        0.0000
     12  C          5.5180    0.2880    1.7650 C.2     1  UNL1        0.0000
@<TRIPOS>BOND
     1     4     5    1
     2     4     2    1
     3     3     2    2
     4     2     1    1
     5     1     6    1
     6     6     7    1
     7     7     8    2
     8     7     9    1
     9     8    10    1
    10     9    11    2
    11    10    12    2
    12    11    12    1
