@<TRIPOS>MOLECULE
/home/cewinharhar/GITHUB/reincatalyze/data/processed/docking_pred/2023_Apr_20-15:07/9e6208548f5309b91e7f4e881f40d3475c8e3dc2_ligand_2.pdbqt
 12 12 0 0 0
SMALL
GASTEIGER

@<TRIPOS>ATOM
      1  C          5.4210    2.8940    0.0250 C.3     1  UNL1        0.1270
      2  C          6.2410    3.8420    0.8150 C.2     1  UNL1        0.3030
      3  O          6.9120    4.7440    0.2550 O.2     1  UNL1       -0.2520
      4  O          6.2910    3.7580    2.1970 O.3     1  UNL1       -0.4810
      5  H          7.0240    4.2610    2.7040 H       1  UNL1        0.2960
      6  C          4.9140    1.8280    0.9490 C.3     1  UNL1        0.0470
      7  C          5.7170    0.6070    0.9450 C.2     1  UNL1       -0.0470
      8  C          6.4060    0.2220   -0.1820 C.2     1  UNL1        0.0040
      9  C          5.7790   -0.1600    2.0860 C.2     1  UNL1        0.0040
     10  C          7.1540   -0.9560   -0.1140 C.2     1  UNL1        0.0000
     11  C          6.5190   -1.3240    2.1510 C.2     1  UNL1        0.0000
     12  C          7.2120   -1.7170    1.0270 C.2     1  UNL1        0.0000
@<TRIPOS>BOND
     1     8    10    1
     2     8     7    2
     3    10    12    2
     4     1     2    1
     5     1     6    1
     6     3     2    2
     7     2     4    1
     8     7     6    1
     9     7     9    1
    10    12    11    1
    11     9    11    2
    12     4     5    1
