@<TRIPOS>MOLECULE
/home/cewinharhar/GITHUB/reincatalyze/data/processed/docking_pred/2023_Apr_20-15:07/9fad910e57fbde25b93c61ef9d3287f531a6e420_ligand_2.pdbqt
 12 12 0 0 0
SMALL
GASTEIGER

@<TRIPOS>ATOM
      1  C          8.4060   -0.6840   -2.0530 C.3     1  UNL1        0.1270
      2  C          8.3720   -1.9100   -2.8850 C.2     1  UNL1        0.3030
      3  O          7.2840   -2.4140   -3.2580 O.2     1  UNL1       -0.2520
      4  O          9.5450   -2.5370   -3.2740 O.3     1  UNL1       -0.4810
      5  H          9.4940   -3.4120   -3.8030 H       1  UNL1        0.2960
      6  C          7.0410   -0.0670   -2.0680 C.3     1  UNL1        0.0470
      7  C          6.4550    0.1130   -0.7410 C.2     1  UNL1       -0.0470
      8  C          6.5550   -0.8740    0.2120 C.2     1  UNL1        0.0040
      9  C          5.7990    1.2870   -0.4510 C.2     1  UNL1        0.0040
     10  C          5.9730   -0.6330    1.4580 C.2     1  UNL1        0.0000
     11  C          5.2230    1.5230    0.7810 C.2     1  UNL1        0.0000
     12  C          5.3190    0.5390    1.7420 C.2     1  UNL1        0.0000
@<TRIPOS>BOND
     1     5     4    1
     2     4     2    1
     3     3     2    2
     4     2     1    1
     5     6     1    1
     6     6     7    1
     7     7     9    2
     8     7     8    1
     9     9    11    1
    10     8    10    2
    11    11    12    2
    12    10    12    1
