MODEL 1
REMARK VINA RESULT:      -7.3      0.000      0.000
REMARK SMILES O=C(O)CCc1ccccc1
REMARK SMILES IDX 4 1 2 2 1 3 3 4 5 6 6 7 7 8 11 9 8 10 10 11 9 12
REMARK H PARENT 3 5
REMARK Flexibility Score: inf
ROOT
ATOM      1  C   UNL     1       8.457  -0.635  -2.115  1.00  0.00     0.127 C 
ENDROOT
BRANCH   1   2
ATOM      2  C   UNL     1       8.471  -1.901  -2.884  1.00  0.00     0.303 C 
ATOM      3  O   UNL     1       9.539  -2.531  -3.080  1.00  0.00    -0.252 OA
BRANCH   2   4
ATOM      4  O   UNL     1       7.301  -2.426  -3.410  1.00  0.00    -0.481 OA
ATOM      5  H   UNL     1       6.762  -3.099  -2.859  1.00  0.00     0.296 HD
ENDBRANCH   2   4
ENDBRANCH   1   2
BRANCH   1   6
ATOM      6  C   UNL     1       7.054  -0.107  -2.102  1.00  0.00     0.047 C 
BRANCH   6   7
ATOM      7  C   UNL     1       6.498   0.069  -0.762  1.00  0.00    -0.047 A 
ATOM      8  C   UNL     1       5.859   1.236  -0.413  1.00  0.00     0.004 A 
ATOM      9  C   UNL     1       6.617  -0.951   0.154  1.00  0.00     0.004 A 
ATOM     10  C   UNL     1       5.351   1.335   0.884  1.00  0.00     0.000 A 
ATOM     11  C   UNL     1       6.114  -0.852   1.436  1.00  0.00     0.000 A 
ATOM     12  C   UNL     1       5.474   0.315   1.794  1.00  0.00     0.000 A 
ENDBRANCH   6   7
ENDBRANCH   1   6
TORSDOF 4
ENDMDL
MODEL 2
REMARK VINA RESULT:      -7.3      0.169      1.735
REMARK SMILES O=C(O)CCc1ccccc1
REMARK SMILES IDX 4 1 2 2 1 3 3 4 5 6 6 7 7 8 11 9 8 10 10 11 9 12
REMARK H PARENT 3 5
REMARK Flexibility Score: inf
ROOT
ATOM      1  C   UNL     1       8.406  -0.684  -2.053  1.00  0.00     0.127 C 
ENDROOT
BRANCH   1   2
ATOM      2  C   UNL     1       8.372  -1.910  -2.885  1.00  0.00     0.303 C 
ATOM      3  O   UNL     1       7.284  -2.414  -3.258  1.00  0.00    -0.252 OA
BRANCH   2   4
ATOM      4  O   UNL     1       9.545  -2.537  -3.274  1.00  0.00    -0.481 OA
ATOM      5  H   UNL     1       9.494  -3.412  -3.803  1.00  0.00     0.296 HD
ENDBRANCH   2   4
ENDBRANCH   1   2
BRANCH   1   6
ATOM      6  C   UNL     1       7.041  -0.067  -2.068  1.00  0.00     0.047 C 
BRANCH   6   7
ATOM      7  C   UNL     1       6.455   0.113  -0.741  1.00  0.00    -0.047 A 
ATOM      8  C   UNL     1       6.555  -0.874   0.212  1.00  0.00     0.004 A 
ATOM      9  C   UNL     1       5.799   1.287  -0.451  1.00  0.00     0.004 A 
ATOM     10  C   UNL     1       5.973  -0.633   1.458  1.00  0.00     0.000 A 
ATOM     11  C   UNL     1       5.223   1.523   0.781  1.00  0.00     0.000 A 
ATOM     12  C   UNL     1       5.319   0.539   1.742  1.00  0.00     0.000 A 
ENDBRANCH   6   7
ENDBRANCH   1   6
TORSDOF 4
ENDMDL
MODEL 3
REMARK VINA RESULT:      -6.7      3.364      5.046
REMARK SMILES O=C(O)CCc1ccccc1
REMARK SMILES IDX 4 1 2 2 1 3 3 4 5 6 6 7 7 8 11 9 8 10 10 11 9 12
REMARK H PARENT 3 5
REMARK Flexibility Score: inf
ROOT
ATOM      1  C   UNL     1       5.009   1.786   0.684  1.00  0.00     0.127 C 
ENDROOT
BRANCH   1   2
ATOM      2  C   UNL     1       4.512   1.113   1.907  1.00  0.00     0.303 C 
ATOM      3  O   UNL     1       5.190   0.227   2.484  1.00  0.00    -0.252 OA
BRANCH   2   4
ATOM      4  O   UNL     1       3.281   1.444   2.449  1.00  0.00    -0.481 OA
ATOM      5  H   UNL     1       2.451   0.915   2.169  1.00  0.00     0.296 HD
ENDBRANCH   2   4
ENDBRANCH   1   2
BRANCH   1   6
ATOM      6  C   UNL     1       6.506   1.812   0.736  1.00  0.00     0.047 C 
BRANCH   6   7
ATOM      7  C   UNL     1       7.152   1.067  -0.344  1.00  0.00    -0.047 A 
ATOM      8  C   UNL     1       8.492   1.231  -0.607  1.00  0.00     0.004 A 
ATOM      9  C   UNL     1       6.403   0.193  -1.098  1.00  0.00     0.004 A 
ATOM     10  C   UNL     1       9.043   0.487  -1.653  1.00  0.00     0.000 A 
ATOM     11  C   UNL     1       6.949  -0.541  -2.131  1.00  0.00     0.000 A 
ATOM     12  C   UNL     1       8.291  -0.382  -2.403  1.00  0.00     0.000 A 
ENDBRANCH   6   7
ENDBRANCH   1   6
TORSDOF 4
ENDMDL
MODEL 4
REMARK VINA RESULT:      -6.6      1.947      2.238
REMARK SMILES O=C(O)CCc1ccccc1
REMARK SMILES IDX 4 1 2 2 1 3 3 4 5 6 6 7 7 8 11 9 8 10 10 11 9 12
REMARK H PARENT 3 5
REMARK Flexibility Score: inf
ROOT
ATOM      1  C   UNL     1       8.162   0.247  -2.079  1.00  0.00     0.127 C 
ENDROOT
BRANCH   1   2
ATOM      2  C   UNL     1       9.342   0.363  -1.191  1.00  0.00     0.303 C 
ATOM      3  O   UNL     1       9.474  -0.375  -0.183  1.00  0.00    -0.252 OA
BRANCH   2   4
ATOM      4  O   UNL     1      10.336   1.293  -1.450  1.00  0.00    -0.481 OA
ATOM      5  H   UNL     1      11.317   1.000  -1.420  1.00  0.00     0.296 HD
ENDBRANCH   2   4
ENDBRANCH   1   2
BRANCH   1   6
ATOM      6  C   UNL     1       7.142  -0.614  -1.396  1.00  0.00     0.047 C 
BRANCH   6   7
ATOM      7  C   UNL     1       6.357   0.086  -0.381  1.00  0.00    -0.047 A 
ATOM      8  C   UNL     1       5.808   1.320  -0.644  1.00  0.00     0.004 A 
ATOM      9  C   UNL     1       6.169  -0.504   0.847  1.00  0.00     0.004 A 
ATOM     10  C   UNL     1       5.068   1.930   0.372  1.00  0.00     0.000 A 
ATOM     11  C   UNL     1       5.438   0.101   1.850  1.00  0.00     0.000 A 
ATOM     12  C   UNL     1       4.885   1.337   1.595  1.00  0.00     0.000 A 
ENDBRANCH   6   7
ENDBRANCH   1   6
TORSDOF 4
ENDMDL
MODEL 5
REMARK VINA RESULT:      -6.5      3.721      5.025
REMARK SMILES O=C(O)CCc1ccccc1
REMARK SMILES IDX 4 1 2 2 1 3 3 4 5 6 6 7 7 8 11 9 8 10 10 11 9 12
REMARK H PARENT 3 5
REMARK Flexibility Score: inf
ROOT
ATOM      1  C   UNL     1       5.312   2.896   0.076  1.00  0.00     0.127 C 
ENDROOT
BRANCH   1   2
ATOM      2  C   UNL     1       6.182   3.798   0.868  1.00  0.00     0.303 C 
ATOM      3  O   UNL     1       6.251   3.703   2.118  1.00  0.00    -0.252 OA
BRANCH   2   4
ATOM      4  O   UNL     1       6.945   4.774   0.247  1.00  0.00    -0.481 OA
ATOM      5  H   UNL     1       6.585   5.230  -0.596  1.00  0.00     0.296 HD
ENDBRANCH   2   4
ENDBRANCH   1   2
BRANCH   1   6
ATOM      6  C   UNL     1       5.037   1.671   0.893  1.00  0.00     0.047 C 
BRANCH   6   7
ATOM      7  C   UNL     1       5.937   0.554   0.613  1.00  0.00    -0.047 A 
ATOM      8  C   UNL     1       6.439  -0.218   1.635  1.00  0.00     0.004 A 
ATOM      9  C   UNL     1       6.280   0.279  -0.691  1.00  0.00     0.004 A 
ATOM     10  C   UNL     1       7.293  -1.269   1.293  1.00  0.00     0.000 A 
ATOM     11  C   UNL     1       7.125  -0.760  -1.026  1.00  0.00     0.000 A 
ATOM     12  C   UNL     1       7.632  -1.538  -0.009  1.00  0.00     0.000 A 
ENDBRANCH   6   7
ENDBRANCH   1   6
TORSDOF 4
ENDMDL
