@<TRIPOS>MOLECULE
/home/cewinharhar/GITHUB/reincatalyze/data/processed/docking_pred/2023_Apr_20-15:07/9fad910e57fbde25b93c61ef9d3287f531a6e420_ligand_2.pdbqt
 12 12 0 0 0
SMALL
GASTEIGER

@<TRIPOS>ATOM
      1  C          5.0090    1.7860    0.6840 C.3     1  UNL1        0.1270
      2  C          4.5120    1.1130    1.9070 C.2     1  UNL1        0.3030
      3  O          5.1900    0.2270    2.4840 O.2     1  UNL1       -0.2520
      4  O          3.2810    1.4440    2.4490 O.3     1  UNL1       -0.4810
      5  H          2.4510    0.9150    2.1690 H       1  UNL1        0.2960
      6  C          6.5060    1.8120    0.7360 C.3     1  UNL1        0.0470
      7  C          7.1520    1.0670   -0.3440 C.2     1  UNL1       -0.0470
      8  C          8.4920    1.2310   -0.6070 C.2     1  UNL1        0.0040
      9  C          6.4030    0.1930   -1.0980 C.2     1  UNL1        0.0040
     10  C          9.0430    0.4870   -1.6530 C.2     1  UNL1        0.0000
     11  C          6.9490   -0.5410   -2.1310 C.2     1  UNL1        0.0000
     12  C          8.2910   -0.3820   -2.4030 C.2     1  UNL1        0.0000
@<TRIPOS>BOND
     1    12    11    2
     2    12    10    1
     3    11     9    1
     4    10     8    2
     5     9     7    2
     6     8     7    1
     7     7     6    1
     8     1     6    1
     9     1     2    1
    10     2     4    1
    11     2     3    2
    12     5     4    1
