@<TRIPOS>MOLECULE
/home/cewinharhar/GITHUB/reincatalyze/data/processed/docking_pred/2023_Apr_20-15:07/9fad910e57fbde25b93c61ef9d3287f531a6e420_ligand_2.pdbqt
 12 12 0 0 0
SMALL
GASTEIGER

@<TRIPOS>ATOM
      1  C          8.4570   -0.6350   -2.1150 C.3     1  UNL1        0.1270
      2  C          8.4710   -1.9010   -2.8840 C.2     1  UNL1        0.3030
      3  O          9.5390   -2.5310   -3.0800 O.2     1  UNL1       -0.2520
      4  O          7.3010   -2.4260   -3.4100 O.3     1  UNL1       -0.4810
      5  H          6.7620   -3.0990   -2.8590 H       1  UNL1        0.2960
      6  C          7.0540   -0.1070   -2.1020 C.3     1  UNL1        0.0470
      7  C          6.4980    0.0690   -0.7620 C.2     1  UNL1       -0.0470
      8  C          5.8590    1.2360   -0.4130 C.2     1  UNL1        0.0040
      9  C          6.6170   -0.9510    0.1540 C.2     1  UNL1        0.0040
     10  C          5.3510    1.3350    0.8840 C.2     1  UNL1        0.0000
     11  C          6.1140   -0.8520    1.4360 C.2     1  UNL1        0.0000
     12  C          5.4740    0.3150    1.7940 C.2     1  UNL1        0.0000
@<TRIPOS>BOND
     1     4     2    1
     2     4     5    1
     3     3     2    2
     4     2     1    1
     5     1     6    1
     6     6     7    1
     7     7     8    2
     8     7     9    1
     9     8    10    1
    10     9    11    2
    11    10    12    2
    12    11    12    1
