@<TRIPOS>MOLECULE
/home/cewinharhar/GITHUB/reincatalyze/data/processed/docking_pred/2023_Apr_20-15:07/9fad910e57fbde25b93c61ef9d3287f531a6e420_ligand_2.pdbqt
 12 12 0 0 0
SMALL
GASTEIGER

@<TRIPOS>ATOM
      1  C          8.1620    0.2470   -2.0790 C.3     1  UNL1        0.1270
      2  C          9.3420    0.3630   -1.1910 C.2     1  UNL1        0.3030
      3  O          9.4740   -0.3750   -0.1830 O.2     1  UNL1       -0.2520
      4  O         10.3360    1.2930   -1.4500 O.3     1  UNL1       -0.4810
      5  H         11.3170    1.0000   -1.4200 H       1  UNL1        0.2960
      6  C          7.1420   -0.6140   -1.3960 C.3     1  UNL1        0.0470
      7  C          6.3570    0.0860   -0.3810 C.2     1  UNL1       -0.0470
      8  C          5.8080    1.3200   -0.6440 C.2     1  UNL1        0.0040
      9  C          6.1690   -0.5040    0.8470 C.2     1  UNL1        0.0040
     10  C          5.0680    1.9300    0.3720 C.2     1  UNL1        0.0000
     11  C          5.4380    0.1010    1.8500 C.2     1  UNL1        0.0000
     12  C          4.8850    1.3370    1.5950 C.2     1  UNL1        0.0000
@<TRIPOS>BOND
     1     1     6    1
     2     1     2    1
     3     4     5    1
     4     4     2    1
     5     6     7    1
     6     2     3    2
     7     8     7    2
     8     8    10    1
     9     7     9    1
    10    10    12    2
    11     9    11    2
    12    12    11    1
