@<TRIPOS>MOLECULE
/home/cewinharhar/GITHUB/reincatalyze/data/processed/docking_pred/2023_Apr_20-15:07/9fad910e57fbde25b93c61ef9d3287f531a6e420_ligand_2.pdbqt
 12 12 0 0 0
SMALL
GASTEIGER

@<TRIPOS>ATOM
      1  C          5.3120    2.8960    0.0760 C.3     1  UNL1        0.1270
      2  C          6.1820    3.7980    0.8680 C.2     1  UNL1        0.3030
      3  O          6.2510    3.7030    2.1180 O.2     1  UNL1       -0.2520
      4  O          6.9450    4.7740    0.2470 O.3     1  UNL1       -0.4810
      5  H          6.5850    5.2300   -0.5960 H       1  UNL1        0.2960
      6  C          5.0370    1.6710    0.8930 C.3     1  UNL1        0.0470
      7  C          5.9370    0.5540    0.6130 C.2     1  UNL1       -0.0470
      8  C          6.4390   -0.2180    1.6350 C.2     1  UNL1        0.0040
      9  C          6.2800    0.2790   -0.6910 C.2     1  UNL1        0.0040
     10  C          7.2930   -1.2690    1.2930 C.2     1  UNL1        0.0000
     11  C          7.1250   -0.7600   -1.0260 C.2     1  UNL1        0.0000
     12  C          7.6320   -1.5380   -0.0090 C.2     1  UNL1        0.0000
@<TRIPOS>BOND
     1    11     9    1
     2    11    12    2
     3     9     7    2
     4     5     4    1
     5    12    10    1
     6     1     2    1
     7     1     6    1
     8     4     2    1
     9     7     6    1
    10     7     8    1
    11     2     3    2
    12    10     8    2
