@<TRIPOS>MOLECULE
/home/cewinharhar/GITHUB/reincatalyze/data/processed/docking_pred/2023_Apr_20-15:07/a1c3c4a97d6bd518e48ffa0772dda1f342f6565e_ligand_2.pdbqt
 12 12 0 0 0
SMALL
GASTEIGER

@<TRIPOS>ATOM
      1  C          8.3460    0.3020   -2.0160 C.3     1  UNL1        0.1270
      2  C          9.4840    0.3930   -1.0710 C.2     1  UNL1        0.3030
      3  O          9.5590   -0.3610   -0.0690 O.2     1  UNL1       -0.2520
      4  O         10.5000    1.3140   -1.2690 O.3     1  UNL1       -0.4810
      5  H         10.7860    1.5470   -2.2240 H       1  UNL1        0.2960
      6  C          7.2810   -0.5450   -1.3900 C.3     1  UNL1        0.0470
      7  C          6.4390    0.1690   -0.4310 C.2     1  UNL1       -0.0470
      8  C          6.1990   -0.3530    0.8190 C.2     1  UNL1        0.0040
      9  C          5.8880    1.3770   -0.7910 C.2     1  UNL1        0.0040
     10  C          5.3870    0.3840    1.6830 C.2     1  UNL1        0.0000
     11  C          5.0850    2.1040    0.0650 C.2     1  UNL1        0.0000
     12  C          4.8390    1.5880    1.3190 C.2     1  UNL1        0.0000
@<TRIPOS>BOND
     1     5     4    1
     2     1     6    1
     3     1     2    1
     4     6     7    1
     5     4     2    1
     6     2     3    2
     7     9     7    2
     8     9    11    1
     9     7     8    1
    10    11    12    2
    11     8    10    2
    12    12    10    1
