@<TRIPOS>MOLECULE
/home/cewinharhar/GITHUB/reincatalyze/data/processed/docking_pred/2023_Apr_20-15:07/a1c3c4a97d6bd518e48ffa0772dda1f342f6565e_ligand_2.pdbqt
 12 12 0 0 0
SMALL
GASTEIGER

@<TRIPOS>ATOM
      1  C          8.4600   -0.5890   -2.1890 C.3     1  UNL1        0.1270
      2  C          8.4800   -1.8830   -2.9120 C.2     1  UNL1        0.3030
      3  O          9.5520   -2.5140   -3.0870 O.2     1  UNL1       -0.2520
      4  O          7.3120   -2.4340   -3.4150 O.3     1  UNL1       -0.4810
      5  H          6.5500   -1.8140   -3.7040 H       1  UNL1        0.2960
      6  C          7.0470   -0.0910   -2.1560 C.3     1  UNL1        0.0470
      7  C          6.4990    0.0540   -0.8090 C.2     1  UNL1       -0.0470
      8  C          6.6330   -0.9550    0.1170 C.2     1  UNL1        0.0040
      9  C          5.8450    1.2160   -0.4710 C.2     1  UNL1        0.0040
     10  C          6.0860   -0.7480    1.3850 C.2     1  UNL1        0.0000
     11  C          5.3040    1.4190    0.7830 C.2     1  UNL1        0.0000
     12  C          5.4340    0.4130    1.7160 C.2     1  UNL1        0.0000
@<TRIPOS>BOND
     1     5     4    1
     2     4     2    1
     3     3     2    2
     4     2     1    1
     5     1     6    1
     6     6     7    1
     7     7     9    2
     8     7     8    1
     9     9    11    1
    10     8    10    2
    11    11    12    2
    12    10    12    1
