@<TRIPOS>MOLECULE
/home/cewinharhar/GITHUB/reincatalyze/data/processed/docking_pred/2023_Apr_20-15:07/a1c3c4a97d6bd518e48ffa0772dda1f342f6565e_ligand_2.pdbqt
 12 12 0 0 0
SMALL
GASTEIGER

@<TRIPOS>ATOM
      1  C          8.3970   -0.6200   -2.1180 C.3     1  UNL1        0.1270
      2  C          8.3780   -1.8840   -2.8910 C.2     1  UNL1        0.3030
      3  O          7.2960   -2.4190   -3.2380 O.2     1  UNL1       -0.2520
      4  O          9.5590   -2.5130   -3.2520 O.3     1  UNL1       -0.4810
      5  H          9.8580   -3.3490   -2.7420 H       1  UNL1        0.2960
      6  C          7.0070   -0.0620   -2.0930 C.3     1  UNL1        0.0470
      7  C          6.4550    0.1010   -0.7490 C.2     1  UNL1       -0.0470
      8  C          5.8180    1.2640   -0.3870 C.2     1  UNL1        0.0040
      9  C          6.5780   -0.9280    0.1560 C.2     1  UNL1        0.0040
     10  C          5.3150    1.3500    0.9140 C.2     1  UNL1        0.0000
     11  C          6.0810   -0.8410    1.4410 C.2     1  UNL1        0.0000
     12  C          5.4410    0.3220    1.8130 C.2     1  UNL1        0.0000
@<TRIPOS>BOND
     1     4     2    1
     2     4     5    1
     3     3     2    2
     4     2     1    1
     5     1     6    1
     6     6     7    1
     7     7     8    2
     8     7     9    1
     9     8    10    1
    10     9    11    2
    11    10    12    2
    12    11    12    1
