MODEL 1
REMARK VINA RESULT:      -7.4      0.000      0.000
REMARK SMILES O=C(O)CCc1ccccc1
REMARK SMILES IDX 4 1 2 2 1 3 3 4 5 6 6 7 7 8 11 9 8 10 10 11 9 12
REMARK H PARENT 3 5
REMARK Flexibility Score: inf
ROOT
ATOM      1  C   UNL     1       8.460  -0.589  -2.189  1.00  0.00     0.127 C 
ENDROOT
BRANCH   1   2
ATOM      2  C   UNL     1       8.480  -1.883  -2.912  1.00  0.00     0.303 C 
ATOM      3  O   UNL     1       9.552  -2.514  -3.087  1.00  0.00    -0.252 OA
BRANCH   2   4
ATOM      4  O   UNL     1       7.312  -2.434  -3.415  1.00  0.00    -0.481 OA
ATOM      5  H   UNL     1       6.550  -1.814  -3.704  1.00  0.00     0.296 HD
ENDBRANCH   2   4
ENDBRANCH   1   2
BRANCH   1   6
ATOM      6  C   UNL     1       7.047  -0.091  -2.156  1.00  0.00     0.047 C 
BRANCH   6   7
ATOM      7  C   UNL     1       6.499   0.054  -0.809  1.00  0.00    -0.047 A 
ATOM      8  C   UNL     1       6.633  -0.955   0.117  1.00  0.00     0.004 A 
ATOM      9  C   UNL     1       5.845   1.216  -0.471  1.00  0.00     0.004 A 
ATOM     10  C   UNL     1       6.086  -0.748   1.385  1.00  0.00     0.000 A 
ATOM     11  C   UNL     1       5.304   1.419   0.783  1.00  0.00     0.000 A 
ATOM     12  C   UNL     1       5.434   0.413   1.716  1.00  0.00     0.000 A 
ENDBRANCH   6   7
ENDBRANCH   1   6
TORSDOF 4
ENDMDL
MODEL 2
REMARK VINA RESULT:      -7.3      0.121      1.732
REMARK SMILES O=C(O)CCc1ccccc1
REMARK SMILES IDX 4 1 2 2 1 3 3 4 5 6 6 7 7 8 11 9 8 10 10 11 9 12
REMARK H PARENT 3 5
REMARK Flexibility Score: inf
ROOT
ATOM      1  C   UNL     1       8.397  -0.620  -2.118  1.00  0.00     0.127 C 
ENDROOT
BRANCH   1   2
ATOM      2  C   UNL     1       8.378  -1.884  -2.891  1.00  0.00     0.303 C 
ATOM      3  O   UNL     1       7.296  -2.419  -3.238  1.00  0.00    -0.252 OA
BRANCH   2   4
ATOM      4  O   UNL     1       9.559  -2.513  -3.252  1.00  0.00    -0.481 OA
ATOM      5  H   UNL     1       9.858  -3.349  -2.742  1.00  0.00     0.296 HD
ENDBRANCH   2   4
ENDBRANCH   1   2
BRANCH   1   6
ATOM      6  C   UNL     1       7.007  -0.062  -2.093  1.00  0.00     0.047 C 
BRANCH   6   7
ATOM      7  C   UNL     1       6.455   0.101  -0.749  1.00  0.00    -0.047 A 
ATOM      8  C   UNL     1       5.818   1.264  -0.387  1.00  0.00     0.004 A 
ATOM      9  C   UNL     1       6.578  -0.928   0.156  1.00  0.00     0.004 A 
ATOM     10  C   UNL     1       5.315   1.350   0.914  1.00  0.00     0.000 A 
ATOM     11  C   UNL     1       6.081  -0.841   1.441  1.00  0.00     0.000 A 
ATOM     12  C   UNL     1       5.441   0.322   1.813  1.00  0.00     0.000 A 
ENDBRANCH   6   7
ENDBRANCH   1   6
TORSDOF 4
ENDMDL
MODEL 3
REMARK VINA RESULT:      -6.8      3.353      5.052
REMARK SMILES O=C(O)CCc1ccccc1
REMARK SMILES IDX 4 1 2 2 1 3 3 4 5 6 6 7 7 8 11 9 8 10 10 11 9 12
REMARK H PARENT 3 5
REMARK Flexibility Score: inf
ROOT
ATOM      1  C   UNL     1       5.025   1.748   0.656  1.00  0.00     0.127 C 
ENDROOT
BRANCH   1   2
ATOM      2  C   UNL     1       4.524   1.094   1.887  1.00  0.00     0.303 C 
ATOM      3  O   UNL     1       5.192   0.204   2.470  1.00  0.00    -0.252 OA
BRANCH   2   4
ATOM      4  O   UNL     1       3.299   1.447   2.431  1.00  0.00    -0.481 OA
ATOM      5  H   UNL     1       3.106   2.432   2.633  1.00  0.00     0.296 HD
ENDBRANCH   2   4
ENDBRANCH   1   2
BRANCH   1   6
ATOM      6  C   UNL     1       6.522   1.773   0.712  1.00  0.00     0.047 C 
BRANCH   6   7
ATOM      7  C   UNL     1       7.170   1.016  -0.358  1.00  0.00    -0.047 A 
ATOM      8  C   UNL     1       8.501   1.207  -0.648  1.00  0.00     0.004 A 
ATOM      9  C   UNL     1       6.433   0.104  -1.077  1.00  0.00     0.004 A 
ATOM     10  C   UNL     1       9.054   0.450  -1.683  1.00  0.00     0.000 A 
ATOM     11  C   UNL     1       6.981  -0.644  -2.099  1.00  0.00     0.000 A 
ATOM     12  C   UNL     1       8.314  -0.458  -2.397  1.00  0.00     0.000 A 
ENDBRANCH   6   7
ENDBRANCH   1   6
TORSDOF 4
ENDMDL
MODEL 4
REMARK VINA RESULT:      -6.7      1.997      2.334
REMARK SMILES O=C(O)CCc1ccccc1
REMARK SMILES IDX 4 1 2 2 1 3 3 4 5 6 6 7 7 8 11 9 8 10 10 11 9 12
REMARK H PARENT 3 5
REMARK Flexibility Score: inf
ROOT
ATOM      1  C   UNL     1       8.346   0.302  -2.016  1.00  0.00     0.127 C 
ENDROOT
BRANCH   1   2
ATOM      2  C   UNL     1       9.484   0.393  -1.071  1.00  0.00     0.303 C 
ATOM      3  O   UNL     1       9.559  -0.361  -0.069  1.00  0.00    -0.252 OA
BRANCH   2   4
ATOM      4  O   UNL     1      10.500   1.314  -1.269  1.00  0.00    -0.481 OA
ATOM      5  H   UNL     1      10.786   1.547  -2.224  1.00  0.00     0.296 HD
ENDBRANCH   2   4
ENDBRANCH   1   2
BRANCH   1   6
ATOM      6  C   UNL     1       7.281  -0.545  -1.390  1.00  0.00     0.047 C 
BRANCH   6   7
ATOM      7  C   UNL     1       6.439   0.169  -0.431  1.00  0.00    -0.047 A 
ATOM      8  C   UNL     1       6.199  -0.353   0.819  1.00  0.00     0.004 A 
ATOM      9  C   UNL     1       5.888   1.377  -0.791  1.00  0.00     0.004 A 
ATOM     10  C   UNL     1       5.387   0.384   1.683  1.00  0.00     0.000 A 
ATOM     11  C   UNL     1       5.085   2.104   0.065  1.00  0.00     0.000 A 
ATOM     12  C   UNL     1       4.839   1.588   1.319  1.00  0.00     0.000 A 
ENDBRANCH   6   7
ENDBRANCH   1   6
TORSDOF 4
ENDMDL
