@<TRIPOS>MOLECULE
/home/cewinharhar/GITHUB/reincatalyze/data/processed/docking_pred/2023_Apr_20-15:07/a1c3c4a97d6bd518e48ffa0772dda1f342f6565e_ligand_2.pdbqt
 12 12 0 0 0
SMALL
GASTEIGER

@<TRIPOS>ATOM
      1  C          5.3280    2.9640    0.0380 C.3     1  UNL1        0.1270
      2  C          6.2130    3.8590    0.8200 C.2     1  UNL1        0.3030
      3  O          6.8860    4.7600    0.2610 O.2     1  UNL1       -0.2520
      4  O          6.3210    3.7260    2.1950 O.3     1  UNL1       -0.4810
      5  H          6.7770    2.8960    2.5830 H       1  UNL1        0.2960
      6  C          5.2070    1.6630    0.7720 C.3     1  UNL1        0.0470
      7  C          5.9990    0.5780    0.1950 C.2     1  UNL1       -0.0470
      8  C          6.3420    0.5900   -1.1370 C.2     1  UNL1        0.0040
      9  C          6.4040   -0.4600    1.0010 C.2     1  UNL1        0.0040
     10  C          7.1010   -0.4790   -1.6210 C.2     1  UNL1        0.0000
     11  C          7.1540   -1.5160    0.5220 C.2     1  UNL1        0.0000
     12  C          7.5010   -1.5120   -0.8120 C.2     1  UNL1        0.0000
@<TRIPOS>BOND
     1    10     8    1
     2    10    12    2
     3     8     7    2
     4    12    11    1
     5     1     6    1
     6     1     2    1
     7     7     6    1
     8     7     9    1
     9     3     2    2
    10    11     9    2
    11     2     4    1
    12     4     5    1
