@<TRIPOS>MOLECULE
/home/cewinharhar/GITHUB/reincatalyze/data/processed/docking_pred/2023_Apr_20-15:07/a1c3c4a97d6bd518e48ffa0772dda1f342f6565e_ligand_2.pdbqt
 12 12 0 0 0
SMALL
GASTEIGER

@<TRIPOS>ATOM
      1  C          5.0250    1.7480    0.6560 C.3     1  UNL1        0.1270
      2  C          4.5240    1.0940    1.8870 C.2     1  UNL1        0.3030
      3  O          5.1920    0.2040    2.4700 O.2     1  UNL1       -0.2520
      4  O          3.2990    1.4470    2.4310 O.3     1  UNL1       -0.4810
      5  H          3.1060    2.4320    2.6330 H       1  UNL1        0.2960
      6  C          6.5220    1.7730    0.7120 C.3     1  UNL1        0.0470
      7  C          7.1700    1.0160   -0.3580 C.2     1  UNL1       -0.0470
      8  C          8.5010    1.2070   -0.6480 C.2     1  UNL1        0.0040
      9  C          6.4330    0.1040   -1.0770 C.2     1  UNL1        0.0040
     10  C          9.0540    0.4500   -1.6830 C.2     1  UNL1        0.0000
     11  C          6.9810   -0.6440   -2.0990 C.2     1  UNL1        0.0000
     12  C          8.3140   -0.4580   -2.3970 C.2     1  UNL1        0.0000
@<TRIPOS>BOND
     1    12    11    2
     2    12    10    1
     3    11     9    1
     4    10     8    2
     5     9     7    2
     6     8     7    1
     7     7     6    1
     8     1     6    1
     9     1     2    1
    10     2     4    1
    11     2     3    2
    12     4     5    1
