@<TRIPOS>MOLECULE
/home/cewinharhar/GITHUB/reincatalyze/data/processed/docking_pred/2023_Apr_20-15:07/a5b16c92fd7591d551db5a31bdb9c28d24e6a5b8_ligand_2.pdbqt
 12 12 0 0 0
SMALL
GASTEIGER

@<TRIPOS>ATOM
      1  C          8.4870    0.6630   -1.6740 C.3     1  UNL1        0.1270
      2  C          9.6380    0.2860   -0.8200 C.2     1  UNL1        0.3030
      3  O          9.5010   -0.5100    0.1420 O.2     1  UNL1       -0.2520
      4  O         10.9010    0.8020   -1.0610 O.3     1  UNL1       -0.4810
      5  H         11.6820    0.5130   -0.4670 H       1  UNL1        0.2960
      6  C          7.3290   -0.2200   -1.3210 C.3     1  UNL1        0.0470
      7  C          6.4260    0.3530   -0.3250 C.2     1  UNL1       -0.0470
      8  C          5.8130    1.5650   -0.5450 C.2     1  UNL1        0.0040
      9  C          6.1900   -0.3360    0.8430 C.2     1  UNL1        0.0040
     10  C          4.9620    2.0510    0.4500 C.2     1  UNL1        0.0000
     11  C          5.3490    0.1470    1.8250 C.2     1  UNL1        0.0000
     12  C          4.7320    1.3600    1.6130 C.2     1  UNL1        0.0000
@<TRIPOS>BOND
     1     1     6    1
     2     1     2    1
     3     6     7    1
     4     4     2    1
     5     4     5    1
     6     2     3    2
     7     8     7    2
     8     8    10    1
     9     7     9    1
    10    10    12    2
    11     9    11    2
    12    12    11    1
