@<TRIPOS>MOLECULE
/home/cewinharhar/GITHUB/reincatalyze/data/processed/docking_pred/2023_Apr_20-15:07/a5b16c92fd7591d551db5a31bdb9c28d24e6a5b8_ligand_2.pdbqt
 12 12 0 0 0
SMALL
GASTEIGER

@<TRIPOS>ATOM
      1  C          8.2430   -1.4860    1.0430 C.3     1  UNL1        0.1270
      2  C          8.4740   -2.7400    0.2890 C.2     1  UNL1        0.3030
      3  O          9.0530   -3.7210    0.8180 O.2     1  UNL1       -0.2520
      4  O          8.0550   -2.8660   -1.0260 O.3     1  UNL1       -0.4810
      5  H          7.1610   -2.4550   -1.3080 H       1  UNL1        0.2960
      6  C          6.7730   -1.3550    1.3010 C.3     1  UNL1        0.0470
      7  C          6.1860   -0.1210    0.7810 C.2     1  UNL1       -0.0470
      8  C          5.3910    0.6700    1.5780 C.2     1  UNL1        0.0040
      9  C          6.4380    0.2460   -0.5210 C.2     1  UNL1        0.0040
     10  C          4.8640    1.8340    1.0150 C.2     1  UNL1        0.0000
     11  C          5.9160    1.3970   -1.0750 C.2     1  UNL1        0.0000
     12  C          5.1180    2.1950   -0.2840 C.2     1  UNL1        0.0000
@<TRIPOS>BOND
     1     5     4    1
     2    11     9    1
     3    11    12    2
     4     4     2    1
     5     9     7    2
     6    12    10    1
     7     2     3    2
     8     2     1    1
     9     7     6    1
    10     7     8    1
    11    10     8    2
    12     1     6    1
