MODEL 1
REMARK VINA RESULT:      -7.3      0.000      0.000
REMARK SMILES O=C(O)CCc1ccccc1
REMARK SMILES IDX 4 1 2 2 1 3 3 4 5 6 6 7 7 8 11 9 8 10 10 11 9 12
REMARK H PARENT 3 5
REMARK Flexibility Score: inf
ROOT
ATOM      1  C   UNL     1       8.477  -0.645  -2.083  1.00  0.00     0.127 C 
ENDROOT
BRANCH   1   2
ATOM      2  C   UNL     1       8.406  -1.897  -2.873  1.00  0.00     0.303 C 
ATOM      3  O   UNL     1       7.303  -2.398  -3.201  1.00  0.00    -0.252 OA
BRANCH   2   4
ATOM      4  O   UNL     1       9.561  -2.551  -3.272  1.00  0.00    -0.481 OA
ATOM      5  H   UNL     1      10.470  -2.195  -2.964  1.00  0.00     0.296 HD
ENDBRANCH   2   4
ENDBRANCH   1   2
BRANCH   1   6
ATOM      6  C   UNL     1       7.118  -0.014  -2.078  1.00  0.00     0.047 C 
BRANCH   6   7
ATOM      7  C   UNL     1       6.524   0.107  -0.748  1.00  0.00    -0.047 A 
ATOM      8  C   UNL     1       6.652  -0.905   0.174  1.00  0.00     0.004 A 
ATOM      9  C   UNL     1       5.832   1.251  -0.424  1.00  0.00     0.004 A 
ATOM     10  C   UNL     1       6.060  -0.721   1.426  1.00  0.00     0.000 A 
ATOM     11  C   UNL     1       5.247   1.431   0.814  1.00  0.00     0.000 A 
ATOM     12  C   UNL     1       5.370   0.422   1.743  1.00  0.00     0.000 A 
ENDBRANCH   6   7
ENDBRANCH   1   6
TORSDOF 4
ENDMDL
MODEL 2
REMARK VINA RESULT:      -6.8      3.292      5.141
REMARK SMILES O=C(O)CCc1ccccc1
REMARK SMILES IDX 4 1 2 2 1 3 3 4 5 6 6 7 7 8 11 9 8 10 10 11 9 12
REMARK H PARENT 3 5
REMARK Flexibility Score: inf
ROOT
ATOM      1  C   UNL     1       5.014   1.775   0.710  1.00  0.00     0.127 C 
ENDROOT
BRANCH   1   2
ATOM      2  C   UNL     1       4.494   1.101   1.923  1.00  0.00     0.303 C 
ATOM      3  O   UNL     1       5.151   0.198   2.498  1.00  0.00    -0.252 OA
BRANCH   2   4
ATOM      4  O   UNL     1       3.264   1.450   2.457  1.00  0.00    -0.481 OA
ATOM      5  H   UNL     1       2.652   0.717   2.826  1.00  0.00     0.296 HD
ENDBRANCH   2   4
ENDBRANCH   1   2
BRANCH   1   6
ATOM      6  C   UNL     1       6.511   1.769   0.773  1.00  0.00     0.047 C 
BRANCH   6   7
ATOM      7  C   UNL     1       7.149   1.036  -0.319  1.00  0.00    -0.047 A 
ATOM      8  C   UNL     1       8.469   1.257  -0.638  1.00  0.00     0.004 A 
ATOM      9  C   UNL     1       6.413   0.116  -1.030  1.00  0.00     0.004 A 
ATOM     10  C   UNL     1       9.013   0.521  -1.693  1.00  0.00     0.000 A 
ATOM     11  C   UNL     1       6.953  -0.611  -2.072  1.00  0.00     0.000 A 
ATOM     12  C   UNL     1       8.274  -0.395  -2.398  1.00  0.00     0.000 A 
ENDBRANCH   6   7
ENDBRANCH   1   6
TORSDOF 4
ENDMDL
MODEL 3
REMARK VINA RESULT:      -6.5      1.866      2.898
REMARK SMILES O=C(O)CCc1ccccc1
REMARK SMILES IDX 4 1 2 2 1 3 3 4 5 6 6 7 7 8 11 9 8 10 10 11 9 12
REMARK H PARENT 3 5
REMARK Flexibility Score: inf
ROOT
ATOM      1  C   UNL     1       8.243  -1.486   1.043  1.00  0.00     0.127 C 
ENDROOT
BRANCH   1   2
ATOM      2  C   UNL     1       8.474  -2.740   0.289  1.00  0.00     0.303 C 
ATOM      3  O   UNL     1       9.053  -3.721   0.818  1.00  0.00    -0.252 OA
BRANCH   2   4
ATOM      4  O   UNL     1       8.055  -2.866  -1.026  1.00  0.00    -0.481 OA
ATOM      5  H   UNL     1       7.161  -2.455  -1.308  1.00  0.00     0.296 HD
ENDBRANCH   2   4
ENDBRANCH   1   2
BRANCH   1   6
ATOM      6  C   UNL     1       6.773  -1.355   1.301  1.00  0.00     0.047 C 
BRANCH   6   7
ATOM      7  C   UNL     1       6.186  -0.121   0.781  1.00  0.00    -0.047 A 
ATOM      8  C   UNL     1       5.391   0.670   1.578  1.00  0.00     0.004 A 
ATOM      9  C   UNL     1       6.438   0.246  -0.521  1.00  0.00     0.004 A 
ATOM     10  C   UNL     1       4.864   1.834   1.015  1.00  0.00     0.000 A 
ATOM     11  C   UNL     1       5.916   1.397  -1.075  1.00  0.00     0.000 A 
ATOM     12  C   UNL     1       5.118   2.195  -0.284  1.00  0.00     0.000 A 
ENDBRANCH   6   7
ENDBRANCH   1   6
TORSDOF 4
ENDMDL
MODEL 4
REMARK VINA RESULT:      -6.5      3.701      4.922
REMARK SMILES O=C(O)CCc1ccccc1
REMARK SMILES IDX 4 1 2 2 1 3 3 4 5 6 6 7 7 8 11 9 8 10 10 11 9 12
REMARK H PARENT 3 5
REMARK Flexibility Score: inf
ROOT
ATOM      1  C   UNL     1       5.389   2.914   0.076  1.00  0.00     0.127 C 
ENDROOT
BRANCH   1   2
ATOM      2  C   UNL     1       6.304   3.793   0.842  1.00  0.00     0.303 C 
ATOM      3  O   UNL     1       6.868   4.775   0.301  1.00  0.00    -0.252 OA
BRANCH   2   4
ATOM      4  O   UNL     1       6.562   3.552   2.182  1.00  0.00    -0.481 OA
ATOM      5  H   UNL     1       6.943   2.645   2.464  1.00  0.00     0.296 HD
ENDBRANCH   2   4
ENDBRANCH   1   2
BRANCH   1   6
ATOM      6  C   UNL     1       5.223   1.632   0.833  1.00  0.00     0.047 C 
BRANCH   6   7
ATOM      7  C   UNL     1       6.041   0.532   0.326  1.00  0.00    -0.047 A 
ATOM      8  C   UNL     1       6.524  -0.436   1.177  1.00  0.00     0.004 A 
ATOM      9  C   UNL     1       6.324   0.470  -1.019  1.00  0.00     0.004 A 
ATOM     10  C   UNL     1       7.298  -1.458   0.623  1.00  0.00     0.000 A 
ATOM     11  C   UNL     1       7.089  -0.541  -1.564  1.00  0.00     0.000 A 
ATOM     12  C   UNL     1       7.578  -1.514  -0.719  1.00  0.00     0.000 A 
ENDBRANCH   6   7
ENDBRANCH   1   6
TORSDOF 4
ENDMDL
MODEL 5
REMARK VINA RESULT:      -6.5      2.064      2.632
REMARK SMILES O=C(O)CCc1ccccc1
REMARK SMILES IDX 4 1 2 2 1 3 3 4 5 6 6 7 7 8 11 9 8 10 10 11 9 12
REMARK H PARENT 3 5
REMARK Flexibility Score: inf
ROOT
ATOM      1  C   UNL     1       8.487   0.663  -1.674  1.00  0.00     0.127 C 
ENDROOT
BRANCH   1   2
ATOM      2  C   UNL     1       9.638   0.286  -0.820  1.00  0.00     0.303 C 
ATOM      3  O   UNL     1       9.501  -0.510   0.142  1.00  0.00    -0.252 OA
BRANCH   2   4
ATOM      4  O   UNL     1      10.901   0.802  -1.061  1.00  0.00    -0.481 OA
ATOM      5  H   UNL     1      11.682   0.513  -0.467  1.00  0.00     0.296 HD
ENDBRANCH   2   4
ENDBRANCH   1   2
BRANCH   1   6
ATOM      6  C   UNL     1       7.329  -0.220  -1.321  1.00  0.00     0.047 C 
BRANCH   6   7
ATOM      7  C   UNL     1       6.426   0.353  -0.325  1.00  0.00    -0.047 A 
ATOM      8  C   UNL     1       5.813   1.565  -0.545  1.00  0.00     0.004 A 
ATOM      9  C   UNL     1       6.190  -0.336   0.843  1.00  0.00     0.004 A 
ATOM     10  C   UNL     1       4.962   2.051   0.450  1.00  0.00     0.000 A 
ATOM     11  C   UNL     1       5.349   0.147   1.825  1.00  0.00     0.000 A 
ATOM     12  C   UNL     1       4.732   1.360   1.613  1.00  0.00     0.000 A 
ENDBRANCH   6   7
ENDBRANCH   1   6
TORSDOF 4
ENDMDL
