@<TRIPOS>MOLECULE
/home/cewinharhar/GITHUB/reincatalyze/data/processed/docking_pred/2023_Apr_20-15:07/a5b16c92fd7591d551db5a31bdb9c28d24e6a5b8_ligand_2.pdbqt
 12 12 0 0 0
SMALL
GASTEIGER

@<TRIPOS>ATOM
      1  C          5.0140    1.7750    0.7100 C.3     1  UNL1        0.1270
      2  C          4.4940    1.1010    1.9230 C.2     1  UNL1        0.3030
      3  O          5.1510    0.1980    2.4980 O.2     1  UNL1       -0.2520
      4  O          3.2640    1.4500    2.4570 O.3     1  UNL1       -0.4810
      5  H          2.6520    0.7170    2.8260 H       1  UNL1        0.2960
      6  C          6.5110    1.7690    0.7730 C.3     1  UNL1        0.0470
      7  C          7.1490    1.0360   -0.3190 C.2     1  UNL1       -0.0470
      8  C          8.4690    1.2570   -0.6380 C.2     1  UNL1        0.0040
      9  C          6.4130    0.1160   -1.0300 C.2     1  UNL1        0.0040
     10  C          9.0130    0.5210   -1.6930 C.2     1  UNL1        0.0000
     11  C          6.9530   -0.6110   -2.0720 C.2     1  UNL1        0.0000
     12  C          8.2740   -0.3950   -2.3980 C.2     1  UNL1        0.0000
@<TRIPOS>BOND
     1    12    11    2
     2    12    10    1
     3    11     9    1
     4    10     8    2
     5     9     7    2
     6     8     7    1
     7     7     6    1
     8     1     6    1
     9     1     2    1
    10     2     4    1
    11     2     3    2
    12     4     5    1
