@<TRIPOS>MOLECULE
/home/cewinharhar/GITHUB/reincatalyze/data/processed/docking_pred/2023_Apr_20-15:07/a5b16c92fd7591d551db5a31bdb9c28d24e6a5b8_ligand_2.pdbqt
 12 12 0 0 0
SMALL
GASTEIGER

@<TRIPOS>ATOM
      1  C          5.3890    2.9140    0.0760 C.3     1  UNL1        0.1270
      2  C          6.3040    3.7930    0.8420 C.2     1  UNL1        0.3030
      3  O          6.8680    4.7750    0.3010 O.2     1  UNL1       -0.2520
      4  O          6.5620    3.5520    2.1820 O.3     1  UNL1       -0.4810
      5  H          6.9430    2.6450    2.4640 H       1  UNL1        0.2960
      6  C          5.2230    1.6320    0.8330 C.3     1  UNL1        0.0470
      7  C          6.0410    0.5320    0.3260 C.2     1  UNL1       -0.0470
      8  C          6.5240   -0.4360    1.1770 C.2     1  UNL1        0.0040
      9  C          6.3240    0.4700   -1.0190 C.2     1  UNL1        0.0040
     10  C          7.2980   -1.4580    0.6230 C.2     1  UNL1        0.0000
     11  C          7.0890   -0.5410   -1.5640 C.2     1  UNL1        0.0000
     12  C          7.5780   -1.5140   -0.7190 C.2     1  UNL1        0.0000
@<TRIPOS>BOND
     1    11     9    1
     2    11    12    2
     3     9     7    2
     4    12    10    1
     5     1     6    1
     6     1     2    1
     7     3     2    2
     8     7     6    1
     9     7     8    1
    10    10     8    2
    11     2     4    1
    12     4     5    1
