@<TRIPOS>MOLECULE
/home/cewinharhar/GITHUB/reincatalyze/data/processed/docking_pred/2023_Apr_20-15:07/a5b16c92fd7591d551db5a31bdb9c28d24e6a5b8_ligand_2.pdbqt
 12 12 0 0 0
SMALL
GASTEIGER

@<TRIPOS>ATOM
      1  C          8.4770   -0.6450   -2.0830 C.3     1  UNL1        0.1270
      2  C          8.4060   -1.8970   -2.8730 C.2     1  UNL1        0.3030
      3  O          7.3030   -2.3980   -3.2010 O.2     1  UNL1       -0.2520
      4  O          9.5610   -2.5510   -3.2720 O.3     1  UNL1       -0.4810
      5  H         10.4700   -2.1950   -2.9640 H       1  UNL1        0.2960
      6  C          7.1180   -0.0140   -2.0780 C.3     1  UNL1        0.0470
      7  C          6.5240    0.1070   -0.7480 C.2     1  UNL1       -0.0470
      8  C          6.6520   -0.9050    0.1740 C.2     1  UNL1        0.0040
      9  C          5.8320    1.2510   -0.4240 C.2     1  UNL1        0.0040
     10  C          6.0600   -0.7210    1.4260 C.2     1  UNL1        0.0000
     11  C          5.2470    1.4310    0.8140 C.2     1  UNL1        0.0000
     12  C          5.3700    0.4220    1.7430 C.2     1  UNL1        0.0000
@<TRIPOS>BOND
     1     4     5    1
     2     4     2    1
     3     3     2    2
     4     2     1    1
     5     1     6    1
     6     6     7    1
     7     7     9    2
     8     7     8    1
     9     9    11    1
    10     8    10    2
    11    11    12    2
    12    10    12    1
