@<TRIPOS>MOLECULE
/home/cewinharhar/GITHUB/reincatalyze/data/processed/docking_pred/2023_Apr_20-15:07/a614218f6e6a1b7d791f470f20b1a009abdeaae3_ligand_2.pdbqt
 12 12 0 0 0
SMALL
GASTEIGER

@<TRIPOS>ATOM
      1  C          5.0380    1.7290    0.6840 C.3     1  UNL1        0.1270
      2  C          4.5770    1.0510    1.9180 C.2     1  UNL1        0.3030
      3  O          3.4590    1.3150    2.4270 O.2     1  UNL1       -0.2520
      4  O          5.3690    0.1040    2.5460 O.3     1  UNL1       -0.4810
      5  H          6.3880    0.1810    2.4820 H       1  UNL1        0.2960
      6  C          6.5350    1.7870    0.7100 C.3     1  UNL1        0.0470
      7  C          7.1780    1.0280   -0.3610 C.2     1  UNL1       -0.0470
      8  C          8.5090    1.2140   -0.6530 C.2     1  UNL1        0.0040
      9  C          6.4360    0.1170   -1.0780 C.2     1  UNL1        0.0040
     10  C          9.0580    0.4530   -1.6880 C.2     1  UNL1        0.0000
     11  C          6.9800   -0.6330   -2.1010 C.2     1  UNL1        0.0000
     12  C          8.3130   -0.4520   -2.4010 C.2     1  UNL1        0.0000
@<TRIPOS>BOND
     1    12    11    2
     2    12    10    1
     3    11     9    1
     4    10     8    2
     5     9     7    2
     6     8     7    1
     7     7     6    1
     8     1     6    1
     9     1     2    1
    10     2     3    2
    11     2     4    1
    12     5     4    1
