MODEL 1
REMARK VINA RESULT:      -7.3      0.000      0.000
REMARK SMILES O=C(O)CCc1ccccc1
REMARK SMILES IDX 4 1 2 2 1 3 3 4 5 6 6 7 7 8 11 9 8 10 10 11 9 12
REMARK H PARENT 3 5
REMARK Flexibility Score: inf
ROOT
ATOM      1  C   UNL     1       8.439  -0.601  -2.184  1.00  0.00     0.127 C 
ENDROOT
BRANCH   1   2
ATOM      2  C   UNL     1       8.491  -1.892  -2.910  1.00  0.00     0.303 C 
ATOM      3  O   UNL     1       9.577  -2.500  -3.080  1.00  0.00    -0.252 OA
BRANCH   2   4
ATOM      4  O   UNL     1       7.338  -2.465  -3.423  1.00  0.00    -0.481 OA
ATOM      5  H   UNL     1       7.316  -2.752  -4.405  1.00  0.00     0.296 HD
ENDBRANCH   2   4
ENDBRANCH   1   2
BRANCH   1   6
ATOM      6  C   UNL     1       7.015  -0.138  -2.148  1.00  0.00     0.047 C 
BRANCH   6   7
ATOM      7  C   UNL     1       6.482   0.041  -0.798  1.00  0.00    -0.047 A 
ATOM      8  C   UNL     1       5.842   1.206  -0.444  1.00  0.00     0.004 A 
ATOM      9  C   UNL     1       6.625  -0.973   0.120  1.00  0.00     0.004 A 
ATOM     10  C   UNL     1       5.357   1.308   0.862  1.00  0.00     0.000 A 
ATOM     11  C   UNL     1       6.145  -0.870   1.411  1.00  0.00     0.000 A 
ATOM     12  C   UNL     1       5.503   0.294   1.774  1.00  0.00     0.000 A 
ENDBRANCH   6   7
ENDBRANCH   1   6
TORSDOF 4
ENDMDL
MODEL 2
REMARK VINA RESULT:      -6.7      0.952      1.808
REMARK SMILES O=C(O)CCc1ccccc1
REMARK SMILES IDX 4 1 2 2 1 3 3 4 5 6 6 7 7 8 11 9 8 10 10 11 9 12
REMARK H PARENT 3 5
REMARK Flexibility Score: inf
ROOT
ATOM      1  C   UNL     1       7.260  -1.305  -2.267  1.00  0.00     0.127 C 
ENDROOT
BRANCH   1   2
ATOM      2  C   UNL     1       8.326  -2.334  -2.310  1.00  0.00     0.303 C 
ATOM      3  O   UNL     1       8.399  -3.233  -1.435  1.00  0.00    -0.252 OA
BRANCH   2   4
ATOM      4  O   UNL     1       9.274  -2.332  -3.320  1.00  0.00    -0.481 OA
ATOM      5  H   UNL     1       9.136  -1.729  -4.136  1.00  0.00     0.296 HD
ENDBRANCH   2   4
ENDBRANCH   1   2
BRANCH   1   6
ATOM      6  C   UNL     1       7.722  -0.186  -1.385  1.00  0.00     0.047 C 
BRANCH   6   7
ATOM      7  C   UNL     1       6.810   0.118  -0.284  1.00  0.00    -0.047 A 
ATOM      8  C   UNL     1       6.694  -0.734   0.790  1.00  0.00     0.004 A 
ATOM      9  C   UNL     1       6.064   1.274  -0.329  1.00  0.00     0.004 A 
ATOM     10  C   UNL     1       5.804  -0.379   1.806  1.00  0.00     0.000 A 
ATOM     11  C   UNL     1       5.184   1.623   0.676  1.00  0.00     0.000 A 
ATOM     12  C   UNL     1       5.062   0.774   1.755  1.00  0.00     0.000 A 
ENDBRANCH   6   7
ENDBRANCH   1   6
TORSDOF 4
ENDMDL
MODEL 3
REMARK VINA RESULT:      -6.6      1.982      2.280
REMARK SMILES O=C(O)CCc1ccccc1
REMARK SMILES IDX 4 1 2 2 1 3 3 4 5 6 6 7 7 8 11 9 8 10 10 11 9 12
REMARK H PARENT 3 5
REMARK Flexibility Score: inf
ROOT
ATOM      1  C   UNL     1       8.220   0.339  -2.001  1.00  0.00     0.127 C 
ENDROOT
BRANCH   1   2
ATOM      2  C   UNL     1       9.409   0.374  -1.118  1.00  0.00     0.303 C 
ATOM      3  O   UNL     1       9.505  -0.389  -0.125  1.00  0.00    -0.252 OA
BRANCH   2   4
ATOM      4  O   UNL     1      10.450   1.255  -1.364  1.00  0.00    -0.481 OA
ATOM      5  H   UNL     1      11.232   0.954  -1.951  1.00  0.00     0.296 HD
ENDBRANCH   2   4
ENDBRANCH   1   2
BRANCH   1   6
ATOM      6  C   UNL     1       7.186  -0.540  -1.364  1.00  0.00     0.047 C 
BRANCH   6   7
ATOM      7  C   UNL     1       6.372   0.136  -0.356  1.00  0.00    -0.047 A 
ATOM      8  C   UNL     1       5.817   1.369  -0.610  1.00  0.00     0.004 A 
ATOM      9  C   UNL     1       6.162  -0.476   0.858  1.00  0.00     0.004 A 
ATOM     10  C   UNL     1       5.050   1.955   0.399  1.00  0.00     0.000 A 
ATOM     11  C   UNL     1       5.403   0.105   1.855  1.00  0.00     0.000 A 
ATOM     12  C   UNL     1       4.844   1.340   1.608  1.00  0.00     0.000 A 
ENDBRANCH   6   7
ENDBRANCH   1   6
TORSDOF 4
ENDMDL
MODEL 4
REMARK VINA RESULT:      -6.6      3.828      4.927
REMARK SMILES O=C(O)CCc1ccccc1
REMARK SMILES IDX 4 1 2 2 1 3 3 4 5 6 6 7 7 8 11 9 8 10 10 11 9 12
REMARK H PARENT 3 5
REMARK Flexibility Score: inf
ROOT
ATOM      1  C   UNL     1       5.434   2.897   0.026  1.00  0.00     0.127 C 
ENDROOT
BRANCH   1   2
ATOM      2  C   UNL     1       6.239   3.864   0.809  1.00  0.00     0.303 C 
ATOM      3  O   UNL     1       6.893   4.775   0.244  1.00  0.00    -0.252 OA
BRANCH   2   4
ATOM      4  O   UNL     1       6.292   3.788   2.192  1.00  0.00    -0.481 OA
ATOM      5  H   UNL     1       6.716   4.556   2.720  1.00  0.00     0.296 HD
ENDBRANCH   2   4
ENDBRANCH   1   2
BRANCH   1   6
ATOM      6  C   UNL     1       4.942   1.831   0.958  1.00  0.00     0.047 C 
BRANCH   6   7
ATOM      7  C   UNL     1       5.732   0.601   0.923  1.00  0.00    -0.047 A 
ATOM      8  C   UNL     1       6.398   0.225  -0.221  1.00  0.00     0.004 A 
ATOM      9  C   UNL     1       5.805  -0.182   2.052  1.00  0.00     0.004 A 
ATOM     10  C   UNL     1       7.133  -0.962  -0.182  1.00  0.00     0.000 A 
ATOM     11  C   UNL     1       6.532  -1.355   2.088  1.00  0.00     0.000 A 
ATOM     12  C   UNL     1       7.202  -1.739   0.947  1.00  0.00     0.000 A 
ENDBRANCH   6   7
ENDBRANCH   1   6
TORSDOF 4
ENDMDL
MODEL 5
REMARK VINA RESULT:      -6.5      3.335      5.085
REMARK SMILES O=C(O)CCc1ccccc1
REMARK SMILES IDX 4 1 2 2 1 3 3 4 5 6 6 7 7 8 11 9 8 10 10 11 9 12
REMARK H PARENT 3 5
REMARK Flexibility Score: inf
ROOT
ATOM      1  C   UNL     1       5.038   1.729   0.684  1.00  0.00     0.127 C 
ENDROOT
BRANCH   1   2
ATOM      2  C   UNL     1       4.577   1.051   1.918  1.00  0.00     0.303 C 
ATOM      3  O   UNL     1       3.459   1.315   2.427  1.00  0.00    -0.252 OA
BRANCH   2   4
ATOM      4  O   UNL     1       5.369   0.104   2.546  1.00  0.00    -0.481 OA
ATOM      5  H   UNL     1       6.388   0.181   2.482  1.00  0.00     0.296 HD
ENDBRANCH   2   4
ENDBRANCH   1   2
BRANCH   1   6
ATOM      6  C   UNL     1       6.535   1.787   0.710  1.00  0.00     0.047 C 
BRANCH   6   7
ATOM      7  C   UNL     1       7.178   1.028  -0.361  1.00  0.00    -0.047 A 
ATOM      8  C   UNL     1       8.509   1.214  -0.653  1.00  0.00     0.004 A 
ATOM      9  C   UNL     1       6.436   0.117  -1.078  1.00  0.00     0.004 A 
ATOM     10  C   UNL     1       9.058   0.453  -1.688  1.00  0.00     0.000 A 
ATOM     11  C   UNL     1       6.980  -0.633  -2.101  1.00  0.00     0.000 A 
ATOM     12  C   UNL     1       8.313  -0.452  -2.401  1.00  0.00     0.000 A 
ENDBRANCH   6   7
ENDBRANCH   1   6
TORSDOF 4
ENDMDL
