@<TRIPOS>MOLECULE
/home/cewinharhar/GITHUB/reincatalyze/data/processed/docking_pred/2023_Apr_20-15:07/a614218f6e6a1b7d791f470f20b1a009abdeaae3_ligand_2.pdbqt
 12 12 0 0 0
SMALL
GASTEIGER

@<TRIPOS>ATOM
      1  C          8.4390   -0.6010   -2.1840 C.3     1  UNL1        0.1270
      2  C          8.4910   -1.8920   -2.9100 C.2     1  UNL1        0.3030
      3  O          9.5770   -2.5000   -3.0800 O.2     1  UNL1       -0.2520
      4  O          7.3380   -2.4650   -3.4230 O.3     1  UNL1       -0.4810
      5  H          7.3160   -2.7520   -4.4050 H       1  UNL1        0.2960
      6  C          7.0150   -0.1380   -2.1480 C.3     1  UNL1        0.0470
      7  C          6.4820    0.0410   -0.7980 C.2     1  UNL1       -0.0470
      8  C          5.8420    1.2060   -0.4440 C.2     1  UNL1        0.0040
      9  C          6.6250   -0.9730    0.1200 C.2     1  UNL1        0.0040
     10  C          5.3570    1.3080    0.8620 C.2     1  UNL1        0.0000
     11  C          6.1450   -0.8700    1.4110 C.2     1  UNL1        0.0000
     12  C          5.5030    0.2940    1.7740 C.2     1  UNL1        0.0000
@<TRIPOS>BOND
     1     5     4    1
     2     4     2    1
     3     3     2    2
     4     2     1    1
     5     1     6    1
     6     6     7    1
     7     7     8    2
     8     7     9    1
     9     8    10    1
    10     9    11    2
    11    10    12    2
    12    11    12    1
