@<TRIPOS>MOLECULE
/home/cewinharhar/GITHUB/reincatalyze/data/processed/docking_pred/2023_Apr_20-15:07/a614218f6e6a1b7d791f470f20b1a009abdeaae3_ligand_2.pdbqt
 12 12 0 0 0
SMALL
GASTEIGER

@<TRIPOS>ATOM
      1  C          5.4340    2.8970    0.0260 C.3     1  UNL1        0.1270
      2  C          6.2390    3.8640    0.8090 C.2     1  UNL1        0.3030
      3  O          6.8930    4.7750    0.2440 O.2     1  UNL1       -0.2520
      4  O          6.2920    3.7880    2.1920 O.3     1  UNL1       -0.4810
      5  H          6.7160    4.5560    2.7200 H       1  UNL1        0.2960
      6  C          4.9420    1.8310    0.9580 C.3     1  UNL1        0.0470
      7  C          5.7320    0.6010    0.9230 C.2     1  UNL1       -0.0470
      8  C          6.3980    0.2250   -0.2210 C.2     1  UNL1        0.0040
      9  C          5.8050   -0.1820    2.0520 C.2     1  UNL1        0.0040
     10  C          7.1330   -0.9620   -0.1820 C.2     1  UNL1        0.0000
     11  C          6.5320   -1.3550    2.0880 C.2     1  UNL1        0.0000
     12  C          7.2020   -1.7390    0.9470 C.2     1  UNL1        0.0000
@<TRIPOS>BOND
     1     8    10    1
     2     8     7    2
     3    10    12    2
     4     1     2    1
     5     1     6    1
     6     3     2    2
     7     2     4    1
     8     7     6    1
     9     7     9    1
    10    12    11    1
    11     9    11    2
    12     4     5    1
