@<TRIPOS>MOLECULE
/home/cewinharhar/GITHUB/reincatalyze/data/processed/docking_pred/2023_Apr_20-15:07/a614218f6e6a1b7d791f470f20b1a009abdeaae3_ligand_2.pdbqt
 12 12 0 0 0
SMALL
GASTEIGER

@<TRIPOS>ATOM
      1  C          8.2200    0.3390   -2.0010 C.3     1  UNL1        0.1270
      2  C          9.4090    0.3740   -1.1180 C.2     1  UNL1        0.3030
      3  O          9.5050   -0.3890   -0.1250 O.2     1  UNL1       -0.2520
      4  O         10.4500    1.2550   -1.3640 O.3     1  UNL1       -0.4810
      5  H         11.2320    0.9540   -1.9510 H       1  UNL1        0.2960
      6  C          7.1860   -0.5400   -1.3640 C.3     1  UNL1        0.0470
      7  C          6.3720    0.1360   -0.3560 C.2     1  UNL1       -0.0470
      8  C          5.8170    1.3690   -0.6100 C.2     1  UNL1        0.0040
      9  C          6.1620   -0.4760    0.8580 C.2     1  UNL1        0.0040
     10  C          5.0500    1.9550    0.3990 C.2     1  UNL1        0.0000
     11  C          5.4030    0.1050    1.8550 C.2     1  UNL1        0.0000
     12  C          4.8440    1.3400    1.6080 C.2     1  UNL1        0.0000
@<TRIPOS>BOND
     1     1     6    1
     2     1     2    1
     3     5     4    1
     4     4     2    1
     5     6     7    1
     6     2     3    2
     7     8     7    2
     8     8    10    1
     9     7     9    1
    10    10    12    2
    11     9    11    2
    12    12    11    1
