@<TRIPOS>MOLECULE
/home/cewinharhar/GITHUB/reincatalyze/data/processed/docking_pred/2023_Apr_20-15:07/a614218f6e6a1b7d791f470f20b1a009abdeaae3_ligand_2.pdbqt
 12 12 0 0 0
SMALL
GASTEIGER

@<TRIPOS>ATOM
      1  C          7.2600   -1.3050   -2.2670 C.3     1  UNL1        0.1270
      2  C          8.3260   -2.3340   -2.3100 C.2     1  UNL1        0.3030
      3  O          8.3990   -3.2330   -1.4350 O.2     1  UNL1       -0.2520
      4  O          9.2740   -2.3320   -3.3200 O.3     1  UNL1       -0.4810
      5  H          9.1360   -1.7290   -4.1360 H       1  UNL1        0.2960
      6  C          7.7220   -0.1860   -1.3850 C.3     1  UNL1        0.0470
      7  C          6.8100    0.1180   -0.2840 C.2     1  UNL1       -0.0470
      8  C          6.6940   -0.7340    0.7900 C.2     1  UNL1        0.0040
      9  C          6.0640    1.2740   -0.3290 C.2     1  UNL1        0.0040
     10  C          5.8040   -0.3790    1.8060 C.2     1  UNL1        0.0000
     11  C          5.1840    1.6230    0.6760 C.2     1  UNL1        0.0000
     12  C          5.0620    0.7740    1.7550 C.2     1  UNL1        0.0000
@<TRIPOS>BOND
     1     5     4    1
     2     4     2    1
     3     2     1    1
     4     2     3    2
     5     1     6    1
     6     6     7    1
     7     9     7    2
     8     9    11    1
     9     7     8    1
    10    11    12    2
    11     8    10    2
    12    12    10    1
