MODEL 1
REMARK VINA RESULT:      -7.3      0.000      0.000
REMARK SMILES O=C(O)CCc1ccccc1
REMARK SMILES IDX 4 1 2 2 1 3 3 4 5 6 6 7 7 8 11 9 8 10 10 11 9 12
REMARK H PARENT 3 5
REMARK Flexibility Score: inf
ROOT
ATOM      1  C   UNL     1       8.440  -0.575  -2.184  1.00  0.00     0.127 C 
ENDROOT
BRANCH   1   2
ATOM      2  C   UNL     1       8.503  -1.868  -2.906  1.00  0.00     0.303 C 
ATOM      3  O   UNL     1       9.596  -2.460  -3.085  1.00  0.00    -0.252 OA
BRANCH   2   4
ATOM      4  O   UNL     1       7.353  -2.460  -3.403  1.00  0.00    -0.481 OA
ATOM      5  H   UNL     1       6.491  -1.911  -3.458  1.00  0.00     0.296 HD
ENDBRANCH   2   4
ENDBRANCH   1   2
BRANCH   1   6
ATOM      6  C   UNL     1       7.017  -0.107  -2.180  1.00  0.00     0.047 C 
BRANCH   6   7
ATOM      7  C   UNL     1       6.473   0.129  -0.844  1.00  0.00    -0.047 A 
ATOM      8  C   UNL     1       5.849   1.317  -0.538  1.00  0.00     0.004 A 
ATOM      9  C   UNL     1       6.589  -0.853   0.112  1.00  0.00     0.004 A 
ATOM     10  C   UNL     1       5.352   1.473   0.758  1.00  0.00     0.000 A 
ATOM     11  C   UNL     1       6.097  -0.697   1.392  1.00  0.00     0.000 A 
ATOM     12  C   UNL     1       5.471   0.490   1.707  1.00  0.00     0.000 A 
ENDBRANCH   6   7
ENDBRANCH   1   6
TORSDOF 4
ENDMDL
MODEL 2
REMARK VINA RESULT:      -7.3      0.100      1.439
REMARK SMILES O=C(O)CCc1ccccc1
REMARK SMILES IDX 4 1 2 2 1 3 3 4 5 6 6 7 7 8 11 9 8 10 10 11 9 12
REMARK H PARENT 3 5
REMARK Flexibility Score: inf
ROOT
ATOM      1  C   UNL     1       8.472  -0.557  -2.267  1.00  0.00     0.127 C 
ENDROOT
BRANCH   1   2
ATOM      2  C   UNL     1       8.469  -1.888  -2.917  1.00  0.00     0.303 C 
ATOM      3  O   UNL     1       9.526  -2.558  -3.033  1.00  0.00    -0.252 OA
BRANCH   2   4
ATOM      4  O   UNL     1       7.297  -2.432  -3.417  1.00  0.00    -0.481 OA
ATOM      5  H   UNL     1       6.553  -2.700  -2.768  1.00  0.00     0.296 HD
ENDBRANCH   2   4
ENDBRANCH   1   2
BRANCH   1   6
ATOM      6  C   UNL     1       7.059  -0.061  -2.205  1.00  0.00     0.047 C 
BRANCH   6   7
ATOM      7  C   UNL     1       6.532   0.063  -0.847  1.00  0.00    -0.047 A 
ATOM      8  C   UNL     1       6.684  -0.959   0.062  1.00  0.00     0.004 A 
ATOM      9  C   UNL     1       5.881   1.218  -0.482  1.00  0.00     0.004 A 
ATOM     10  C   UNL     1       6.156  -0.772   1.342  1.00  0.00     0.000 A 
ATOM     11  C   UNL     1       5.360   1.401   0.784  1.00  0.00     0.000 A 
ATOM     12  C   UNL     1       5.507   0.382   1.700  1.00  0.00     0.000 A 
ENDBRANCH   6   7
ENDBRANCH   1   6
TORSDOF 4
ENDMDL
MODEL 3
REMARK VINA RESULT:      -6.8      3.374      5.077
REMARK SMILES O=C(O)CCc1ccccc1
REMARK SMILES IDX 4 1 2 2 1 3 3 4 5 6 6 7 7 8 11 9 8 10 10 11 9 12
REMARK H PARENT 3 5
REMARK Flexibility Score: inf
ROOT
ATOM      1  C   UNL     1       4.993   1.794   0.705  1.00  0.00     0.127 C 
ENDROOT
BRANCH   1   2
ATOM      2  C   UNL     1       4.480   1.112   1.917  1.00  0.00     0.303 C 
ATOM      3  O   UNL     1       5.139   0.205   2.482  1.00  0.00    -0.252 OA
BRANCH   2   4
ATOM      4  O   UNL     1       3.253   1.459   2.461  1.00  0.00    -0.481 OA
ATOM      5  H   UNL     1       2.682   0.737   2.909  1.00  0.00     0.296 HD
ENDBRANCH   2   4
ENDBRANCH   1   2
BRANCH   1   6
ATOM      6  C   UNL     1       6.490   1.777   0.755  1.00  0.00     0.047 C 
BRANCH   6   7
ATOM      7  C   UNL     1       7.113   1.027  -0.335  1.00  0.00    -0.047 A 
ATOM      8  C   UNL     1       6.384   0.123  -1.073  1.00  0.00     0.004 A 
ATOM      9  C   UNL     1       8.442   1.235  -0.620  1.00  0.00     0.004 A 
ATOM     10  C   UNL     1       7.043  -0.557  -2.099  1.00  0.00     0.000 A 
ATOM     11  C   UNL     1       9.092   0.562  -1.635  1.00  0.00     0.000 A 
ATOM     12  C   UNL     1       8.370  -0.346  -2.378  1.00  0.00     0.000 A 
ENDBRANCH   6   7
ENDBRANCH   1   6
TORSDOF 4
ENDMDL
MODEL 4
REMARK VINA RESULT:      -6.7      3.815      4.923
REMARK SMILES O=C(O)CCc1ccccc1
REMARK SMILES IDX 4 1 2 2 1 3 3 4 5 6 6 7 7 8 11 9 8 10 10 11 9 12
REMARK H PARENT 3 5
REMARK Flexibility Score: inf
ROOT
ATOM      1  C   UNL     1       5.441   2.906  -0.004  1.00  0.00     0.127 C 
ENDROOT
BRANCH   1   2
ATOM      2  C   UNL     1       6.251   3.869   0.780  1.00  0.00     0.303 C 
ATOM      3  O   UNL     1       6.913   4.774   0.216  1.00  0.00    -0.252 OA
BRANCH   2   4
ATOM      4  O   UNL     1       6.298   3.795   2.163  1.00  0.00    -0.481 OA
ATOM      5  H   UNL     1       6.829   4.499   2.684  1.00  0.00     0.296 HD
ENDBRANCH   2   4
ENDBRANCH   1   2
BRANCH   1   6
ATOM      6  C   UNL     1       4.947   1.840   0.926  1.00  0.00     0.047 C 
BRANCH   6   7
ATOM      7  C   UNL     1       5.738   0.611   0.895  1.00  0.00    -0.047 A 
ATOM      8  C   UNL     1       6.399   0.228  -0.249  1.00  0.00     0.004 A 
ATOM      9  C   UNL     1       5.819  -0.164   2.029  1.00  0.00     0.004 A 
ATOM     10  C   UNL     1       7.137  -0.957  -0.206  1.00  0.00     0.000 A 
ATOM     11  C   UNL     1       6.549  -1.335   2.070  1.00  0.00     0.000 A 
ATOM     12  C   UNL     1       7.213  -1.726   0.928  1.00  0.00     0.000 A 
ENDBRANCH   6   7
ENDBRANCH   1   6
TORSDOF 4
ENDMDL
MODEL 5
REMARK VINA RESULT:      -6.6      1.973      2.273
REMARK SMILES O=C(O)CCc1ccccc1
REMARK SMILES IDX 4 1 2 2 1 3 3 4 5 6 6 7 7 8 11 9 8 10 10 11 9 12
REMARK H PARENT 3 5
REMARK Flexibility Score: inf
ROOT
ATOM      1  C   UNL     1       8.261   0.468  -1.992  1.00  0.00     0.127 C 
ENDROOT
BRANCH   1   2
ATOM      2  C   UNL     1       9.450   0.428  -1.107  1.00  0.00     0.303 C 
ATOM      3  O   UNL     1       9.514  -0.370  -0.139  1.00  0.00    -0.252 OA
BRANCH   2   4
ATOM      4  O   UNL     1      10.526   1.273  -1.325  1.00  0.00    -0.481 OA
ATOM      5  H   UNL     1      11.006   1.249  -2.229  1.00  0.00     0.296 HD
ENDBRANCH   2   4
ENDBRANCH   1   2
BRANCH   1   6
ATOM      6  C   UNL     1       7.210  -0.426  -1.409  1.00  0.00     0.047 C 
BRANCH   6   7
ATOM      7  C   UNL     1       6.378   0.217  -0.393  1.00  0.00    -0.047 A 
ATOM      8  C   UNL     1       5.793   1.439  -0.634  1.00  0.00     0.004 A 
ATOM      9  C   UNL     1       6.182  -0.415   0.813  1.00  0.00     0.004 A 
ATOM     10  C   UNL     1       5.011   1.994   0.381  1.00  0.00     0.000 A 
ATOM     11  C   UNL     1       5.408   0.136   1.815  1.00  0.00     0.000 A 
ATOM     12  C   UNL     1       4.819   1.360   1.582  1.00  0.00     0.000 A 
ENDBRANCH   6   7
ENDBRANCH   1   6
TORSDOF 4
ENDMDL
