@<TRIPOS>MOLECULE
/home/cewinharhar/GITHUB/reincatalyze/data/processed/docking_pred/2023_Apr_20-15:07/a6201df4fd59712db5137144eee8a96fed35f0a9_ligand_2.pdbqt
 12 12 0 0 0
SMALL
GASTEIGER

@<TRIPOS>ATOM
      1  C          8.4720   -0.5570   -2.2670 C.3     1  UNL1        0.1270
      2  C          8.4690   -1.8880   -2.9170 C.2     1  UNL1        0.3030
      3  O          9.5260   -2.5580   -3.0330 O.2     1  UNL1       -0.2520
      4  O          7.2970   -2.4320   -3.4170 O.3     1  UNL1       -0.4810
      5  H          6.5530   -2.7000   -2.7680 H       1  UNL1        0.2960
      6  C          7.0590   -0.0610   -2.2050 C.3     1  UNL1        0.0470
      7  C          6.5320    0.0630   -0.8470 C.2     1  UNL1       -0.0470
      8  C          6.6840   -0.9590    0.0620 C.2     1  UNL1        0.0040
      9  C          5.8810    1.2180   -0.4820 C.2     1  UNL1        0.0040
     10  C          6.1560   -0.7720    1.3420 C.2     1  UNL1        0.0000
     11  C          5.3600    1.4010    0.7840 C.2     1  UNL1        0.0000
     12  C          5.5070    0.3820    1.7000 C.2     1  UNL1        0.0000
@<TRIPOS>BOND
     1     4     2    1
     2     4     5    1
     3     3     2    2
     4     2     1    1
     5     1     6    1
     6     6     7    1
     7     7     9    2
     8     7     8    1
     9     9    11    1
    10     8    10    2
    11    11    12    2
    12    10    12    1
