@<TRIPOS>MOLECULE
/home/cewinharhar/GITHUB/reincatalyze/data/processed/docking_pred/2023_Apr_20-15:07/a6201df4fd59712db5137144eee8a96fed35f0a9_ligand_2.pdbqt
 12 12 0 0 0
SMALL
GASTEIGER

@<TRIPOS>ATOM
      1  C          8.2610    0.4680   -1.9920 C.3     1  UNL1        0.1270
      2  C          9.4500    0.4280   -1.1070 C.2     1  UNL1        0.3030
      3  O          9.5140   -0.3700   -0.1390 O.2     1  UNL1       -0.2520
      4  O         10.5260    1.2730   -1.3250 O.3     1  UNL1       -0.4810
      5  H         11.0060    1.2490   -2.2290 H       1  UNL1        0.2960
      6  C          7.2100   -0.4260   -1.4090 C.3     1  UNL1        0.0470
      7  C          6.3780    0.2170   -0.3930 C.2     1  UNL1       -0.0470
      8  C          5.7930    1.4390   -0.6340 C.2     1  UNL1        0.0040
      9  C          6.1820   -0.4150    0.8130 C.2     1  UNL1        0.0040
     10  C          5.0110    1.9940    0.3810 C.2     1  UNL1        0.0000
     11  C          5.4080    0.1360    1.8150 C.2     1  UNL1        0.0000
     12  C          4.8190    1.3600    1.5820 C.2     1  UNL1        0.0000
@<TRIPOS>BOND
     1     5     4    1
     2     1     6    1
     3     1     2    1
     4     6     7    1
     5     4     2    1
     6     2     3    2
     7     8     7    2
     8     8    10    1
     9     7     9    1
    10    10    12    2
    11     9    11    2
    12    12    11    1
