@<TRIPOS>MOLECULE
/home/cewinharhar/GITHUB/reincatalyze/data/processed/docking_pred/2023_Apr_20-15:07/a6201df4fd59712db5137144eee8a96fed35f0a9_ligand_2.pdbqt
 12 12 0 0 0
SMALL
GASTEIGER

@<TRIPOS>ATOM
      1  C          5.4410    2.9060   -0.0040 C.3     1  UNL1        0.1270
      2  C          6.2510    3.8690    0.7800 C.2     1  UNL1        0.3030
      3  O          6.9130    4.7740    0.2160 O.2     1  UNL1       -0.2520
      4  O          6.2980    3.7950    2.1630 O.3     1  UNL1       -0.4810
      5  H          6.8290    4.4990    2.6840 H       1  UNL1        0.2960
      6  C          4.9470    1.8400    0.9260 C.3     1  UNL1        0.0470
      7  C          5.7380    0.6110    0.8950 C.2     1  UNL1       -0.0470
      8  C          6.3990    0.2280   -0.2490 C.2     1  UNL1        0.0040
      9  C          5.8190   -0.1640    2.0290 C.2     1  UNL1        0.0040
     10  C          7.1370   -0.9570   -0.2060 C.2     1  UNL1        0.0000
     11  C          6.5490   -1.3350    2.0700 C.2     1  UNL1        0.0000
     12  C          7.2130   -1.7260    0.9280 C.2     1  UNL1        0.0000
@<TRIPOS>BOND
     1     8    10    1
     2     8     7    2
     3    10    12    2
     4     1     2    1
     5     1     6    1
     6     3     2    2
     7     2     4    1
     8     7     6    1
     9     7     9    1
    10    12    11    1
    11     9    11    2
    12     4     5    1
