@<TRIPOS>MOLECULE
/home/cewinharhar/GITHUB/reincatalyze/data/processed/docking_pred/2023_Apr_20-15:07/a6201df4fd59712db5137144eee8a96fed35f0a9_ligand_2.pdbqt
 12 12 0 0 0
SMALL
GASTEIGER

@<TRIPOS>ATOM
      1  C          4.9930    1.7940    0.7050 C.3     1  UNL1        0.1270
      2  C          4.4800    1.1120    1.9170 C.2     1  UNL1        0.3030
      3  O          5.1390    0.2050    2.4820 O.2     1  UNL1       -0.2520
      4  O          3.2530    1.4590    2.4610 O.3     1  UNL1       -0.4810
      5  H          2.6820    0.7370    2.9090 H       1  UNL1        0.2960
      6  C          6.4900    1.7770    0.7550 C.3     1  UNL1        0.0470
      7  C          7.1130    1.0270   -0.3350 C.2     1  UNL1       -0.0470
      8  C          6.3840    0.1230   -1.0730 C.2     1  UNL1        0.0040
      9  C          8.4420    1.2350   -0.6200 C.2     1  UNL1        0.0040
     10  C          7.0430   -0.5570   -2.0990 C.2     1  UNL1        0.0000
     11  C          9.0920    0.5620   -1.6350 C.2     1  UNL1        0.0000
     12  C          8.3700   -0.3460   -2.3780 C.2     1  UNL1        0.0000
@<TRIPOS>BOND
     1    12    10    2
     2    12    11    1
     3    10     8    1
     4    11     9    2
     5     8     7    2
     6     9     7    1
     7     7     6    1
     8     1     6    1
     9     1     2    1
    10     2     4    1
    11     2     3    2
    12     4     5    1
