MODEL 1
REMARK VINA RESULT:      -7.3      0.000      0.000
REMARK SMILES O=C(O)CCc1ccccc1
REMARK SMILES IDX 4 1 2 2 1 3 3 4 5 6 6 7 7 8 11 9 8 10 10 11 9 12
REMARK H PARENT 3 5
REMARK Flexibility Score: inf
ROOT
ATOM      1  C   UNL     1       8.435  -0.554  -2.243  1.00  0.00     0.127 C 
ENDROOT
BRANCH   1   2
ATOM      2  C   UNL     1       8.473  -1.865  -2.934  1.00  0.00     0.303 C 
ATOM      3  O   UNL     1       9.553  -2.485  -3.093  1.00  0.00    -0.252 OA
BRANCH   2   4
ATOM      4  O   UNL     1       7.313  -2.442  -3.425  1.00  0.00    -0.481 OA
ATOM      5  H   UNL     1       6.964  -2.161  -4.345  1.00  0.00     0.296 HD
ENDBRANCH   2   4
ENDBRANCH   1   2
BRANCH   1   6
ATOM      6  C   UNL     1       7.009  -0.102  -2.169  1.00  0.00     0.047 C 
BRANCH   6   7
ATOM      7  C   UNL     1       6.496   0.027  -0.806  1.00  0.00    -0.047 A 
ATOM      8  C   UNL     1       6.635  -1.001   0.098  1.00  0.00     0.004 A 
ATOM      9  C   UNL     1       5.871   1.194  -0.432  1.00  0.00     0.004 A 
ATOM     10  C   UNL     1       6.122  -0.808   1.382  1.00  0.00     0.000 A 
ATOM     11  C   UNL     1       5.364   1.383   0.839  1.00  0.00     0.000 A 
ATOM     12  C   UNL     1       5.499   0.358   1.750  1.00  0.00     0.000 A 
ENDBRANCH   6   7
ENDBRANCH   1   6
TORSDOF 4
ENDMDL
MODEL 2
REMARK VINA RESULT:      -7.3      0.128      1.732
REMARK SMILES O=C(O)CCc1ccccc1
REMARK SMILES IDX 4 1 2 2 1 3 3 4 5 6 6 7 7 8 11 9 8 10 10 11 9 12
REMARK H PARENT 3 5
REMARK Flexibility Score: inf
ROOT
ATOM      1  C   UNL     1       8.416  -0.652  -2.088  1.00  0.00     0.127 C 
ENDROOT
BRANCH   1   2
ATOM      2  C   UNL     1       8.372  -1.905  -2.879  1.00  0.00     0.303 C 
ATOM      3  O   UNL     1       7.281  -2.403  -3.249  1.00  0.00    -0.252 OA
BRANCH   2   4
ATOM      4  O   UNL     1       9.540  -2.562  -3.232  1.00  0.00    -0.481 OA
ATOM      5  H   UNL     1       9.529  -3.212  -4.023  1.00  0.00     0.296 HD
ENDBRANCH   2   4
ENDBRANCH   1   2
BRANCH   1   6
ATOM      6  C   UNL     1       7.044  -0.051  -2.083  1.00  0.00     0.047 C 
BRANCH   6   7
ATOM      7  C   UNL     1       6.472   0.114  -0.748  1.00  0.00    -0.047 A 
ATOM      8  C   UNL     1       5.806   1.268  -0.405  1.00  0.00     0.004 A 
ATOM      9  C   UNL     1       6.604  -0.903   0.169  1.00  0.00     0.004 A 
ATOM     10  C   UNL     1       5.284   1.356   0.888  1.00  0.00     0.000 A 
ATOM     11  C   UNL     1       6.087  -0.814   1.447  1.00  0.00     0.000 A 
ATOM     12  C   UNL     1       5.420   0.339   1.798  1.00  0.00     0.000 A 
ENDBRANCH   6   7
ENDBRANCH   1   6
TORSDOF 4
ENDMDL
MODEL 3
REMARK VINA RESULT:      -6.7      3.350      5.028
REMARK SMILES O=C(O)CCc1ccccc1
REMARK SMILES IDX 4 1 2 2 1 3 3 4 5 6 6 7 7 8 11 9 8 10 10 11 9 12
REMARK H PARENT 3 5
REMARK Flexibility Score: inf
ROOT
ATOM      1  C   UNL     1       5.028   1.714   0.710  1.00  0.00     0.127 C 
ENDROOT
BRANCH   1   2
ATOM      2  C   UNL     1       4.599   1.023   1.949  1.00  0.00     0.303 C 
ATOM      3  O   UNL     1       5.343   0.186   2.518  1.00  0.00    -0.252 OA
BRANCH   2   4
ATOM      4  O   UNL     1       3.362   1.284   2.515  1.00  0.00    -0.481 OA
ATOM      5  H   UNL     1       3.093   0.800   3.376  1.00  0.00     0.296 HD
ENDBRANCH   2   4
ENDBRANCH   1   2
BRANCH   1   6
ATOM      6  C   UNL     1       6.525   1.788   0.706  1.00  0.00     0.047 C 
BRANCH   6   7
ATOM      7  C   UNL     1       7.154   1.029  -0.373  1.00  0.00    -0.047 A 
ATOM      8  C   UNL     1       6.423   0.142  -1.128  1.00  0.00     0.004 A 
ATOM      9  C   UNL     1       8.493   1.212  -0.630  1.00  0.00     0.004 A 
ATOM     10  C   UNL     1       7.090  -0.548  -2.143  1.00  0.00     0.000 A 
ATOM     11  C   UNL     1       9.151   0.529  -1.634  1.00  0.00     0.000 A 
ATOM     12  C   UNL     1       8.426  -0.362  -2.394  1.00  0.00     0.000 A 
ENDBRANCH   6   7
ENDBRANCH   1   6
TORSDOF 4
ENDMDL
MODEL 4
REMARK VINA RESULT:      -6.7      1.969      2.313
REMARK SMILES O=C(O)CCc1ccccc1
REMARK SMILES IDX 4 1 2 2 1 3 3 4 5 6 6 7 7 8 11 9 8 10 10 11 9 12
REMARK H PARENT 3 5
REMARK Flexibility Score: inf
ROOT
ATOM      1  C   UNL     1       8.260   0.241  -2.079  1.00  0.00     0.127 C 
ENDROOT
BRANCH   1   2
ATOM      2  C   UNL     1       9.423   0.372  -1.169  1.00  0.00     0.303 C 
ATOM      3  O   UNL     1       9.540  -0.356  -0.153  1.00  0.00    -0.252 OA
BRANCH   2   4
ATOM      4  O   UNL     1      10.416   1.306  -1.417  1.00  0.00    -0.481 OA
ATOM      5  H   UNL     1      10.793   1.397  -2.365  1.00  0.00     0.296 HD
ENDBRANCH   2   4
ENDBRANCH   1   2
BRANCH   1   6
ATOM      6  C   UNL     1       7.216  -0.585  -1.391  1.00  0.00     0.047 C 
BRANCH   6   7
ATOM      7  C   UNL     1       6.396   0.164  -0.441  1.00  0.00    -0.047 A 
ATOM      8  C   UNL     1       6.164  -0.324   0.824  1.00  0.00     0.004 A 
ATOM      9  C   UNL     1       5.858   1.371  -0.823  1.00  0.00     0.004 A 
ATOM     10  C   UNL     1       5.372   0.446   1.680  1.00  0.00     0.000 A 
ATOM     11  C   UNL     1       5.075   2.130   0.024  1.00  0.00     0.000 A 
ATOM     12  C   UNL     1       4.837   1.648   1.293  1.00  0.00     0.000 A 
ENDBRANCH   6   7
ENDBRANCH   1   6
TORSDOF 4
ENDMDL
MODEL 5
REMARK VINA RESULT:      -6.5      3.719      4.959
REMARK SMILES O=C(O)CCc1ccccc1
REMARK SMILES IDX 4 1 2 2 1 3 3 4 5 6 6 7 7 8 11 9 8 10 10 11 9 12
REMARK H PARENT 3 5
REMARK Flexibility Score: inf
ROOT
ATOM      1  C   UNL     1       5.349   2.976   0.138  1.00  0.00     0.127 C 
ENDROOT
BRANCH   1   2
ATOM      2  C   UNL     1       6.252   3.867   0.904  1.00  0.00     0.303 C 
ATOM      3  O   UNL     1       6.906   4.775   0.335  1.00  0.00    -0.252 OA
BRANCH   2   4
ATOM      4  O   UNL     1       6.399   3.721   2.274  1.00  0.00    -0.481 OA
ATOM      5  H   UNL     1       6.809   2.859   2.645  1.00  0.00     0.296 HD
ENDBRANCH   2   4
ENDBRANCH   1   2
BRANCH   1   6
ATOM      6  C   UNL     1       5.196   1.694   0.899  1.00  0.00     0.047 C 
BRANCH   6   7
ATOM      7  C   UNL     1       5.971   0.582   0.352  1.00  0.00    -0.047 A 
ATOM      8  C   UNL     1       6.341  -0.477   1.149  1.00  0.00     0.004 A 
ATOM      9  C   UNL     1       6.327   0.601  -0.977  1.00  0.00     0.004 A 
ATOM     10  C   UNL     1       7.080  -1.505   0.559  1.00  0.00     0.000 A 
ATOM     11  C   UNL     1       7.058  -0.416  -1.558  1.00  0.00     0.000 A 
ATOM     12  C   UNL     1       7.434  -1.479  -0.767  1.00  0.00     0.000 A 
ENDBRANCH   6   7
ENDBRANCH   1   6
TORSDOF 4
ENDMDL
