@<TRIPOS>MOLECULE
/home/cewinharhar/GITHUB/reincatalyze/data/processed/docking_pred/2023_Apr_20-15:07/a7c8c9f10e55c2841f25afbe7e611a3f864293db_ligand_2.pdbqt
 12 12 0 0 0
SMALL
GASTEIGER

@<TRIPOS>ATOM
      1  C          8.2600    0.2410   -2.0790 C.3     1  UNL1        0.1270
      2  C          9.4230    0.3720   -1.1690 C.2     1  UNL1        0.3030
      3  O          9.5400   -0.3560   -0.1530 O.2     1  UNL1       -0.2520
      4  O         10.4160    1.3060   -1.4170 O.3     1  UNL1       -0.4810
      5  H         10.7930    1.3970   -2.3650 H       1  UNL1        0.2960
      6  C          7.2160   -0.5850   -1.3910 C.3     1  UNL1        0.0470
      7  C          6.3960    0.1640   -0.4410 C.2     1  UNL1       -0.0470
      8  C          6.1640   -0.3240    0.8240 C.2     1  UNL1        0.0040
      9  C          5.8580    1.3710   -0.8230 C.2     1  UNL1        0.0040
     10  C          5.3720    0.4460    1.6800 C.2     1  UNL1        0.0000
     11  C          5.0750    2.1300    0.0240 C.2     1  UNL1        0.0000
     12  C          4.8370    1.6480    1.2930 C.2     1  UNL1        0.0000
@<TRIPOS>BOND
     1     5     4    1
     2     1     6    1
     3     1     2    1
     4     4     2    1
     5     6     7    1
     6     2     3    2
     7     9     7    2
     8     9    11    1
     9     7     8    1
    10    11    12    2
    11     8    10    2
    12    12    10    1
