@<TRIPOS>MOLECULE
/home/cewinharhar/GITHUB/reincatalyze/data/processed/docking_pred/2023_Apr_20-15:07/a7c8c9f10e55c2841f25afbe7e611a3f864293db_ligand_2.pdbqt
 12 12 0 0 0
SMALL
GASTEIGER

@<TRIPOS>ATOM
      1  C          8.4160   -0.6520   -2.0880 C.3     1  UNL1        0.1270
      2  C          8.3720   -1.9050   -2.8790 C.2     1  UNL1        0.3030
      3  O          7.2810   -2.4030   -3.2490 O.2     1  UNL1       -0.2520
      4  O          9.5400   -2.5620   -3.2320 O.3     1  UNL1       -0.4810
      5  H          9.5290   -3.2120   -4.0230 H       1  UNL1        0.2960
      6  C          7.0440   -0.0510   -2.0830 C.3     1  UNL1        0.0470
      7  C          6.4720    0.1140   -0.7480 C.2     1  UNL1       -0.0470
      8  C          5.8060    1.2680   -0.4050 C.2     1  UNL1        0.0040
      9  C          6.6040   -0.9030    0.1690 C.2     1  UNL1        0.0040
     10  C          5.2840    1.3560    0.8880 C.2     1  UNL1        0.0000
     11  C          6.0870   -0.8140    1.4470 C.2     1  UNL1        0.0000
     12  C          5.4200    0.3390    1.7980 C.2     1  UNL1        0.0000
@<TRIPOS>BOND
     1     5     4    1
     2     3     2    2
     3     4     2    1
     4     2     1    1
     5     1     6    1
     6     6     7    1
     7     7     8    2
     8     7     9    1
     9     8    10    1
    10     9    11    2
    11    10    12    2
    12    11    12    1
