@<TRIPOS>MOLECULE
/home/cewinharhar/GITHUB/reincatalyze/data/processed/docking_pred/2023_Apr_20-15:07/a7c8c9f10e55c2841f25afbe7e611a3f864293db_ligand_2.pdbqt
 12 12 0 0 0
SMALL
GASTEIGER

@<TRIPOS>ATOM
      1  C          8.4350   -0.5540   -2.2430 C.3     1  UNL1        0.1270
      2  C          8.4730   -1.8650   -2.9340 C.2     1  UNL1        0.3030
      3  O          9.5530   -2.4850   -3.0930 O.2     1  UNL1       -0.2520
      4  O          7.3130   -2.4420   -3.4250 O.3     1  UNL1       -0.4810
      5  H          6.9640   -2.1610   -4.3450 H       1  UNL1        0.2960
      6  C          7.0090   -0.1020   -2.1690 C.3     1  UNL1        0.0470
      7  C          6.4960    0.0270   -0.8060 C.2     1  UNL1       -0.0470
      8  C          6.6350   -1.0010    0.0980 C.2     1  UNL1        0.0040
      9  C          5.8710    1.1940   -0.4320 C.2     1  UNL1        0.0040
     10  C          6.1220   -0.8080    1.3820 C.2     1  UNL1        0.0000
     11  C          5.3640    1.3830    0.8390 C.2     1  UNL1        0.0000
     12  C          5.4990    0.3580    1.7500 C.2     1  UNL1        0.0000
@<TRIPOS>BOND
     1     5     4    1
     2     4     2    1
     3     3     2    2
     4     2     1    1
     5     1     6    1
     6     6     7    1
     7     7     9    2
     8     7     8    1
     9     9    11    1
    10     8    10    2
    11    11    12    2
    12    10    12    1
