@<TRIPOS>MOLECULE
/home/cewinharhar/GITHUB/reincatalyze/data/processed/docking_pred/2023_Apr_20-15:07/a7c8c9f10e55c2841f25afbe7e611a3f864293db_ligand_2.pdbqt
 12 12 0 0 0
SMALL
GASTEIGER

@<TRIPOS>ATOM
      1  C          5.0280    1.7140    0.7100 C.3     1  UNL1        0.1270
      2  C          4.5990    1.0230    1.9490 C.2     1  UNL1        0.3030
      3  O          5.3430    0.1860    2.5180 O.2     1  UNL1       -0.2520
      4  O          3.3620    1.2840    2.5150 O.3     1  UNL1       -0.4810
      5  H          3.0930    0.8000    3.3760 H       1  UNL1        0.2960
      6  C          6.5250    1.7880    0.7060 C.3     1  UNL1        0.0470
      7  C          7.1540    1.0290   -0.3730 C.2     1  UNL1       -0.0470
      8  C          6.4230    0.1420   -1.1280 C.2     1  UNL1        0.0040
      9  C          8.4930    1.2120   -0.6300 C.2     1  UNL1        0.0040
     10  C          7.0900   -0.5480   -2.1430 C.2     1  UNL1        0.0000
     11  C          9.1510    0.5290   -1.6340 C.2     1  UNL1        0.0000
     12  C          8.4260   -0.3620   -2.3940 C.2     1  UNL1        0.0000
@<TRIPOS>BOND
     1    12    10    2
     2    12    11    1
     3    10     8    1
     4    11     9    2
     5     8     7    2
     6     9     7    1
     7     7     6    1
     8     6     1    1
     9     1     2    1
    10     2     4    1
    11     2     3    2
    12     4     5    1
