@<TRIPOS>MOLECULE
/home/cewinharhar/GITHUB/reincatalyze/data/processed/docking_pred/2023_Apr_20-15:07/a7c8c9f10e55c2841f25afbe7e611a3f864293db_ligand_2.pdbqt
 12 12 0 0 0
SMALL
GASTEIGER

@<TRIPOS>ATOM
      1  C          5.3490    2.9760    0.1380 C.3     1  UNL1        0.1270
      2  C          6.2520    3.8670    0.9040 C.2     1  UNL1        0.3030
      3  O          6.9060    4.7750    0.3350 O.2     1  UNL1       -0.2520
      4  O          6.3990    3.7210    2.2740 O.3     1  UNL1       -0.4810
      5  H          6.8090    2.8590    2.6450 H       1  UNL1        0.2960
      6  C          5.1960    1.6940    0.8990 C.3     1  UNL1        0.0470
      7  C          5.9710    0.5820    0.3520 C.2     1  UNL1       -0.0470
      8  C          6.3410   -0.4770    1.1490 C.2     1  UNL1        0.0040
      9  C          6.3270    0.6010   -0.9770 C.2     1  UNL1        0.0040
     10  C          7.0800   -1.5050    0.5590 C.2     1  UNL1        0.0000
     11  C          7.0580   -0.4160   -1.5580 C.2     1  UNL1        0.0000
     12  C          7.4340   -1.4790   -0.7670 C.2     1  UNL1        0.0000
@<TRIPOS>BOND
     1    11     9    1
     2    11    12    2
     3     9     7    2
     4    12    10    1
     5     1     6    1
     6     1     2    1
     7     3     2    2
     8     7     6    1
     9     7     8    1
    10    10     8    2
    11     2     4    1
    12     4     5    1
