@<TRIPOS>MOLECULE
/home/cewinharhar/GITHUB/reincatalyze/data/processed/docking_pred/2023_Apr_20-15:07/a8cbf1bb962d04eb60783bb2dc55df042853f03a_ligand_2.pdbqt
 12 12 0 0 0
SMALL
GASTEIGER

@<TRIPOS>ATOM
      1  C          5.3820    2.9940    0.0000 C.3     1  UNL1        0.1270
      2  C          6.2350    3.8990    0.8050 C.2     1  UNL1        0.3030
      3  O          6.9630    4.7640    0.2590 O.2     1  UNL1       -0.2520
      4  O          6.2530    3.8150    2.1880 O.3     1  UNL1       -0.4810
      5  H          6.5030    2.9270    2.6330 H       1  UNL1        0.2960
      6  C          4.8480    1.9240    0.9020 C.3     1  UNL1        0.0470
      7  C          5.6430    0.6970    0.9040 C.2     1  UNL1       -0.0470
      8  C          5.7450   -0.0730    2.0400 C.2     1  UNL1        0.0040
      9  C          6.2900    0.3150   -0.2480 C.2     1  UNL1        0.0040
     10  C          6.5210   -1.2330    1.9690 C.2     1  UNL1        0.0000
     11  C          7.0570   -0.8320   -0.3160 C.2     1  UNL1        0.0000
     12  C          7.1650   -1.6080    0.8170 C.2     1  UNL1        0.0000
@<TRIPOS>BOND
     1    11     9    1
     2    11    12    2
     3     9     7    2
     4     1     2    1
     5     1     6    1
     6     3     2    2
     7     2     4    1
     8    12    10    1
     9     6     7    1
    10     7     8    1
    11    10     8    2
    12     4     5    1
