@<TRIPOS>MOLECULE
/home/cewinharhar/GITHUB/reincatalyze/data/processed/docking_pred/2023_Apr_20-15:07/a8cbf1bb962d04eb60783bb2dc55df042853f03a_ligand_2.pdbqt
 12 12 0 0 0
SMALL
GASTEIGER

@<TRIPOS>ATOM
      1  C          8.1970    0.2660   -2.2100 C.3     1  UNL1        0.1270
      2  C          9.3270    0.3640   -1.2560 C.2     1  UNL1        0.3030
      3  O          9.4210   -0.4170   -0.2770 O.2     1  UNL1       -0.2520
      4  O         10.3130    1.3240   -1.4190 O.3     1  UNL1       -0.4810
      5  H         11.2900    1.0740   -1.2440 H       1  UNL1        0.2960
      6  C          7.0860   -0.4890   -1.5480 C.3     1  UNL1        0.0470
      7  C          6.3140    0.3050   -0.5940 C.2     1  UNL1       -0.0470
      8  C          6.0990   -0.1480    0.6870 C.2     1  UNL1        0.0040
      9  C          5.8020    1.5190   -0.9890 C.2     1  UNL1        0.0040
     10  C          5.3540    0.6630    1.5460 C.2     1  UNL1        0.0000
     11  C          5.0650    2.3200   -0.1390 C.2     1  UNL1        0.0000
     12  C          4.8450    1.8730    1.1450 C.2     1  UNL1        0.0000
@<TRIPOS>BOND
     1     1     6    1
     2     1     2    1
     3     6     7    1
     4     4     2    1
     5     4     5    1
     6     2     3    2
     7     9     7    2
     8     9    11    1
     9     7     8    1
    10    11    12    2
    11     8    10    2
    12    12    10    1
