@<TRIPOS>MOLECULE
/home/cewinharhar/GITHUB/reincatalyze/data/processed/docking_pred/2023_Apr_20-15:07/a8cbf1bb962d04eb60783bb2dc55df042853f03a_ligand_2.pdbqt
 12 12 0 0 0
SMALL
GASTEIGER

@<TRIPOS>ATOM
      1  C          8.4270   -0.5590   -2.2130 C.3     1  UNL1        0.1270
      2  C          8.4820   -1.8570   -2.9260 C.2     1  UNL1        0.3030
      3  O          9.5710   -2.4580   -3.0990 O.2     1  UNL1       -0.2520
      4  O          7.3300   -2.4440   -3.4230 O.3     1  UNL1       -0.4810
      5  H          7.4060   -3.1550   -4.1550 H       1  UNL1        0.2960
      6  C          6.9990   -0.1070   -2.1680 C.3     1  UNL1        0.0470
      7  C          6.4750    0.0750   -0.8150 C.2     1  UNL1       -0.0470
      8  C          5.8500    1.2460   -0.4550 C.2     1  UNL1        0.0040
      9  C          6.6120   -0.9430    0.1000 C.2     1  UNL1        0.0040
     10  C          5.3740    1.3510    0.8540 C.2     1  UNL1        0.0000
     11  C          6.1400   -0.8380    1.3940 C.2     1  UNL1        0.0000
     12  C          5.5140    0.3330    1.7630 C.2     1  UNL1        0.0000
@<TRIPOS>BOND
     1     5     4    1
     2     4     2    1
     3     3     2    2
     4     2     1    1
     5     1     6    1
     6     6     7    1
     7     7     8    2
     8     7     9    1
     9     8    10    1
    10     9    11    2
    11    10    12    2
    12    11    12    1
