MODEL 1
REMARK VINA RESULT:      -7.4      0.000      0.000
REMARK SMILES O=C(O)CCc1ccccc1
REMARK SMILES IDX 4 1 2 2 1 3 3 4 5 6 6 7 7 8 11 9 8 10 10 11 9 12
REMARK H PARENT 3 5
REMARK Flexibility Score: inf
ROOT
ATOM      1  C   UNL     1       8.471  -0.588  -2.208  1.00  0.00     0.127 C 
ENDROOT
BRANCH   1   2
ATOM      2  C   UNL     1       8.492  -1.881  -2.932  1.00  0.00     0.303 C 
ATOM      3  O   UNL     1       9.564  -2.514  -3.101  1.00  0.00    -0.252 OA
BRANCH   2   4
ATOM      4  O   UNL     1       7.327  -2.427  -3.446  1.00  0.00    -0.481 OA
ATOM      5  H   UNL     1       7.330  -3.397  -3.771  1.00  0.00     0.296 HD
ENDBRANCH   2   4
ENDBRANCH   1   2
BRANCH   1   6
ATOM      6  C   UNL     1       7.055  -0.098  -2.161  1.00  0.00     0.047 C 
BRANCH   6   7
ATOM      7  C   UNL     1       6.521   0.048  -0.808  1.00  0.00    -0.047 A 
ATOM      8  C   UNL     1       6.652  -0.964   0.113  1.00  0.00     0.004 A 
ATOM      9  C   UNL     1       5.884   1.217  -0.461  1.00  0.00     0.004 A 
ATOM     10  C   UNL     1       6.119  -0.755   1.387  1.00  0.00     0.000 A 
ATOM     11  C   UNL     1       5.357   1.423   0.798  1.00  0.00     0.000 A 
ATOM     12  C   UNL     1       5.483   0.413   1.727  1.00  0.00     0.000 A 
ENDBRANCH   6   7
ENDBRANCH   1   6
TORSDOF 4
ENDMDL
MODEL 2
REMARK VINA RESULT:      -7.3      0.062      1.438
REMARK SMILES O=C(O)CCc1ccccc1
REMARK SMILES IDX 4 1 2 2 1 3 3 4 5 6 6 7 7 8 11 9 8 10 10 11 9 12
REMARK H PARENT 3 5
REMARK Flexibility Score: inf
ROOT
ATOM      1  C   UNL     1       8.427  -0.559  -2.213  1.00  0.00     0.127 C 
ENDROOT
BRANCH   1   2
ATOM      2  C   UNL     1       8.482  -1.857  -2.926  1.00  0.00     0.303 C 
ATOM      3  O   UNL     1       9.571  -2.458  -3.099  1.00  0.00    -0.252 OA
BRANCH   2   4
ATOM      4  O   UNL     1       7.330  -2.444  -3.423  1.00  0.00    -0.481 OA
ATOM      5  H   UNL     1       7.406  -3.155  -4.155  1.00  0.00     0.296 HD
ENDBRANCH   2   4
ENDBRANCH   1   2
BRANCH   1   6
ATOM      6  C   UNL     1       6.999  -0.107  -2.168  1.00  0.00     0.047 C 
BRANCH   6   7
ATOM      7  C   UNL     1       6.475   0.075  -0.815  1.00  0.00    -0.047 A 
ATOM      8  C   UNL     1       5.850   1.246  -0.455  1.00  0.00     0.004 A 
ATOM      9  C   UNL     1       6.612  -0.943   0.100  1.00  0.00     0.004 A 
ATOM     10  C   UNL     1       5.374   1.351   0.854  1.00  0.00     0.000 A 
ATOM     11  C   UNL     1       6.140  -0.838   1.394  1.00  0.00     0.000 A 
ATOM     12  C   UNL     1       5.514   0.333   1.763  1.00  0.00     0.000 A 
ENDBRANCH   6   7
ENDBRANCH   1   6
TORSDOF 4
ENDMDL
MODEL 3
REMARK VINA RESULT:      -6.8      3.366      5.070
REMARK SMILES O=C(O)CCc1ccccc1
REMARK SMILES IDX 4 1 2 2 1 3 3 4 5 6 6 7 7 8 11 9 8 10 10 11 9 12
REMARK H PARENT 3 5
REMARK Flexibility Score: inf
ROOT
ATOM      1  C   UNL     1       5.093   1.756   0.707  1.00  0.00     0.127 C 
ENDROOT
BRANCH   1   2
ATOM      2  C   UNL     1       4.520   1.097   1.904  1.00  0.00     0.303 C 
ATOM      3  O   UNL     1       5.132   0.172   2.493  1.00  0.00    -0.252 OA
BRANCH   2   4
ATOM      4  O   UNL     1       3.288   1.484   2.407  1.00  0.00    -0.481 OA
ATOM      5  H   UNL     1       3.230   1.855   3.359  1.00  0.00     0.296 HD
ENDBRANCH   2   4
ENDBRANCH   1   2
BRANCH   1   6
ATOM      6  C   UNL     1       6.586   1.659   0.785  1.00  0.00     0.047 C 
BRANCH   6   7
ATOM      7  C   UNL     1       7.193   0.924  -0.323  1.00  0.00    -0.047 A 
ATOM      8  C   UNL     1       8.481   1.193  -0.725  1.00  0.00     0.004 A 
ATOM      9  C   UNL     1       6.461  -0.049  -0.964  1.00  0.00     0.004 A 
ATOM     10  C   UNL     1       8.996   0.451  -1.789  1.00  0.00     0.000 A 
ATOM     11  C   UNL     1       6.972  -0.782  -2.016  1.00  0.00     0.000 A 
ATOM     12  C   UNL     1       8.261  -0.517  -2.426  1.00  0.00     0.000 A 
ENDBRANCH   6   7
ENDBRANCH   1   6
TORSDOF 4
ENDMDL
MODEL 4
REMARK VINA RESULT:      -6.7      1.926      2.305
REMARK SMILES O=C(O)CCc1ccccc1
REMARK SMILES IDX 4 1 2 2 1 3 3 4 5 6 6 7 7 8 11 9 8 10 10 11 9 12
REMARK H PARENT 3 5
REMARK Flexibility Score: inf
ROOT
ATOM      1  C   UNL     1       8.197   0.266  -2.210  1.00  0.00     0.127 C 
ENDROOT
BRANCH   1   2
ATOM      2  C   UNL     1       9.327   0.364  -1.256  1.00  0.00     0.303 C 
ATOM      3  O   UNL     1       9.421  -0.417  -0.277  1.00  0.00    -0.252 OA
BRANCH   2   4
ATOM      4  O   UNL     1      10.313   1.324  -1.419  1.00  0.00    -0.481 OA
ATOM      5  H   UNL     1      11.290   1.074  -1.244  1.00  0.00     0.296 HD
ENDBRANCH   2   4
ENDBRANCH   1   2
BRANCH   1   6
ATOM      6  C   UNL     1       7.086  -0.489  -1.548  1.00  0.00     0.047 C 
BRANCH   6   7
ATOM      7  C   UNL     1       6.314   0.305  -0.594  1.00  0.00    -0.047 A 
ATOM      8  C   UNL     1       6.099  -0.148   0.687  1.00  0.00     0.004 A 
ATOM      9  C   UNL     1       5.802   1.519  -0.989  1.00  0.00     0.004 A 
ATOM     10  C   UNL     1       5.354   0.663   1.546  1.00  0.00     0.000 A 
ATOM     11  C   UNL     1       5.065   2.320  -0.139  1.00  0.00     0.000 A 
ATOM     12  C   UNL     1       4.845   1.873   1.145  1.00  0.00     0.000 A 
ENDBRANCH   6   7
ENDBRANCH   1   6
TORSDOF 4
ENDMDL
MODEL 5
REMARK VINA RESULT:      -6.7      3.810      4.946
REMARK SMILES O=C(O)CCc1ccccc1
REMARK SMILES IDX 4 1 2 2 1 3 3 4 5 6 6 7 7 8 11 9 8 10 10 11 9 12
REMARK H PARENT 3 5
REMARK Flexibility Score: inf
ROOT
ATOM      1  C   UNL     1       5.382   2.994   0.000  1.00  0.00     0.127 C 
ENDROOT
BRANCH   1   2
ATOM      2  C   UNL     1       6.235   3.899   0.805  1.00  0.00     0.303 C 
ATOM      3  O   UNL     1       6.963   4.764   0.259  1.00  0.00    -0.252 OA
BRANCH   2   4
ATOM      4  O   UNL     1       6.253   3.815   2.188  1.00  0.00    -0.481 OA
ATOM      5  H   UNL     1       6.503   2.927   2.633  1.00  0.00     0.296 HD
ENDBRANCH   2   4
ENDBRANCH   1   2
BRANCH   1   6
ATOM      6  C   UNL     1       4.848   1.924   0.902  1.00  0.00     0.047 C 
BRANCH   6   7
ATOM      7  C   UNL     1       5.643   0.697   0.904  1.00  0.00    -0.047 A 
ATOM      8  C   UNL     1       5.745  -0.073   2.040  1.00  0.00     0.004 A 
ATOM      9  C   UNL     1       6.290   0.315  -0.248  1.00  0.00     0.004 A 
ATOM     10  C   UNL     1       6.521  -1.233   1.969  1.00  0.00     0.000 A 
ATOM     11  C   UNL     1       7.057  -0.832  -0.316  1.00  0.00     0.000 A 
ATOM     12  C   UNL     1       7.165  -1.608   0.817  1.00  0.00     0.000 A 
ENDBRANCH   6   7
ENDBRANCH   1   6
TORSDOF 4
ENDMDL
