@<TRIPOS>MOLECULE
/home/cewinharhar/GITHUB/reincatalyze/data/processed/docking_pred/2023_Apr_20-15:07/a8cbf1bb962d04eb60783bb2dc55df042853f03a_ligand_2.pdbqt
 12 12 0 0 0
SMALL
GASTEIGER

@<TRIPOS>ATOM
      1  C          8.4710   -0.5880   -2.2080 C.3     1  UNL1        0.1270
      2  C          8.4920   -1.8810   -2.9320 C.2     1  UNL1        0.3030
      3  O          9.5640   -2.5140   -3.1010 O.2     1  UNL1       -0.2520
      4  O          7.3270   -2.4270   -3.4460 O.3     1  UNL1       -0.4810
      5  H          7.3300   -3.3970   -3.7710 H       1  UNL1        0.2960
      6  C          7.0550   -0.0980   -2.1610 C.3     1  UNL1        0.0470
      7  C          6.5210    0.0480   -0.8080 C.2     1  UNL1       -0.0470
      8  C          6.6520   -0.9640    0.1130 C.2     1  UNL1        0.0040
      9  C          5.8840    1.2170   -0.4610 C.2     1  UNL1        0.0040
     10  C          6.1190   -0.7550    1.3870 C.2     1  UNL1        0.0000
     11  C          5.3570    1.4230    0.7980 C.2     1  UNL1        0.0000
     12  C          5.4830    0.4130    1.7270 C.2     1  UNL1        0.0000
@<TRIPOS>BOND
     1     5     4    1
     2     4     2    1
     3     3     2    2
     4     2     1    1
     5     1     6    1
     6     6     7    1
     7     7     9    2
     8     7     8    1
     9     9    11    1
    10     8    10    2
    11    11    12    2
    12    10    12    1
