@<TRIPOS>MOLECULE
/home/cewinharhar/GITHUB/reincatalyze/data/processed/docking_pred/2023_Apr_20-15:07/a8cbf1bb962d04eb60783bb2dc55df042853f03a_ligand_2.pdbqt
 12 12 0 0 0
SMALL
GASTEIGER

@<TRIPOS>ATOM
      1  C          5.0930    1.7560    0.7070 C.3     1  UNL1        0.1270
      2  C          4.5200    1.0970    1.9040 C.2     1  UNL1        0.3030
      3  O          5.1320    0.1720    2.4930 O.2     1  UNL1       -0.2520
      4  O          3.2880    1.4840    2.4070 O.3     1  UNL1       -0.4810
      5  H          3.2300    1.8550    3.3590 H       1  UNL1        0.2960
      6  C          6.5860    1.6590    0.7850 C.3     1  UNL1        0.0470
      7  C          7.1930    0.9240   -0.3230 C.2     1  UNL1       -0.0470
      8  C          8.4810    1.1930   -0.7250 C.2     1  UNL1        0.0040
      9  C          6.4610   -0.0490   -0.9640 C.2     1  UNL1        0.0040
     10  C          8.9960    0.4510   -1.7890 C.2     1  UNL1        0.0000
     11  C          6.9720   -0.7820   -2.0160 C.2     1  UNL1        0.0000
     12  C          8.2610   -0.5170   -2.4260 C.2     1  UNL1        0.0000
@<TRIPOS>BOND
     1    12    11    2
     2    12    10    1
     3    11     9    1
     4    10     8    2
     5     9     7    2
     6     8     7    1
     7     7     6    1
     8     1     6    1
     9     1     2    1
    10     2     4    1
    11     2     3    2
    12     4     5    1
