@<TRIPOS>MOLECULE
/home/cewinharhar/GITHUB/reincatalyze/data/processed/docking_pred/2023_Apr_20-15:07/a991e05863b38587be5f018959c733685726fb49_ligand_2.pdbqt
 12 12 0 0 0
SMALL
GASTEIGER

@<TRIPOS>ATOM
      1  C          8.2270    0.1610   -2.1800 C.3     1  UNL1        0.1270
      2  C          9.3410    0.3730   -1.2260 C.2     1  UNL1        0.3030
      3  O          9.4940   -0.3760   -0.2290 O.2     1  UNL1       -0.2520
      4  O         10.2450    1.4070   -1.4070 O.3     1  UNL1       -0.4810
      5  H         11.0090    1.5280   -0.7370 H       1  UNL1        0.2960
      6  C          7.1290   -0.5690   -1.4690 C.3     1  UNL1        0.0470
      7  C          6.3370    0.2750   -0.5750 C.2     1  UNL1       -0.0470
      8  C          5.7670    1.4410   -1.0300 C.2     1  UNL1        0.0040
      9  C          6.1630   -0.1120    0.7340 C.2     1  UNL1        0.0040
     10  C          5.0230    2.1970   -0.1210 C.2     1  UNL1        0.0000
     11  C          5.4280    0.6370    1.6310 C.2     1  UNL1        0.0000
     12  C          4.8540    1.8070    1.1840 C.2     1  UNL1        0.0000
@<TRIPOS>BOND
     1     1     6    1
     2     1     2    1
     3     6     7    1
     4     4     2    1
     5     4     5    1
     6     2     3    2
     7     8     7    2
     8     8    10    1
     9     7     9    1
    10    10    12    2
    11     9    11    2
    12    12    11    1
