@<TRIPOS>MOLECULE
/home/cewinharhar/GITHUB/reincatalyze/data/processed/docking_pred/2023_Apr_20-15:07/a991e05863b38587be5f018959c733685726fb49_ligand_2.pdbqt
 12 12 0 0 0
SMALL
GASTEIGER

@<TRIPOS>ATOM
      1  C          5.0100    1.7850    0.7000 C.3     1  UNL1        0.1270
      2  C          4.5410    1.0860    1.9200 C.2     1  UNL1        0.3030
      3  O          3.4210    1.3430    2.4270 O.2     1  UNL1       -0.2520
      4  O          5.3280    0.1270    2.5360 O.3     1  UNL1       -0.4810
      5  H          5.9770   -0.4270    1.9700 H       1  UNL1        0.2960
      6  C          6.5080    1.8110    0.7190 C.3     1  UNL1        0.0470
      7  C          7.1300    1.0430   -0.3580 C.2     1  UNL1       -0.0470
      8  C          6.3940    0.1460   -1.0980 C.2     1  UNL1        0.0040
      9  C          8.4660    1.2270   -0.6290 C.2     1  UNL1        0.0040
     10  C          7.0530   -0.5520   -2.1130 C.2     1  UNL1        0.0000
     11  C          9.1160    0.5350   -1.6320 C.2     1  UNL1        0.0000
     12  C          8.3860   -0.3650   -2.3780 C.2     1  UNL1        0.0000
@<TRIPOS>BOND
     1    12    10    2
     2    12    11    1
     3    10     8    1
     4    11     9    2
     5     8     7    2
     6     9     7    1
     7     7     6    1
     8     1     6    1
     9     1     2    1
    10     2     3    2
    11     2     4    1
    12     5     4    1
