@<TRIPOS>MOLECULE
/home/cewinharhar/GITHUB/reincatalyze/data/processed/docking_pred/2023_Apr_20-15:07/a991e05863b38587be5f018959c733685726fb49_ligand_2.pdbqt
 12 12 0 0 0
SMALL
GASTEIGER

@<TRIPOS>ATOM
      1  C          8.4400   -0.5820   -2.2030 C.3     1  UNL1        0.1270
      2  C          8.4820   -1.8790   -2.9170 C.2     1  UNL1        0.3030
      3  O          9.5640   -2.4900   -3.0930 O.2     1  UNL1       -0.2520
      4  O          7.3230   -2.4540   -3.4130 O.3     1  UNL1       -0.4810
      5  H          6.4720   -2.4380   -2.8440 H       1  UNL1        0.2960
      6  C          7.0170   -0.1110   -2.1630 C.3     1  UNL1        0.0470
      7  C          6.4820    0.0500   -0.8130 C.2     1  UNL1       -0.0470
      8  C          6.6070   -0.9550    0.1180 C.2     1  UNL1        0.0040
      9  C          5.8470    1.2240   -0.4780 C.2     1  UNL1        0.0040
     10  C          6.0730   -0.7320    1.3890 C.2     1  UNL1        0.0000
     11  C          5.3190    1.4420    0.7790 C.2     1  UNL1        0.0000
     12  C          5.4400    0.4410    1.7170 C.2     1  UNL1        0.0000
@<TRIPOS>BOND
     1     4     2    1
     2     4     5    1
     3     3     2    2
     4     2     1    1
     5     1     6    1
     6     6     7    1
     7     7     9    2
     8     7     8    1
     9     9    11    1
    10     8    10    2
    11    11    12    2
    12    10    12    1
