@<TRIPOS>MOLECULE
/home/cewinharhar/GITHUB/reincatalyze/data/processed/docking_pred/2023_Apr_20-15:07/a991e05863b38587be5f018959c733685726fb49_ligand_2.pdbqt
 12 12 0 0 0
SMALL
GASTEIGER

@<TRIPOS>ATOM
      1  C          5.3560    2.9300    0.0160 C.3     1  UNL1        0.1270
      2  C          6.2050    3.8520    0.8070 C.2     1  UNL1        0.3030
      3  O          6.8570    4.7720    0.2540 O.2     1  UNL1       -0.2520
      4  O          6.3040    3.7230    2.1830 O.3     1  UNL1       -0.4810
      5  H          6.6230    2.8360    2.5810 H       1  UNL1        0.2960
      6  C          5.2200    1.6470    0.7770 C.3     1  UNL1        0.0470
      7  C          6.0170    0.5470    0.2350 C.2     1  UNL1       -0.0470
      8  C          6.4460   -0.4770    1.0470 C.2     1  UNL1        0.0040
      9  C          6.3350    0.5440   -1.1030 C.2     1  UNL1        0.0040
     10  C          7.2030   -1.4950    0.4610 C.2     1  UNL1        0.0000
     11  C          7.0830   -0.4620   -1.6800 C.2     1  UNL1        0.0000
     12  C          7.5170   -1.4920   -0.8740 C.2     1  UNL1        0.0000
@<TRIPOS>BOND
     1    11     9    1
     2    11    12    2
     3     9     7    2
     4    12    10    1
     5     1     6    1
     6     1     2    1
     7     7     6    1
     8     7     8    1
     9     3     2    2
    10    10     8    2
    11     2     4    1
    12     4     5    1
