MODEL 1
REMARK VINA RESULT:      -7.4      0.000      0.000
REMARK SMILES O=C(O)CCc1ccccc1
REMARK SMILES IDX 4 1 2 2 1 3 3 4 5 6 6 7 7 8 11 9 8 10 10 11 9 12
REMARK H PARENT 3 5
REMARK Flexibility Score: inf
ROOT
ATOM      1  C   UNL     1       8.440  -0.582  -2.203  1.00  0.00     0.127 C 
ENDROOT
BRANCH   1   2
ATOM      2  C   UNL     1       8.482  -1.879  -2.917  1.00  0.00     0.303 C 
ATOM      3  O   UNL     1       9.564  -2.490  -3.093  1.00  0.00    -0.252 OA
BRANCH   2   4
ATOM      4  O   UNL     1       7.323  -2.454  -3.413  1.00  0.00    -0.481 OA
ATOM      5  H   UNL     1       6.472  -2.438  -2.844  1.00  0.00     0.296 HD
ENDBRANCH   2   4
ENDBRANCH   1   2
BRANCH   1   6
ATOM      6  C   UNL     1       7.017  -0.111  -2.163  1.00  0.00     0.047 C 
BRANCH   6   7
ATOM      7  C   UNL     1       6.482   0.050  -0.813  1.00  0.00    -0.047 A 
ATOM      8  C   UNL     1       6.607  -0.955   0.118  1.00  0.00     0.004 A 
ATOM      9  C   UNL     1       5.847   1.224  -0.478  1.00  0.00     0.004 A 
ATOM     10  C   UNL     1       6.073  -0.732   1.389  1.00  0.00     0.000 A 
ATOM     11  C   UNL     1       5.319   1.442   0.779  1.00  0.00     0.000 A 
ATOM     12  C   UNL     1       5.440   0.441   1.717  1.00  0.00     0.000 A 
ENDBRANCH   6   7
ENDBRANCH   1   6
TORSDOF 4
ENDMDL
MODEL 2
REMARK VINA RESULT:      -7.3      0.130      1.732
REMARK SMILES O=C(O)CCc1ccccc1
REMARK SMILES IDX 4 1 2 2 1 3 3 4 5 6 6 7 7 8 11 9 8 10 10 11 9 12
REMARK H PARENT 3 5
REMARK Flexibility Score: inf
ROOT
ATOM      1  C   UNL     1       8.410  -0.619  -2.115  1.00  0.00     0.127 C 
ENDROOT
BRANCH   1   2
ATOM      2  C   UNL     1       8.387  -1.885  -2.885  1.00  0.00     0.303 C 
ATOM      3  O   UNL     1       7.303  -2.418  -3.228  1.00  0.00    -0.252 OA
BRANCH   2   4
ATOM      4  O   UNL     1       9.565  -2.518  -3.247  1.00  0.00    -0.481 OA
ATOM      5  H   UNL     1      10.448  -2.001  -3.194  1.00  0.00     0.296 HD
ENDBRANCH   2   4
ENDBRANCH   1   2
BRANCH   1   6
ATOM      6  C   UNL     1       7.021  -0.058  -2.090  1.00  0.00     0.047 C 
BRANCH   6   7
ATOM      7  C   UNL     1       6.468   0.099  -0.746  1.00  0.00    -0.047 A 
ATOM      8  C   UNL     1       5.829   1.261  -0.379  1.00  0.00     0.004 A 
ATOM      9  C   UNL     1       6.589  -0.934   0.155  1.00  0.00     0.004 A 
ATOM     10  C   UNL     1       5.324   1.341   0.921  1.00  0.00     0.000 A 
ATOM     11  C   UNL     1       6.089  -0.853   1.440  1.00  0.00     0.000 A 
ATOM     12  C   UNL     1       5.449   0.308   1.815  1.00  0.00     0.000 A 
ENDBRANCH   6   7
ENDBRANCH   1   6
TORSDOF 4
ENDMDL
MODEL 3
REMARK VINA RESULT:      -6.6      3.333      5.102
REMARK SMILES O=C(O)CCc1ccccc1
REMARK SMILES IDX 4 1 2 2 1 3 3 4 5 6 6 7 7 8 11 9 8 10 10 11 9 12
REMARK H PARENT 3 5
REMARK Flexibility Score: inf
ROOT
ATOM      1  C   UNL     1       5.010   1.785   0.700  1.00  0.00     0.127 C 
ENDROOT
BRANCH   1   2
ATOM      2  C   UNL     1       4.541   1.086   1.920  1.00  0.00     0.303 C 
ATOM      3  O   UNL     1       3.421   1.343   2.427  1.00  0.00    -0.252 OA
BRANCH   2   4
ATOM      4  O   UNL     1       5.328   0.127   2.536  1.00  0.00    -0.481 OA
ATOM      5  H   UNL     1       5.977  -0.427   1.970  1.00  0.00     0.296 HD
ENDBRANCH   2   4
ENDBRANCH   1   2
BRANCH   1   6
ATOM      6  C   UNL     1       6.508   1.811   0.719  1.00  0.00     0.047 C 
BRANCH   6   7
ATOM      7  C   UNL     1       7.130   1.043  -0.358  1.00  0.00    -0.047 A 
ATOM      8  C   UNL     1       6.394   0.146  -1.098  1.00  0.00     0.004 A 
ATOM      9  C   UNL     1       8.466   1.227  -0.629  1.00  0.00     0.004 A 
ATOM     10  C   UNL     1       7.053  -0.552  -2.113  1.00  0.00     0.000 A 
ATOM     11  C   UNL     1       9.116   0.535  -1.632  1.00  0.00     0.000 A 
ATOM     12  C   UNL     1       8.386  -0.365  -2.378  1.00  0.00     0.000 A 
ENDBRANCH   6   7
ENDBRANCH   1   6
TORSDOF 4
ENDMDL
MODEL 4
REMARK VINA RESULT:      -6.6      3.702      4.949
REMARK SMILES O=C(O)CCc1ccccc1
REMARK SMILES IDX 4 1 2 2 1 3 3 4 5 6 6 7 7 8 11 9 8 10 10 11 9 12
REMARK H PARENT 3 5
REMARK Flexibility Score: inf
ROOT
ATOM      1  C   UNL     1       5.356   2.930   0.016  1.00  0.00     0.127 C 
ENDROOT
BRANCH   1   2
ATOM      2  C   UNL     1       6.205   3.852   0.807  1.00  0.00     0.303 C 
ATOM      3  O   UNL     1       6.857   4.772   0.254  1.00  0.00    -0.252 OA
BRANCH   2   4
ATOM      4  O   UNL     1       6.304   3.723   2.183  1.00  0.00    -0.481 OA
ATOM      5  H   UNL     1       6.623   2.836   2.581  1.00  0.00     0.296 HD
ENDBRANCH   2   4
ENDBRANCH   1   2
BRANCH   1   6
ATOM      6  C   UNL     1       5.220   1.647   0.777  1.00  0.00     0.047 C 
BRANCH   6   7
ATOM      7  C   UNL     1       6.017   0.547   0.235  1.00  0.00    -0.047 A 
ATOM      8  C   UNL     1       6.446  -0.477   1.047  1.00  0.00     0.004 A 
ATOM      9  C   UNL     1       6.335   0.544  -1.103  1.00  0.00     0.004 A 
ATOM     10  C   UNL     1       7.203  -1.495   0.461  1.00  0.00     0.000 A 
ATOM     11  C   UNL     1       7.083  -0.462  -1.680  1.00  0.00     0.000 A 
ATOM     12  C   UNL     1       7.517  -1.492  -0.874  1.00  0.00     0.000 A 
ENDBRANCH   6   7
ENDBRANCH   1   6
TORSDOF 4
ENDMDL
MODEL 5
REMARK VINA RESULT:      -6.6      1.933      2.649
REMARK SMILES O=C(O)CCc1ccccc1
REMARK SMILES IDX 4 1 2 2 1 3 3 4 5 6 6 7 7 8 11 9 8 10 10 11 9 12
REMARK H PARENT 3 5
REMARK Flexibility Score: inf
ROOT
ATOM      1  C   UNL     1       8.227   0.161  -2.180  1.00  0.00     0.127 C 
ENDROOT
BRANCH   1   2
ATOM      2  C   UNL     1       9.341   0.373  -1.226  1.00  0.00     0.303 C 
ATOM      3  O   UNL     1       9.494  -0.376  -0.229  1.00  0.00    -0.252 OA
BRANCH   2   4
ATOM      4  O   UNL     1      10.245   1.407  -1.407  1.00  0.00    -0.481 OA
ATOM      5  H   UNL     1      11.009   1.528  -0.737  1.00  0.00     0.296 HD
ENDBRANCH   2   4
ENDBRANCH   1   2
BRANCH   1   6
ATOM      6  C   UNL     1       7.129  -0.569  -1.469  1.00  0.00     0.047 C 
BRANCH   6   7
ATOM      7  C   UNL     1       6.337   0.275  -0.575  1.00  0.00    -0.047 A 
ATOM      8  C   UNL     1       5.767   1.441  -1.030  1.00  0.00     0.004 A 
ATOM      9  C   UNL     1       6.163  -0.112   0.734  1.00  0.00     0.004 A 
ATOM     10  C   UNL     1       5.023   2.197  -0.121  1.00  0.00     0.000 A 
ATOM     11  C   UNL     1       5.428   0.637   1.631  1.00  0.00     0.000 A 
ATOM     12  C   UNL     1       4.854   1.807   1.184  1.00  0.00     0.000 A 
ENDBRANCH   6   7
ENDBRANCH   1   6
TORSDOF 4
ENDMDL
