@<TRIPOS>MOLECULE
/home/cewinharhar/GITHUB/reincatalyze/data/processed/docking_pred/2023_Apr_20-15:07/a991e05863b38587be5f018959c733685726fb49_ligand_2.pdbqt
 12 12 0 0 0
SMALL
GASTEIGER

@<TRIPOS>ATOM
      1  C          8.4100   -0.6190   -2.1150 C.3     1  UNL1        0.1270
      2  C          8.3870   -1.8850   -2.8850 C.2     1  UNL1        0.3030
      3  O          7.3030   -2.4180   -3.2280 O.2     1  UNL1       -0.2520
      4  O          9.5650   -2.5180   -3.2470 O.3     1  UNL1       -0.4810
      5  H         10.4480   -2.0010   -3.1940 H       1  UNL1        0.2960
      6  C          7.0210   -0.0580   -2.0900 C.3     1  UNL1        0.0470
      7  C          6.4680    0.0990   -0.7460 C.2     1  UNL1       -0.0470
      8  C          5.8290    1.2610   -0.3790 C.2     1  UNL1        0.0040
      9  C          6.5890   -0.9340    0.1550 C.2     1  UNL1        0.0040
     10  C          5.3240    1.3410    0.9210 C.2     1  UNL1        0.0000
     11  C          6.0890   -0.8530    1.4400 C.2     1  UNL1        0.0000
     12  C          5.4490    0.3080    1.8150 C.2     1  UNL1        0.0000
@<TRIPOS>BOND
     1     4     5    1
     2     4     2    1
     3     3     2    2
     4     2     1    1
     5     1     6    1
     6     6     7    1
     7     7     8    2
     8     7     9    1
     9     8    10    1
    10     9    11    2
    11    10    12    2
    12    11    12    1
