@<TRIPOS>MOLECULE
/home/cewinharhar/GITHUB/reincatalyze/data/processed/docking_pred/2023_Apr_20-15:07/a9d08a951453574d65a810177cdd831b7fbb923c_ligand_2.pdbqt
 12 12 0 0 0
SMALL
GASTEIGER

@<TRIPOS>ATOM
      1  C          8.4690    0.6370   -1.6620 C.3     1  UNL1        0.1270
      2  C          9.6290    0.2600   -0.8200 C.2     1  UNL1        0.3030
      3  O          9.5000   -0.5230    0.1530 O.2     1  UNL1       -0.2520
      4  O         10.8920    0.7640   -1.0850 O.3     1  UNL1       -0.4810
      5  H         11.2750    0.6850   -2.0320 H       1  UNL1        0.2960
      6  C          7.3190   -0.2560   -1.3060 C.3     1  UNL1        0.0470
      7  C          6.4180    0.3060   -0.3010 C.2     1  UNL1       -0.0470
      8  C          5.8050    1.5200   -0.5060 C.2     1  UNL1        0.0040
      9  C          6.1850   -0.3970    0.8580 C.2     1  UNL1        0.0040
     10  C          4.9560    1.9950    0.4960 C.2     1  UNL1        0.0000
     11  C          5.3460    0.0740    1.8480 C.2     1  UNL1        0.0000
     12  C          4.7290    1.2900    1.6520 C.2     1  UNL1        0.0000
@<TRIPOS>BOND
     1     5     4    1
     2     1     6    1
     3     1     2    1
     4     6     7    1
     5     4     2    1
     6     2     3    2
     7     8     7    2
     8     8    10    1
     9     7     9    1
    10    10    12    2
    11     9    11    2
    12    12    11    1
