@<TRIPOS>MOLECULE
/home/cewinharhar/GITHUB/reincatalyze/data/processed/docking_pred/2023_Apr_20-15:07/a9d08a951453574d65a810177cdd831b7fbb923c_ligand_2.pdbqt
 12 12 0 0 0
SMALL
GASTEIGER

@<TRIPOS>ATOM
      1  C          8.4330   -0.6430   -2.1300 C.3     1  UNL1        0.1270
      2  C          8.4780   -1.9190   -2.8820 C.2     1  UNL1        0.3030
      3  O          9.5610   -2.5290   -3.0640 O.2     1  UNL1       -0.2520
      4  O          7.3230   -2.4760   -3.4070 O.3     1  UNL1       -0.4810
      5  H          6.4660   -1.9170   -3.4360 H       1  UNL1        0.2960
      6  C          7.0170   -0.1530   -2.1210 C.3     1  UNL1        0.0470
      7  C          6.4680    0.0540   -0.7820 C.2     1  UNL1       -0.0470
      8  C          5.8290    1.2280   -0.4570 C.2     1  UNL1        0.0040
      9  C          6.5940   -0.9440    0.1560 C.2     1  UNL1        0.0040
     10  C          5.3280    1.3550    0.8400 C.2     1  UNL1        0.0000
     11  C          6.0980   -0.8160    1.4380 C.2     1  UNL1        0.0000
     12  C          5.4580    0.3570    1.7720 C.2     1  UNL1        0.0000
@<TRIPOS>BOND
     1     5     4    1
     2     4     2    1
     3     3     2    2
     4     2     1    1
     5     1     6    1
     6     6     7    1
     7     7     8    2
     8     7     9    1
     9     8    10    1
    10     9    11    2
    11    10    12    2
    12    11    12    1
