MODEL 1
REMARK VINA RESULT:      -7.3      0.000      0.000
REMARK SMILES O=C(O)CCc1ccccc1
REMARK SMILES IDX 4 1 2 2 1 3 3 4 5 6 6 7 7 8 11 9 8 10 10 11 9 12
REMARK H PARENT 3 5
REMARK Flexibility Score: inf
ROOT
ATOM      1  C   UNL     1       8.433  -0.643  -2.130  1.00  0.00     0.127 C 
ENDROOT
BRANCH   1   2
ATOM      2  C   UNL     1       8.478  -1.919  -2.882  1.00  0.00     0.303 C 
ATOM      3  O   UNL     1       9.561  -2.529  -3.064  1.00  0.00    -0.252 OA
BRANCH   2   4
ATOM      4  O   UNL     1       7.323  -2.476  -3.407  1.00  0.00    -0.481 OA
ATOM      5  H   UNL     1       6.466  -1.917  -3.436  1.00  0.00     0.296 HD
ENDBRANCH   2   4
ENDBRANCH   1   2
BRANCH   1   6
ATOM      6  C   UNL     1       7.017  -0.153  -2.121  1.00  0.00     0.047 C 
BRANCH   6   7
ATOM      7  C   UNL     1       6.468   0.054  -0.782  1.00  0.00    -0.047 A 
ATOM      8  C   UNL     1       5.829   1.228  -0.457  1.00  0.00     0.004 A 
ATOM      9  C   UNL     1       6.594  -0.944   0.156  1.00  0.00     0.004 A 
ATOM     10  C   UNL     1       5.328   1.355   0.840  1.00  0.00     0.000 A 
ATOM     11  C   UNL     1       6.098  -0.816   1.438  1.00  0.00     0.000 A 
ATOM     12  C   UNL     1       5.458   0.357   1.772  1.00  0.00     0.000 A 
ENDBRANCH   6   7
ENDBRANCH   1   6
TORSDOF 4
ENDMDL
MODEL 2
REMARK VINA RESULT:      -7.3      0.084      1.439
REMARK SMILES O=C(O)CCc1ccccc1
REMARK SMILES IDX 4 1 2 2 1 3 3 4 5 6 6 7 7 8 11 9 8 10 10 11 9 12
REMARK H PARENT 3 5
REMARK Flexibility Score: inf
ROOT
ATOM      1  C   UNL     1       8.421  -0.571  -2.254  1.00  0.00     0.127 C 
ENDROOT
BRANCH   1   2
ATOM      2  C   UNL     1       8.479  -1.881  -2.945  1.00  0.00     0.303 C 
ATOM      3  O   UNL     1       9.568  -2.488  -3.098  1.00  0.00    -0.252 OA
BRANCH   2   4
ATOM      4  O   UNL     1       7.330  -2.473  -3.443  1.00  0.00    -0.481 OA
ATOM      5  H   UNL     1       6.766  -3.068  -2.829  1.00  0.00     0.296 HD
ENDBRANCH   2   4
ENDBRANCH   1   2
BRANCH   1   6
ATOM      6  C   UNL     1       6.989  -0.136  -2.191  1.00  0.00     0.047 C 
BRANCH   6   7
ATOM      7  C   UNL     1       6.478   0.033  -0.831  1.00  0.00    -0.047 A 
ATOM      8  C   UNL     1       6.619  -0.967   0.102  1.00  0.00     0.004 A 
ATOM      9  C   UNL     1       5.853   1.210  -0.491  1.00  0.00     0.004 A 
ATOM     10  C   UNL     1       6.109  -0.736   1.382  1.00  0.00     0.000 A 
ATOM     11  C   UNL     1       5.348   1.437   0.774  1.00  0.00     0.000 A 
ATOM     12  C   UNL     1       5.485   0.440   1.716  1.00  0.00     0.000 A 
ENDBRANCH   6   7
ENDBRANCH   1   6
TORSDOF 4
ENDMDL
MODEL 3
REMARK VINA RESULT:      -7.2      0.648      1.613
REMARK SMILES O=C(O)CCc1ccccc1
REMARK SMILES IDX 4 1 2 2 1 3 3 4 5 6 6 7 7 8 11 9 8 10 10 11 9 12
REMARK H PARENT 3 5
REMARK Flexibility Score: inf
ROOT
ATOM      1  C   UNL     1       8.304  -0.906  -1.831  1.00  0.00     0.127 C 
ENDROOT
BRANCH   1   2
ATOM      2  C   UNL     1       8.446  -1.982  -2.840  1.00  0.00     0.303 C 
ATOM      3  O   UNL     1       9.569  -2.466  -3.122  1.00  0.00    -0.252 OA
BRANCH   2   4
ATOM      4  O   UNL     1       7.337  -2.484  -3.502  1.00  0.00    -0.481 OA
ATOM      5  H   UNL     1       6.417  -2.422  -3.058  1.00  0.00     0.296 HD
ENDBRANCH   2   4
ENDBRANCH   1   2
BRANCH   1   6
ATOM      6  C   UNL     1       7.364  -1.381  -0.765  1.00  0.00     0.047 C 
BRANCH   6   7
ATOM      7  C   UNL     1       6.558  -0.318  -0.166  1.00  0.00    -0.047 A 
ATOM      8  C   UNL     1       6.156  -0.395   1.147  1.00  0.00     0.004 A 
ATOM      9  C   UNL     1       6.205   0.769  -0.932  1.00  0.00     0.004 A 
ATOM     10  C   UNL     1       5.389   0.657   1.653  1.00  0.00     0.000 A 
ATOM     11  C   UNL     1       5.446   1.807  -0.431  1.00  0.00     0.000 A 
ATOM     12  C   UNL     1       5.038   1.738   0.884  1.00  0.00     0.000 A 
ENDBRANCH   6   7
ENDBRANCH   1   6
TORSDOF 4
ENDMDL
MODEL 4
REMARK VINA RESULT:      -6.7      3.348      5.021
REMARK SMILES O=C(O)CCc1ccccc1
REMARK SMILES IDX 4 1 2 2 1 3 3 4 5 6 6 7 7 8 11 9 8 10 10 11 9 12
REMARK H PARENT 3 5
REMARK Flexibility Score: inf
ROOT
ATOM      1  C   UNL     1       5.052   1.693   0.692  1.00  0.00     0.127 C 
ENDROOT
BRANCH   1   2
ATOM      2  C   UNL     1       4.587   1.019   1.928  1.00  0.00     0.303 C 
ATOM      3  O   UNL     1       5.292   0.152   2.501  1.00  0.00    -0.252 OA
BRANCH   2   4
ATOM      4  O   UNL     1       3.357   1.329   2.485  1.00  0.00    -0.481 OA
ATOM      5  H   UNL     1       3.048   2.305   2.507  1.00  0.00     0.296 HD
ENDBRANCH   2   4
ENDBRANCH   1   2
BRANCH   1   6
ATOM      6  C   UNL     1       6.550   1.743   0.719  1.00  0.00     0.047 C 
BRANCH   6   7
ATOM      7  C   UNL     1       7.189   0.995  -0.363  1.00  0.00    -0.047 A 
ATOM      8  C   UNL     1       8.511   1.207  -0.679  1.00  0.00     0.004 A 
ATOM      9  C   UNL     1       6.452   0.070  -1.065  1.00  0.00     0.004 A 
ATOM     10  C   UNL     1       9.056   0.456  -1.723  1.00  0.00     0.000 A 
ATOM     11  C   UNL     1       6.992  -0.671  -2.098  1.00  0.00     0.000 A 
ATOM     12  C   UNL     1       8.316  -0.465  -2.421  1.00  0.00     0.000 A 
ENDBRANCH   6   7
ENDBRANCH   1   6
TORSDOF 4
ENDMDL
MODEL 5
REMARK VINA RESULT:      -6.5      2.077      2.353
REMARK SMILES O=C(O)CCc1ccccc1
REMARK SMILES IDX 4 1 2 2 1 3 3 4 5 6 6 7 7 8 11 9 8 10 10 11 9 12
REMARK H PARENT 3 5
REMARK Flexibility Score: inf
ROOT
ATOM      1  C   UNL     1       8.469   0.637  -1.662  1.00  0.00     0.127 C 
ENDROOT
BRANCH   1   2
ATOM      2  C   UNL     1       9.629   0.260  -0.820  1.00  0.00     0.303 C 
ATOM      3  O   UNL     1       9.500  -0.523   0.153  1.00  0.00    -0.252 OA
BRANCH   2   4
ATOM      4  O   UNL     1      10.892   0.764  -1.085  1.00  0.00    -0.481 OA
ATOM      5  H   UNL     1      11.275   0.685  -2.032  1.00  0.00     0.296 HD
ENDBRANCH   2   4
ENDBRANCH   1   2
BRANCH   1   6
ATOM      6  C   UNL     1       7.319  -0.256  -1.306  1.00  0.00     0.047 C 
BRANCH   6   7
ATOM      7  C   UNL     1       6.418   0.306  -0.301  1.00  0.00    -0.047 A 
ATOM      8  C   UNL     1       5.805   1.520  -0.506  1.00  0.00     0.004 A 
ATOM      9  C   UNL     1       6.185  -0.397   0.858  1.00  0.00     0.004 A 
ATOM     10  C   UNL     1       4.956   1.995   0.496  1.00  0.00     0.000 A 
ATOM     11  C   UNL     1       5.346   0.074   1.848  1.00  0.00     0.000 A 
ATOM     12  C   UNL     1       4.729   1.290   1.652  1.00  0.00     0.000 A 
ENDBRANCH   6   7
ENDBRANCH   1   6
TORSDOF 4
ENDMDL
