@<TRIPOS>MOLECULE
/home/cewinharhar/GITHUB/reincatalyze/data/processed/docking_pred/2023_Apr_20-15:07/a9d08a951453574d65a810177cdd831b7fbb923c_ligand_2.pdbqt
 12 12 0 0 0
SMALL
GASTEIGER

@<TRIPOS>ATOM
      1  C          5.0520    1.6930    0.6920 C.3     1  UNL1        0.1270
      2  C          4.5870    1.0190    1.9280 C.2     1  UNL1        0.3030
      3  O          5.2920    0.1520    2.5010 O.2     1  UNL1       -0.2520
      4  O          3.3570    1.3290    2.4850 O.3     1  UNL1       -0.4810
      5  H          3.0480    2.3050    2.5070 H       1  UNL1        0.2960
      6  C          6.5500    1.7430    0.7190 C.3     1  UNL1        0.0470
      7  C          7.1890    0.9950   -0.3630 C.2     1  UNL1       -0.0470
      8  C          8.5110    1.2070   -0.6790 C.2     1  UNL1        0.0040
      9  C          6.4520    0.0700   -1.0650 C.2     1  UNL1        0.0040
     10  C          9.0560    0.4560   -1.7230 C.2     1  UNL1        0.0000
     11  C          6.9920   -0.6710   -2.0980 C.2     1  UNL1        0.0000
     12  C          8.3160   -0.4650   -2.4210 C.2     1  UNL1        0.0000
@<TRIPOS>BOND
     1    12    11    2
     2    12    10    1
     3    11     9    1
     4    10     8    2
     5     9     7    2
     6     8     7    1
     7     7     6    1
     8     1     6    1
     9     1     2    1
    10     2     4    1
    11     2     3    2
    12     4     5    1
