@<TRIPOS>MOLECULE
/home/cewinharhar/GITHUB/reincatalyze/data/processed/docking_pred/2023_Apr_20-15:07/a9d08a951453574d65a810177cdd831b7fbb923c_ligand_2.pdbqt
 12 12 0 0 0
SMALL
GASTEIGER

@<TRIPOS>ATOM
      1  C          8.4210   -0.5710   -2.2540 C.3     1  UNL1        0.1270
      2  C          8.4790   -1.8810   -2.9450 C.2     1  UNL1        0.3030
      3  O          9.5680   -2.4880   -3.0980 O.2     1  UNL1       -0.2520
      4  O          7.3300   -2.4730   -3.4430 O.3     1  UNL1       -0.4810
      5  H          6.7660   -3.0680   -2.8290 H       1  UNL1        0.2960
      6  C          6.9890   -0.1360   -2.1910 C.3     1  UNL1        0.0470
      7  C          6.4780    0.0330   -0.8310 C.2     1  UNL1       -0.0470
      8  C          6.6190   -0.9670    0.1020 C.2     1  UNL1        0.0040
      9  C          5.8530    1.2100   -0.4910 C.2     1  UNL1        0.0040
     10  C          6.1090   -0.7360    1.3820 C.2     1  UNL1        0.0000
     11  C          5.3480    1.4370    0.7740 C.2     1  UNL1        0.0000
     12  C          5.4850    0.4400    1.7160 C.2     1  UNL1        0.0000
@<TRIPOS>BOND
     1     4     2    1
     2     4     5    1
     3     3     2    2
     4     2     1    1
     5     1     6    1
     6     6     7    1
     7     7     9    2
     8     7     8    1
     9     9    11    1
    10     8    10    2
    11    11    12    2
    12    10    12    1
