@<TRIPOS>MOLECULE
/home/cewinharhar/GITHUB/reincatalyze/data/processed/docking_pred/2023_Apr_20-15:07/a9d08a951453574d65a810177cdd831b7fbb923c_ligand_2.pdbqt
 12 12 0 0 0
SMALL
GASTEIGER

@<TRIPOS>ATOM
      1  C          8.3040   -0.9060   -1.8310 C.3     1  UNL1        0.1270
      2  C          8.4460   -1.9820   -2.8400 C.2     1  UNL1        0.3030
      3  O          9.5690   -2.4660   -3.1220 O.2     1  UNL1       -0.2520
      4  O          7.3370   -2.4840   -3.5020 O.3     1  UNL1       -0.4810
      5  H          6.4170   -2.4220   -3.0580 H       1  UNL1        0.2960
      6  C          7.3640   -1.3810   -0.7650 C.3     1  UNL1        0.0470
      7  C          6.5580   -0.3180   -0.1660 C.2     1  UNL1       -0.0470
      8  C          6.1560   -0.3950    1.1470 C.2     1  UNL1        0.0040
      9  C          6.2050    0.7690   -0.9320 C.2     1  UNL1        0.0040
     10  C          5.3890    0.6570    1.6530 C.2     1  UNL1        0.0000
     11  C          5.4460    1.8070   -0.4310 C.2     1  UNL1        0.0000
     12  C          5.0380    1.7380    0.8840 C.2     1  UNL1        0.0000
@<TRIPOS>BOND
     1     4     5    1
     2     4     2    1
     3     3     2    2
     4     2     1    1
     5     1     6    1
     6     9    11    1
     7     9     7    2
     8     6     7    1
     9    11    12    2
    10     7     8    1
    11    12    10    1
    12     8    10    2
