@<TRIPOS>MOLECULE
/home/cewinharhar/GITHUB/reincatalyze/data/processed/docking_pred/2023_Apr_20-15:07/ab317eb7565d030be4138c7249420e244018cf00_ligand_2.pdbqt
 12 12 0 0 0
SMALL
GASTEIGER

@<TRIPOS>ATOM
      1  C          8.4290   -0.5940   -2.1820 C.3     1  UNL1        0.1270
      2  C          8.4800   -1.8820   -2.9120 C.2     1  UNL1        0.3030
      3  O          9.5680   -2.4840   -3.0940 O.2     1  UNL1       -0.2520
      4  O          7.3260   -2.4600   -3.4150 O.3     1  UNL1       -0.4810
      5  H          7.3570   -2.9360   -4.3210 H       1  UNL1        0.2960
      6  C          7.0030   -0.1330   -2.1410 C.3     1  UNL1        0.0470
      7  C          6.4760    0.0500   -0.7900 C.2     1  UNL1       -0.0470
      8  C          5.8520    1.2220   -0.4310 C.2     1  UNL1        0.0040
      9  C          6.6100   -0.9680    0.1260 C.2     1  UNL1        0.0040
     10  C          5.3720    1.3260    0.8760 C.2     1  UNL1        0.0000
     11  C          6.1350   -0.8630    1.4180 C.2     1  UNL1        0.0000
     12  C          5.5080    0.3080    1.7860 C.2     1  UNL1        0.0000
@<TRIPOS>BOND
     1     5     4    1
     2     4     2    1
     3     3     2    2
     4     2     1    1
     5     1     6    1
     6     6     7    1
     7     7     8    2
     8     7     9    1
     9     8    10    1
    10     9    11    2
    11    10    12    2
    12    11    12    1
