@<TRIPOS>MOLECULE
/home/cewinharhar/GITHUB/reincatalyze/data/processed/docking_pred/2023_Apr_20-15:07/ab317eb7565d030be4138c7249420e244018cf00_ligand_2.pdbqt
 12 12 0 0 0
SMALL
GASTEIGER

@<TRIPOS>ATOM
      1  C          7.3210   -1.3200   -2.1680 C.3     1  UNL1        0.1270
      2  C          8.7580   -1.3710   -2.5240 C.2     1  UNL1        0.3030
      3  O          9.5570   -0.4830   -2.1360 O.2     1  UNL1       -0.2520
      4  O          9.2620   -2.4050   -3.2980 O.3     1  UNL1       -0.4810
      5  H          9.6430   -3.2360   -2.8370 H       1  UNL1        0.2960
      6  C          7.2020   -1.4070   -0.6770 C.3     1  UNL1        0.0470
      7  C          6.4320   -0.3180   -0.0780 C.2     1  UNL1       -0.0470
      8  C          5.9880   -0.4020    1.2210 C.2     1  UNL1        0.0040
      9  C          6.1560    0.8010   -0.8290 C.2     1  UNL1        0.0040
     10  C          5.2590    0.6760    1.7280 C.2     1  UNL1        0.0000
     11  C          5.4350    1.8660   -0.3260 C.2     1  UNL1        0.0000
     12  C          4.9860    1.7890    0.9740 C.2     1  UNL1        0.0000
@<TRIPOS>BOND
     1     4     5    1
     2     4     2    1
     3     2     1    1
     4     2     3    2
     5     1     6    1
     6     9    11    1
     7     9     7    2
     8     6     7    1
     9    11    12    2
    10     7     8    1
    11    12    10    1
    12     8    10    2
