@<TRIPOS>MOLECULE
/home/cewinharhar/GITHUB/reincatalyze/data/processed/docking_pred/2023_Apr_20-15:07/ab317eb7565d030be4138c7249420e244018cf00_ligand_2.pdbqt
 12 12 0 0 0
SMALL
GASTEIGER

@<TRIPOS>ATOM
      1  C          8.4340   -0.5680   -2.2150 C.3     1  UNL1        0.1270
      2  C          8.4700   -1.8730   -2.9170 C.2     1  UNL1        0.3030
      3  O          9.5480   -2.4970   -3.0740 O.2     1  UNL1       -0.2520
      4  O          7.3110   -2.4400   -3.4210 O.3     1  UNL1       -0.4810
      5  H          7.1820   -2.5000   -4.4340 H       1  UNL1        0.2960
      6  C          7.0110   -0.1010   -2.1620 C.3     1  UNL1        0.0470
      7  C          6.4850    0.0510   -0.8070 C.2     1  UNL1       -0.0470
      8  C          6.6240   -0.9560    0.1190 C.2     1  UNL1        0.0040
      9  C          5.8470    1.2200   -0.4620 C.2     1  UNL1        0.0040
     10  C          6.0980   -0.7410    1.3950 C.2     1  UNL1        0.0000
     11  C          5.3270    1.4310    0.8000 C.2     1  UNL1        0.0000
     12  C          5.4620    0.4270    1.7330 C.2     1  UNL1        0.0000
@<TRIPOS>BOND
     1     5     4    1
     2     4     2    1
     3     3     2    2
     4     2     1    1
     5     1     6    1
     6     6     7    1
     7     7     9    2
     8     7     8    1
     9     9    11    1
    10     8    10    2
    11    11    12    2
    12    10    12    1
