@<TRIPOS>MOLECULE
/home/cewinharhar/GITHUB/reincatalyze/data/processed/docking_pred/2023_Apr_20-15:07/ab317eb7565d030be4138c7249420e244018cf00_ligand_2.pdbqt
 12 12 0 0 0
SMALL
GASTEIGER

@<TRIPOS>ATOM
      1  C          5.0620    1.7120    0.6920 C.3     1  UNL1        0.1270
      2  C          4.5900    1.0300    1.9210 C.2     1  UNL1        0.3030
      3  O          5.2920    0.1590    2.4920 O.2     1  UNL1       -0.2520
      4  O          3.3570    1.3360    2.4730 O.3     1  UNL1       -0.4810
      5  H          2.5390    1.4130    1.8620 H       1  UNL1        0.2960
      6  C          6.5600    1.7490    0.7210 C.3     1  UNL1        0.0470
      7  C          7.1940    0.9980   -0.3620 C.2     1  UNL1       -0.0470
      8  C          8.5160    1.2040   -0.6810 C.2     1  UNL1        0.0040
      9  C          6.4520    0.0760   -1.0630 C.2     1  UNL1        0.0040
     10  C          9.0560    0.4520   -1.7260 C.2     1  UNL1        0.0000
     11  C          6.9870   -0.6670   -2.0970 C.2     1  UNL1        0.0000
     12  C          8.3110   -0.4660   -2.4230 C.2     1  UNL1        0.0000
@<TRIPOS>BOND
     1    12    11    2
     2    12    10    1
     3    11     9    1
     4    10     8    2
     5     9     7    2
     6     8     7    1
     7     7     6    1
     8     1     6    1
     9     1     2    1
    10     5     4    1
    11     2     4    1
    12     2     3    2
