@<TRIPOS>MOLECULE
/home/cewinharhar/GITHUB/reincatalyze/data/processed/docking_pred/2023_Apr_20-15:07/ab317eb7565d030be4138c7249420e244018cf00_ligand_2.pdbqt
 12 12 0 0 0
SMALL
GASTEIGER

@<TRIPOS>ATOM
      1  C          8.2580    0.1630   -2.1570 C.3     1  UNL1        0.1270
      2  C          9.3880    0.3370   -1.2150 C.2     1  UNL1        0.3030
      3  O          9.4970   -0.3800   -0.1890 O.2     1  UNL1       -0.2520
      4  O         10.3590    1.3000   -1.4410 O.3     1  UNL1       -0.4810
      5  H         11.2260    1.0340   -1.9150 H       1  UNL1        0.2960
      6  C          7.1700   -0.5900   -1.4540 C.3     1  UNL1        0.0470
      7  C          6.3780    0.2280   -0.5370 C.2     1  UNL1       -0.0470
      8  C          6.1430   -0.1880    0.7530 C.2     1  UNL1        0.0040
      9  C          5.8660    1.4260   -0.9780 C.2     1  UNL1        0.0040
     10  C          5.3790    0.6440    1.5740 C.2     1  UNL1        0.0000
     11  C          5.1100    2.2480   -0.1650 C.2     1  UNL1        0.0000
     12  C          4.8710    1.8380    1.1280 C.2     1  UNL1        0.0000
@<TRIPOS>BOND
     1     1     6    1
     2     1     2    1
     3     5     4    1
     4     6     7    1
     5     4     2    1
     6     2     3    2
     7     9     7    2
     8     9    11    1
     9     7     8    1
    10    11    12    2
    11     8    10    2
    12    12    10    1
