MODEL 1
REMARK VINA RESULT:      -7.3      0.000      0.000
REMARK SMILES O=C(O)CCc1ccccc1
REMARK SMILES IDX 4 1 2 2 1 3 3 4 5 6 6 7 7 8 11 9 8 10 10 11 9 12
REMARK H PARENT 3 5
REMARK Flexibility Score: inf
ROOT
ATOM      1  C   UNL     1       8.429  -0.594  -2.182  1.00  0.00     0.127 C 
ENDROOT
BRANCH   1   2
ATOM      2  C   UNL     1       8.480  -1.882  -2.912  1.00  0.00     0.303 C 
ATOM      3  O   UNL     1       9.568  -2.484  -3.094  1.00  0.00    -0.252 OA
BRANCH   2   4
ATOM      4  O   UNL     1       7.326  -2.460  -3.415  1.00  0.00    -0.481 OA
ATOM      5  H   UNL     1       7.357  -2.936  -4.321  1.00  0.00     0.296 HD
ENDBRANCH   2   4
ENDBRANCH   1   2
BRANCH   1   6
ATOM      6  C   UNL     1       7.003  -0.133  -2.141  1.00  0.00     0.047 C 
BRANCH   6   7
ATOM      7  C   UNL     1       6.476   0.050  -0.790  1.00  0.00    -0.047 A 
ATOM      8  C   UNL     1       5.852   1.222  -0.431  1.00  0.00     0.004 A 
ATOM      9  C   UNL     1       6.610  -0.968   0.126  1.00  0.00     0.004 A 
ATOM     10  C   UNL     1       5.372   1.326   0.876  1.00  0.00     0.000 A 
ATOM     11  C   UNL     1       6.135  -0.863   1.418  1.00  0.00     0.000 A 
ATOM     12  C   UNL     1       5.508   0.308   1.786  1.00  0.00     0.000 A 
ENDBRANCH   6   7
ENDBRANCH   1   6
TORSDOF 4
ENDMDL
MODEL 2
REMARK VINA RESULT:      -7.3      0.075      1.438
REMARK SMILES O=C(O)CCc1ccccc1
REMARK SMILES IDX 4 1 2 2 1 3 3 4 5 6 6 7 7 8 11 9 8 10 10 11 9 12
REMARK H PARENT 3 5
REMARK Flexibility Score: inf
ROOT
ATOM      1  C   UNL     1       8.434  -0.568  -2.215  1.00  0.00     0.127 C 
ENDROOT
BRANCH   1   2
ATOM      2  C   UNL     1       8.470  -1.873  -2.917  1.00  0.00     0.303 C 
ATOM      3  O   UNL     1       9.548  -2.497  -3.074  1.00  0.00    -0.252 OA
BRANCH   2   4
ATOM      4  O   UNL     1       7.311  -2.440  -3.421  1.00  0.00    -0.481 OA
ATOM      5  H   UNL     1       7.182  -2.500  -4.434  1.00  0.00     0.296 HD
ENDBRANCH   2   4
ENDBRANCH   1   2
BRANCH   1   6
ATOM      6  C   UNL     1       7.011  -0.101  -2.162  1.00  0.00     0.047 C 
BRANCH   6   7
ATOM      7  C   UNL     1       6.485   0.051  -0.807  1.00  0.00    -0.047 A 
ATOM      8  C   UNL     1       6.624  -0.956   0.119  1.00  0.00     0.004 A 
ATOM      9  C   UNL     1       5.847   1.220  -0.462  1.00  0.00     0.004 A 
ATOM     10  C   UNL     1       6.098  -0.741   1.395  1.00  0.00     0.000 A 
ATOM     11  C   UNL     1       5.327   1.431   0.800  1.00  0.00     0.000 A 
ATOM     12  C   UNL     1       5.462   0.427   1.733  1.00  0.00     0.000 A 
ENDBRANCH   6   7
ENDBRANCH   1   6
TORSDOF 4
ENDMDL
MODEL 3
REMARK VINA RESULT:      -7.0      0.983      1.914
REMARK SMILES O=C(O)CCc1ccccc1
REMARK SMILES IDX 4 1 2 2 1 3 3 4 5 6 6 7 7 8 11 9 8 10 10 11 9 12
REMARK H PARENT 3 5
REMARK Flexibility Score: inf
ROOT
ATOM      1  C   UNL     1       7.321  -1.320  -2.168  1.00  0.00     0.127 C 
ENDROOT
BRANCH   1   2
ATOM      2  C   UNL     1       8.758  -1.371  -2.524  1.00  0.00     0.303 C 
ATOM      3  O   UNL     1       9.557  -0.483  -2.136  1.00  0.00    -0.252 OA
BRANCH   2   4
ATOM      4  O   UNL     1       9.262  -2.405  -3.298  1.00  0.00    -0.481 OA
ATOM      5  H   UNL     1       9.643  -3.236  -2.837  1.00  0.00     0.296 HD
ENDBRANCH   2   4
ENDBRANCH   1   2
BRANCH   1   6
ATOM      6  C   UNL     1       7.202  -1.407  -0.677  1.00  0.00     0.047 C 
BRANCH   6   7
ATOM      7  C   UNL     1       6.432  -0.318  -0.078  1.00  0.00    -0.047 A 
ATOM      8  C   UNL     1       5.988  -0.402   1.221  1.00  0.00     0.004 A 
ATOM      9  C   UNL     1       6.156   0.801  -0.829  1.00  0.00     0.004 A 
ATOM     10  C   UNL     1       5.259   0.676   1.728  1.00  0.00     0.000 A 
ATOM     11  C   UNL     1       5.435   1.866  -0.326  1.00  0.00     0.000 A 
ATOM     12  C   UNL     1       4.986   1.789   0.974  1.00  0.00     0.000 A 
ENDBRANCH   6   7
ENDBRANCH   1   6
TORSDOF 4
ENDMDL
MODEL 4
REMARK VINA RESULT:      -6.7      3.347      5.016
REMARK SMILES O=C(O)CCc1ccccc1
REMARK SMILES IDX 4 1 2 2 1 3 3 4 5 6 6 7 7 8 11 9 8 10 10 11 9 12
REMARK H PARENT 3 5
REMARK Flexibility Score: inf
ROOT
ATOM      1  C   UNL     1       5.062   1.712   0.692  1.00  0.00     0.127 C 
ENDROOT
BRANCH   1   2
ATOM      2  C   UNL     1       4.590   1.030   1.921  1.00  0.00     0.303 C 
ATOM      3  O   UNL     1       5.292   0.159   2.492  1.00  0.00    -0.252 OA
BRANCH   2   4
ATOM      4  O   UNL     1       3.357   1.336   2.473  1.00  0.00    -0.481 OA
ATOM      5  H   UNL     1       2.539   1.413   1.862  1.00  0.00     0.296 HD
ENDBRANCH   2   4
ENDBRANCH   1   2
BRANCH   1   6
ATOM      6  C   UNL     1       6.560   1.749   0.721  1.00  0.00     0.047 C 
BRANCH   6   7
ATOM      7  C   UNL     1       7.194   0.998  -0.362  1.00  0.00    -0.047 A 
ATOM      8  C   UNL     1       8.516   1.204  -0.681  1.00  0.00     0.004 A 
ATOM      9  C   UNL     1       6.452   0.076  -1.063  1.00  0.00     0.004 A 
ATOM     10  C   UNL     1       9.056   0.452  -1.726  1.00  0.00     0.000 A 
ATOM     11  C   UNL     1       6.987  -0.667  -2.097  1.00  0.00     0.000 A 
ATOM     12  C   UNL     1       8.311  -0.466  -2.423  1.00  0.00     0.000 A 
ENDBRANCH   6   7
ENDBRANCH   1   6
TORSDOF 4
ENDMDL
MODEL 5
REMARK VINA RESULT:      -6.7      1.948      2.671
REMARK SMILES O=C(O)CCc1ccccc1
REMARK SMILES IDX 4 1 2 2 1 3 3 4 5 6 6 7 7 8 11 9 8 10 10 11 9 12
REMARK H PARENT 3 5
REMARK Flexibility Score: inf
ROOT
ATOM      1  C   UNL     1       8.258   0.163  -2.157  1.00  0.00     0.127 C 
ENDROOT
BRANCH   1   2
ATOM      2  C   UNL     1       9.388   0.337  -1.215  1.00  0.00     0.303 C 
ATOM      3  O   UNL     1       9.497  -0.380  -0.189  1.00  0.00    -0.252 OA
BRANCH   2   4
ATOM      4  O   UNL     1      10.359   1.300  -1.441  1.00  0.00    -0.481 OA
ATOM      5  H   UNL     1      11.226   1.034  -1.915  1.00  0.00     0.296 HD
ENDBRANCH   2   4
ENDBRANCH   1   2
BRANCH   1   6
ATOM      6  C   UNL     1       7.170  -0.590  -1.454  1.00  0.00     0.047 C 
BRANCH   6   7
ATOM      7  C   UNL     1       6.378   0.228  -0.537  1.00  0.00    -0.047 A 
ATOM      8  C   UNL     1       6.143  -0.188   0.753  1.00  0.00     0.004 A 
ATOM      9  C   UNL     1       5.866   1.426  -0.978  1.00  0.00     0.004 A 
ATOM     10  C   UNL     1       5.379   0.644   1.574  1.00  0.00     0.000 A 
ATOM     11  C   UNL     1       5.110   2.248  -0.165  1.00  0.00     0.000 A 
ATOM     12  C   UNL     1       4.871   1.838   1.128  1.00  0.00     0.000 A 
ENDBRANCH   6   7
ENDBRANCH   1   6
TORSDOF 4
ENDMDL
