MODEL 1
REMARK VINA RESULT:      -7.3      0.000      0.000
REMARK SMILES O=C(O)CCc1ccccc1
REMARK SMILES IDX 4 1 2 2 1 3 3 4 5 6 6 7 7 8 11 9 8 10 10 11 9 12
REMARK H PARENT 3 5
REMARK Flexibility Score: inf
ROOT
ATOM      1  C   UNL     1       8.433  -0.565  -2.221  1.00  0.00     0.127 C 
ENDROOT
BRANCH   1   2
ATOM      2  C   UNL     1       8.484  -1.874  -2.914  1.00  0.00     0.303 C 
ATOM      3  O   UNL     1       9.568  -2.491  -3.062  1.00  0.00    -0.252 OA
BRANCH   2   4
ATOM      4  O   UNL     1       7.333  -2.455  -3.421  1.00  0.00    -0.481 OA
ATOM      5  H   UNL     1       7.316  -2.767  -4.396  1.00  0.00     0.296 HD
ENDBRANCH   2   4
ENDBRANCH   1   2
BRANCH   1   6
ATOM      6  C   UNL     1       7.005  -0.114  -2.172  1.00  0.00     0.047 C 
BRANCH   6   7
ATOM      7  C   UNL     1       6.483   0.058  -0.818  1.00  0.00    -0.047 A 
ATOM      8  C   UNL     1       5.854   1.225  -0.449  1.00  0.00     0.004 A 
ATOM      9  C   UNL     1       6.624  -0.965   0.092  1.00  0.00     0.004 A 
ATOM     10  C   UNL     1       5.378   1.320   0.860  1.00  0.00     0.000 A 
ATOM     11  C   UNL     1       6.154  -0.869   1.386  1.00  0.00     0.000 A 
ATOM     12  C   UNL     1       5.523   0.297   1.763  1.00  0.00     0.000 A 
ENDBRANCH   6   7
ENDBRANCH   1   6
TORSDOF 4
ENDMDL
MODEL 2
REMARK VINA RESULT:      -7.3      0.072      1.438
REMARK SMILES O=C(O)CCc1ccccc1
REMARK SMILES IDX 4 1 2 2 1 3 3 4 5 6 6 7 7 8 11 9 8 10 10 11 9 12
REMARK H PARENT 3 5
REMARK Flexibility Score: inf
ROOT
ATOM      1  C   UNL     1       8.413  -0.528  -2.296  1.00  0.00     0.127 C 
ENDROOT
BRANCH   1   2
ATOM      2  C   UNL     1       8.471  -1.857  -2.951  1.00  0.00     0.303 C 
ATOM      3  O   UNL     1       9.562  -2.461  -3.101  1.00  0.00    -0.252 OA
BRANCH   2   4
ATOM      4  O   UNL     1       7.319  -2.469  -3.418  1.00  0.00    -0.481 OA
ATOM      5  H   UNL     1       6.933  -3.266  -2.904  1.00  0.00     0.296 HD
ENDBRANCH   2   4
ENDBRANCH   1   2
BRANCH   1   6
ATOM      6  C   UNL     1       6.977  -0.111  -2.205  1.00  0.00     0.047 C 
BRANCH   6   7
ATOM      7  C   UNL     1       6.488   0.039  -0.835  1.00  0.00    -0.047 A 
ATOM      8  C   UNL     1       6.621  -0.984   0.075  1.00  0.00     0.004 A 
ATOM      9  C   UNL     1       5.891   1.221  -0.461  1.00  0.00     0.004 A 
ATOM     10  C   UNL     1       6.131  -0.770   1.366  1.00  0.00     0.000 A 
ATOM     11  C   UNL     1       5.407   1.430   0.815  1.00  0.00     0.000 A 
ATOM     12  C   UNL     1       5.536   0.410   1.733  1.00  0.00     0.000 A 
ENDBRANCH   6   7
ENDBRANCH   1   6
TORSDOF 4
ENDMDL
MODEL 3
REMARK VINA RESULT:      -6.8      3.385      5.081
REMARK SMILES O=C(O)CCc1ccccc1
REMARK SMILES IDX 4 1 2 2 1 3 3 4 5 6 6 7 7 8 11 9 8 10 10 11 9 12
REMARK H PARENT 3 5
REMARK Flexibility Score: inf
ROOT
ATOM      1  C   UNL     1       5.023   1.791   0.736  1.00  0.00     0.127 C 
ENDROOT
BRANCH   1   2
ATOM      2  C   UNL     1       4.476   1.106   1.930  1.00  0.00     0.303 C 
ATOM      3  O   UNL     1       5.109   0.181   2.497  1.00  0.00    -0.252 OA
BRANCH   2   4
ATOM      4  O   UNL     1       3.246   1.468   2.455  1.00  0.00    -0.481 OA
ATOM      5  H   UNL     1       2.895   0.985   3.287  1.00  0.00     0.296 HD
ENDBRANCH   2   4
ENDBRANCH   1   2
BRANCH   1   6
ATOM      6  C   UNL     1       6.519   1.709   0.789  1.00  0.00     0.047 C 
BRANCH   6   7
ATOM      7  C   UNL     1       7.113   0.960  -0.317  1.00  0.00    -0.047 A 
ATOM      8  C   UNL     1       6.391  -0.004  -0.981  1.00  0.00     0.004 A 
ATOM      9  C   UNL     1       8.408   1.231  -0.691  1.00  0.00     0.004 A 
ATOM     10  C   UNL     1       7.022  -0.679  -2.029  1.00  0.00     0.000 A 
ATOM     11  C   UNL     1       9.031   0.562  -1.727  1.00  0.00     0.000 A 
ATOM     12  C   UNL     1       8.315  -0.406  -2.397  1.00  0.00     0.000 A 
ENDBRANCH   6   7
ENDBRANCH   1   6
TORSDOF 4
ENDMDL
MODEL 4
REMARK VINA RESULT:      -6.6      3.831      4.934
REMARK SMILES O=C(O)CCc1ccccc1
REMARK SMILES IDX 4 1 2 2 1 3 3 4 5 6 6 7 7 8 11 9 8 10 10 11 9 12
REMARK H PARENT 3 5
REMARK Flexibility Score: inf
ROOT
ATOM      1  C   UNL     1       5.701   2.992  -0.129  1.00  0.00     0.127 C 
ENDROOT
BRANCH   1   2
ATOM      2  C   UNL     1       6.385   3.931   0.792  1.00  0.00     0.303 C 
ATOM      3  O   UNL     1       7.211   4.775   0.365  1.00  0.00    -0.252 OA
BRANCH   2   4
ATOM      4  O   UNL     1       6.131   3.901   2.153  1.00  0.00    -0.481 OA
ATOM      5  H   UNL     1       6.765   3.388   2.771  1.00  0.00     0.296 HD
ENDBRANCH   2   4
ENDBRANCH   1   2
BRANCH   1   6
ATOM      6  C   UNL     1       4.968   1.977   0.693  1.00  0.00     0.047 C 
BRANCH   6   7
ATOM      7  C   UNL     1       5.686   0.714   0.857  1.00  0.00    -0.047 A 
ATOM      8  C   UNL     1       5.698   0.065   2.070  1.00  0.00     0.004 A 
ATOM      9  C   UNL     1       6.352   0.176  -0.219  1.00  0.00     0.004 A 
ATOM     10  C   UNL     1       6.404  -1.138   2.154  1.00  0.00     0.000 A 
ATOM     11  C   UNL     1       7.049  -1.013  -0.134  1.00  0.00     0.000 A 
ATOM     12  C   UNL     1       7.067  -1.670   1.077  1.00  0.00     0.000 A 
ENDBRANCH   6   7
ENDBRANCH   1   6
TORSDOF 4
ENDMDL
MODEL 5
REMARK VINA RESULT:      -6.6      2.011      2.305
REMARK SMILES O=C(O)CCc1ccccc1
REMARK SMILES IDX 4 1 2 2 1 3 3 4 5 6 6 7 7 8 11 9 8 10 10 11 9 12
REMARK H PARENT 3 5
REMARK Flexibility Score: inf
ROOT
ATOM      1  C   UNL     1       8.342   0.347  -1.870  1.00  0.00     0.127 C 
ENDROOT
BRANCH   1   2
ATOM      2  C   UNL     1       9.492   0.208  -0.946  1.00  0.00     0.303 C 
ATOM      3  O   UNL     1       9.432  -0.539   0.061  1.00  0.00    -0.252 OA
BRANCH   2   4
ATOM      4  O   UNL     1      10.670   0.903  -1.170  1.00  0.00    -0.481 OA
ATOM      5  H   UNL     1      10.911   1.187  -2.124  1.00  0.00     0.296 HD
ENDBRANCH   2   4
ENDBRANCH   1   2
BRANCH   1   6
ATOM      6  C   UNL     1       7.212  -0.484  -1.342  1.00  0.00     0.047 C 
BRANCH   6   7
ATOM      7  C   UNL     1       6.371   0.208  -0.366  1.00  0.00    -0.047 A 
ATOM      8  C   UNL     1       5.815   1.432  -0.658  1.00  0.00     0.004 A 
ATOM      9  C   UNL     1       6.138  -0.380   0.856  1.00  0.00     0.004 A 
ATOM     10  C   UNL     1       5.022   2.034   0.321  1.00  0.00     0.000 A 
ATOM     11  C   UNL     1       5.354   0.217   1.823  1.00  0.00     0.000 A 
ATOM     12  C   UNL     1       4.794   1.444   1.538  1.00  0.00     0.000 A 
ENDBRANCH   6   7
ENDBRANCH   1   6
TORSDOF 4
ENDMDL
