@<TRIPOS>MOLECULE
/home/cewinharhar/GITHUB/reincatalyze/data/processed/docking_pred/2023_Apr_20-15:07/ab5903e155d5198269deee73f32ad6fb308dffee_ligand_2.pdbqt
 12 12 0 0 0
SMALL
GASTEIGER

@<TRIPOS>ATOM
      1  C          8.3420    0.3470   -1.8700 C.3     1  UNL1        0.1270
      2  C          9.4920    0.2080   -0.9460 C.2     1  UNL1        0.3030
      3  O          9.4320   -0.5390    0.0610 O.2     1  UNL1       -0.2520
      4  O         10.6700    0.9030   -1.1700 O.3     1  UNL1       -0.4810
      5  H         10.9110    1.1870   -2.1240 H       1  UNL1        0.2960
      6  C          7.2120   -0.4840   -1.3420 C.3     1  UNL1        0.0470
      7  C          6.3710    0.2080   -0.3660 C.2     1  UNL1       -0.0470
      8  C          5.8150    1.4320   -0.6580 C.2     1  UNL1        0.0040
      9  C          6.1380   -0.3800    0.8560 C.2     1  UNL1        0.0040
     10  C          5.0220    2.0340    0.3210 C.2     1  UNL1        0.0000
     11  C          5.3540    0.2170    1.8230 C.2     1  UNL1        0.0000
     12  C          4.7940    1.4440    1.5380 C.2     1  UNL1        0.0000
@<TRIPOS>BOND
     1     5     4    1
     2     1     6    1
     3     1     2    1
     4     6     7    1
     5     4     2    1
     6     2     3    2
     7     8     7    2
     8     8    10    1
     9     7     9    1
    10    10    12    2
    11     9    11    2
    12    12    11    1
