@<TRIPOS>MOLECULE
/home/cewinharhar/GITHUB/reincatalyze/data/processed/docking_pred/2023_Apr_20-15:07/ab5903e155d5198269deee73f32ad6fb308dffee_ligand_2.pdbqt
 12 12 0 0 0
SMALL
GASTEIGER

@<TRIPOS>ATOM
      1  C          5.7010    2.9920   -0.1290 C.3     1  UNL1        0.1270
      2  C          6.3850    3.9310    0.7920 C.2     1  UNL1        0.3030
      3  O          7.2110    4.7750    0.3650 O.2     1  UNL1       -0.2520
      4  O          6.1310    3.9010    2.1530 O.3     1  UNL1       -0.4810
      5  H          6.7650    3.3880    2.7710 H       1  UNL1        0.2960
      6  C          4.9680    1.9770    0.6930 C.3     1  UNL1        0.0470
      7  C          5.6860    0.7140    0.8570 C.2     1  UNL1       -0.0470
      8  C          5.6980    0.0650    2.0700 C.2     1  UNL1        0.0040
      9  C          6.3520    0.1760   -0.2190 C.2     1  UNL1        0.0040
     10  C          6.4040   -1.1380    2.1540 C.2     1  UNL1        0.0000
     11  C          7.0490   -1.0130   -0.1340 C.2     1  UNL1        0.0000
     12  C          7.0670   -1.6700    1.0770 C.2     1  UNL1        0.0000
@<TRIPOS>BOND
     1     9    11    1
     2     9     7    2
     3    11    12    2
     4     1     6    1
     5     1     2    1
     6     3     2    2
     7     6     7    1
     8     2     4    1
     9     7     8    1
    10    12    10    1
    11     8    10    2
    12     4     5    1
