@<TRIPOS>MOLECULE
/home/cewinharhar/GITHUB/reincatalyze/data/processed/docking_pred/2023_Apr_20-15:07/ab5903e155d5198269deee73f32ad6fb308dffee_ligand_2.pdbqt
 12 12 0 0 0
SMALL
GASTEIGER

@<TRIPOS>ATOM
      1  C          8.4130   -0.5280   -2.2960 C.3     1  UNL1        0.1270
      2  C          8.4710   -1.8570   -2.9510 C.2     1  UNL1        0.3030
      3  O          9.5620   -2.4610   -3.1010 O.2     1  UNL1       -0.2520
      4  O          7.3190   -2.4690   -3.4180 O.3     1  UNL1       -0.4810
      5  H          6.9330   -3.2660   -2.9040 H       1  UNL1        0.2960
      6  C          6.9770   -0.1110   -2.2050 C.3     1  UNL1        0.0470
      7  C          6.4880    0.0390   -0.8350 C.2     1  UNL1       -0.0470
      8  C          6.6210   -0.9840    0.0750 C.2     1  UNL1        0.0040
      9  C          5.8910    1.2210   -0.4610 C.2     1  UNL1        0.0040
     10  C          6.1310   -0.7700    1.3660 C.2     1  UNL1        0.0000
     11  C          5.4070    1.4300    0.8150 C.2     1  UNL1        0.0000
     12  C          5.5360    0.4100    1.7330 C.2     1  UNL1        0.0000
@<TRIPOS>BOND
     1     4     2    1
     2     4     5    1
     3     3     2    2
     4     2     1    1
     5     1     6    1
     6     6     7    1
     7     7     9    2
     8     7     8    1
     9     9    11    1
    10     8    10    2
    11    11    12    2
    12    10    12    1
