@<TRIPOS>MOLECULE
/home/cewinharhar/GITHUB/reincatalyze/data/processed/docking_pred/2023_Apr_20-15:07/ab5903e155d5198269deee73f32ad6fb308dffee_ligand_2.pdbqt
 12 12 0 0 0
SMALL
GASTEIGER

@<TRIPOS>ATOM
      1  C          5.0230    1.7910    0.7360 C.3     1  UNL1        0.1270
      2  C          4.4760    1.1060    1.9300 C.2     1  UNL1        0.3030
      3  O          5.1090    0.1810    2.4970 O.2     1  UNL1       -0.2520
      4  O          3.2460    1.4680    2.4550 O.3     1  UNL1       -0.4810
      5  H          2.8950    0.9850    3.2870 H       1  UNL1        0.2960
      6  C          6.5190    1.7090    0.7890 C.3     1  UNL1        0.0470
      7  C          7.1130    0.9600   -0.3170 C.2     1  UNL1       -0.0470
      8  C          6.3910   -0.0040   -0.9810 C.2     1  UNL1        0.0040
      9  C          8.4080    1.2310   -0.6910 C.2     1  UNL1        0.0040
     10  C          7.0220   -0.6790   -2.0290 C.2     1  UNL1        0.0000
     11  C          9.0310    0.5620   -1.7270 C.2     1  UNL1        0.0000
     12  C          8.3150   -0.4060   -2.3970 C.2     1  UNL1        0.0000
@<TRIPOS>BOND
     1    12    10    2
     2    12    11    1
     3    10     8    1
     4    11     9    2
     5     8     7    2
     6     9     7    1
     7     7     6    1
     8     1     6    1
     9     1     2    1
    10     2     4    1
    11     2     3    2
    12     4     5    1
