@<TRIPOS>MOLECULE
/home/cewinharhar/GITHUB/reincatalyze/data/processed/docking_pred/2023_Apr_20-15:07/ab955c776f37f5544fae82246801d9a2769dfb79_ligand_2.pdbqt
 12 12 0 0 0
SMALL
GASTEIGER

@<TRIPOS>ATOM
      1  C          8.4010   -0.8830   -1.8570 C.3     1  UNL1        0.1270
      2  C          8.4480   -2.0070   -2.8210 C.2     1  UNL1        0.3030
      3  O          9.5360   -2.5520   -3.1340 O.2     1  UNL1       -0.2520
      4  O          7.2890   -2.4890   -3.4070 O.3     1  UNL1       -0.4810
      5  H          6.5560   -1.8300   -3.6830 H       1  UNL1        0.2960
      6  C          7.0570   -0.2290   -1.9610 C.3     1  UNL1        0.0470
      7  C          6.4360    0.0620   -0.6710 C.2     1  UNL1       -0.0470
      8  C          6.4900   -0.8510    0.3570 C.2     1  UNL1        0.0040
      9  C          5.7930    1.2650   -0.4910 C.2     1  UNL1        0.0040
     10  C          5.8750   -0.5060    1.5630 C.2     1  UNL1        0.0000
     11  C          5.1850    1.6040    0.7020 C.2     1  UNL1        0.0000
     12  C          5.2340    0.6950    1.7370 C.2     1  UNL1        0.0000
@<TRIPOS>BOND
     1     5     4    1
     2     4     2    1
     3     3     2    2
     4     2     1    1
     5     6     1    1
     6     6     7    1
     7     7     9    2
     8     7     8    1
     9     9    11    1
    10     8    10    2
    11    11    12    2
    12    10    12    1
