MODEL 1
REMARK VINA RESULT:      -7.3      0.000      0.000
REMARK SMILES O=C(O)CCc1ccccc1
REMARK SMILES IDX 4 1 2 2 1 3 3 4 5 6 6 7 7 8 11 9 8 10 10 11 9 12
REMARK H PARENT 3 5
REMARK Flexibility Score: inf
ROOT
ATOM      1  C   UNL     1       8.416  -0.574  -2.197  1.00  0.00     0.127 C 
ENDROOT
BRANCH   1   2
ATOM      2  C   UNL     1       8.457  -1.877  -2.901  1.00  0.00     0.303 C 
ATOM      3  O   UNL     1       9.538  -2.496  -3.064  1.00  0.00    -0.252 OA
BRANCH   2   4
ATOM      4  O   UNL     1       7.299  -2.449  -3.403  1.00  0.00    -0.481 OA
ATOM      5  H   UNL     1       7.273  -2.753  -4.380  1.00  0.00     0.296 HD
ENDBRANCH   2   4
ENDBRANCH   1   2
BRANCH   1   6
ATOM      6  C   UNL     1       6.994  -0.104  -2.157  1.00  0.00     0.047 C 
BRANCH   6   7
ATOM      7  C   UNL     1       6.465   0.076  -0.806  1.00  0.00    -0.047 A 
ATOM      8  C   UNL     1       5.844   1.249  -0.445  1.00  0.00     0.004 A 
ATOM      9  C   UNL     1       6.593  -0.945   0.107  1.00  0.00     0.004 A 
ATOM     10  C   UNL     1       5.362   1.351   0.862  1.00  0.00     0.000 A 
ATOM     11  C   UNL     1       6.116  -0.842   1.398  1.00  0.00     0.000 A 
ATOM     12  C   UNL     1       5.493   0.330   1.769  1.00  0.00     0.000 A 
ENDBRANCH   6   7
ENDBRANCH   1   6
TORSDOF 4
ENDMDL
MODEL 2
REMARK VINA RESULT:      -7.3      0.291      1.459
REMARK SMILES O=C(O)CCc1ccccc1
REMARK SMILES IDX 4 1 2 2 1 3 3 4 5 6 6 7 7 8 11 9 8 10 10 11 9 12
REMARK H PARENT 3 5
REMARK Flexibility Score: inf
ROOT
ATOM      1  C   UNL     1       8.401  -0.883  -1.857  1.00  0.00     0.127 C 
ENDROOT
BRANCH   1   2
ATOM      2  C   UNL     1       8.448  -2.007  -2.821  1.00  0.00     0.303 C 
ATOM      3  O   UNL     1       9.536  -2.552  -3.134  1.00  0.00    -0.252 OA
BRANCH   2   4
ATOM      4  O   UNL     1       7.289  -2.489  -3.407  1.00  0.00    -0.481 OA
ATOM      5  H   UNL     1       6.556  -1.830  -3.683  1.00  0.00     0.296 HD
ENDBRANCH   2   4
ENDBRANCH   1   2
BRANCH   1   6
ATOM      6  C   UNL     1       7.057  -0.229  -1.961  1.00  0.00     0.047 C 
BRANCH   6   7
ATOM      7  C   UNL     1       6.436   0.062  -0.671  1.00  0.00    -0.047 A 
ATOM      8  C   UNL     1       6.490  -0.851   0.357  1.00  0.00     0.004 A 
ATOM      9  C   UNL     1       5.793   1.265  -0.491  1.00  0.00     0.004 A 
ATOM     10  C   UNL     1       5.875  -0.506   1.563  1.00  0.00     0.000 A 
ATOM     11  C   UNL     1       5.185   1.604   0.702  1.00  0.00     0.000 A 
ATOM     12  C   UNL     1       5.234   0.695   1.737  1.00  0.00     0.000 A 
ENDBRANCH   6   7
ENDBRANCH   1   6
TORSDOF 4
ENDMDL
MODEL 3
REMARK VINA RESULT:      -6.6      3.334      5.001
REMARK SMILES O=C(O)CCc1ccccc1
REMARK SMILES IDX 4 1 2 2 1 3 3 4 5 6 6 7 7 8 11 9 8 10 10 11 9 12
REMARK H PARENT 3 5
REMARK Flexibility Score: inf
ROOT
ATOM      1  C   UNL     1       5.044   1.695   0.679  1.00  0.00     0.127 C 
ENDROOT
BRANCH   1   2
ATOM      2  C   UNL     1       4.598   1.023   1.922  1.00  0.00     0.303 C 
ATOM      3  O   UNL     1       5.320   0.171   2.496  1.00  0.00    -0.252 OA
BRANCH   2   4
ATOM      4  O   UNL     1       3.367   1.318   2.487  1.00  0.00    -0.481 OA
ATOM      5  H   UNL     1       3.326   1.926   3.309  1.00  0.00     0.296 HD
ENDBRANCH   2   4
ENDBRANCH   1   2
BRANCH   1   6
ATOM      6  C   UNL     1       6.540   1.771   0.695  1.00  0.00     0.047 C 
BRANCH   6   7
ATOM      7  C   UNL     1       7.185   1.012  -0.376  1.00  0.00    -0.047 A 
ATOM      8  C   UNL     1       8.515   1.202  -0.669  1.00  0.00     0.004 A 
ATOM      9  C   UNL     1       6.445   0.100  -1.092  1.00  0.00     0.004 A 
ATOM     10  C   UNL     1       9.066   0.443  -1.704  1.00  0.00     0.000 A 
ATOM     11  C   UNL     1       6.991  -0.650  -2.115  1.00  0.00     0.000 A 
ATOM     12  C   UNL     1       8.323  -0.466  -2.415  1.00  0.00     0.000 A 
ENDBRANCH   6   7
ENDBRANCH   1   6
TORSDOF 4
ENDMDL
MODEL 4
REMARK VINA RESULT:      -6.5      2.048      2.746
REMARK SMILES O=C(O)CCc1ccccc1
REMARK SMILES IDX 4 1 2 2 1 3 3 4 5 6 6 7 7 8 11 9 8 10 10 11 9 12
REMARK H PARENT 3 5
REMARK Flexibility Score: inf
ROOT
ATOM      1  C   UNL     1       8.518   0.580  -1.776  1.00  0.00     0.127 C 
ENDROOT
BRANCH   1   2
ATOM      2  C   UNL     1       9.639   0.277  -0.854  1.00  0.00     0.303 C 
ATOM      3  O   UNL     1       9.488  -0.502   0.119  1.00  0.00    -0.252 OA
BRANCH   2   4
ATOM      4  O   UNL     1      10.887   0.848  -1.043  1.00  0.00    -0.481 OA
ATOM      5  H   UNL     1      11.723   0.329  -0.761  1.00  0.00     0.296 HD
ENDBRANCH   2   4
ENDBRANCH   1   2
BRANCH   1   6
ATOM      6  C   UNL     1       7.353  -0.284  -1.399  1.00  0.00     0.047 C 
BRANCH   6   7
ATOM      7  C   UNL     1       6.460   0.320  -0.411  1.00  0.00    -0.047 A 
ATOM      8  C   UNL     1       6.230  -0.296   0.797  1.00  0.00     0.004 A 
ATOM      9  C   UNL     1       5.850   1.518  -0.701  1.00  0.00     0.004 A 
ATOM     10  C   UNL     1       5.367   0.338   1.693  1.00  0.00     0.000 A 
ATOM     11  C   UNL     1       4.997   2.143   0.186  1.00  0.00     0.000 A 
ATOM     12  C   UNL     1       4.760   1.533   1.399  1.00  0.00     0.000 A 
ENDBRANCH   6   7
ENDBRANCH   1   6
TORSDOF 4
ENDMDL
MODEL 5
REMARK VINA RESULT:      -6.5      1.880      2.848
REMARK SMILES O=C(O)CCc1ccccc1
REMARK SMILES IDX 4 1 2 2 1 3 3 4 5 6 6 7 7 8 11 9 8 10 10 11 9 12
REMARK H PARENT 3 5
REMARK Flexibility Score: inf
ROOT
ATOM      1  C   UNL     1       8.182  -1.648   1.176  1.00  0.00     0.127 C 
ENDROOT
BRANCH   1   2
ATOM      2  C   UNL     1       8.505  -2.839   0.357  1.00  0.00     0.303 C 
ATOM      3  O   UNL     1       9.172  -3.793   0.829  1.00  0.00    -0.252 OA
BRANCH   2   4
ATOM      4  O   UNL     1       8.079  -2.933  -0.959  1.00  0.00    -0.481 OA
ATOM      5  H   UNL     1       8.645  -3.457  -1.632  1.00  0.00     0.296 HD
ENDBRANCH   2   4
ENDBRANCH   1   2
BRANCH   1   6
ATOM      6  C   UNL     1       6.691  -1.537   1.277  1.00  0.00     0.047 C 
BRANCH   6   7
ATOM      7  C   UNL     1       6.156  -0.263   0.800  1.00  0.00    -0.047 A 
ATOM      8  C   UNL     1       5.410   0.542   1.629  1.00  0.00     0.004 A 
ATOM      9  C   UNL     1       6.409   0.129  -0.495  1.00  0.00     0.004 A 
ATOM     10  C   UNL     1       4.932   1.746   1.106  1.00  0.00     0.000 A 
ATOM     11  C   UNL     1       5.936   1.319  -1.010  1.00  0.00     0.000 A 
ATOM     12  C   UNL     1       5.187   2.131  -0.186  1.00  0.00     0.000 A 
ENDBRANCH   6   7
ENDBRANCH   1   6
TORSDOF 4
ENDMDL
