@<TRIPOS>MOLECULE
/home/cewinharhar/GITHUB/reincatalyze/data/processed/docking_pred/2023_Apr_20-15:07/ab955c776f37f5544fae82246801d9a2769dfb79_ligand_2.pdbqt
 12 12 0 0 0
SMALL
GASTEIGER

@<TRIPOS>ATOM
      1  C          8.1820   -1.6480    1.1760 C.3     1  UNL1        0.1270
      2  C          8.5050   -2.8390    0.3570 C.2     1  UNL1        0.3030
      3  O          9.1720   -3.7930    0.8290 O.2     1  UNL1       -0.2520
      4  O          8.0790   -2.9330   -0.9590 O.3     1  UNL1       -0.4810
      5  H          8.6450   -3.4570   -1.6320 H       1  UNL1        0.2960
      6  C          6.6910   -1.5370    1.2770 C.3     1  UNL1        0.0470
      7  C          6.1560   -0.2630    0.8000 C.2     1  UNL1       -0.0470
      8  C          5.4100    0.5420    1.6290 C.2     1  UNL1        0.0040
      9  C          6.4090    0.1290   -0.4950 C.2     1  UNL1        0.0040
     10  C          4.9320    1.7460    1.1060 C.2     1  UNL1        0.0000
     11  C          5.9360    1.3190   -1.0100 C.2     1  UNL1        0.0000
     12  C          5.1870    2.1310   -0.1860 C.2     1  UNL1        0.0000
@<TRIPOS>BOND
     1     5     4    1
     2    11     9    1
     3    11    12    2
     4     4     2    1
     5     9     7    2
     6    12    10    1
     7     2     3    2
     8     2     1    1
     9     7     6    1
    10     7     8    1
    11    10     8    2
    12     1     6    1
