@<TRIPOS>MOLECULE
/home/cewinharhar/GITHUB/reincatalyze/data/processed/docking_pred/2023_Apr_20-15:07/ab955c776f37f5544fae82246801d9a2769dfb79_ligand_2.pdbqt
 12 12 0 0 0
SMALL
GASTEIGER

@<TRIPOS>ATOM
      1  C          8.4160   -0.5740   -2.1970 C.3     1  UNL1        0.1270
      2  C          8.4570   -1.8770   -2.9010 C.2     1  UNL1        0.3030
      3  O          9.5380   -2.4960   -3.0640 O.2     1  UNL1       -0.2520
      4  O          7.2990   -2.4490   -3.4030 O.3     1  UNL1       -0.4810
      5  H          7.2730   -2.7530   -4.3800 H       1  UNL1        0.2960
      6  C          6.9940   -0.1040   -2.1570 C.3     1  UNL1        0.0470
      7  C          6.4650    0.0760   -0.8060 C.2     1  UNL1       -0.0470
      8  C          5.8440    1.2490   -0.4450 C.2     1  UNL1        0.0040
      9  C          6.5930   -0.9450    0.1070 C.2     1  UNL1        0.0040
     10  C          5.3620    1.3510    0.8620 C.2     1  UNL1        0.0000
     11  C          6.1160   -0.8420    1.3980 C.2     1  UNL1        0.0000
     12  C          5.4930    0.3300    1.7690 C.2     1  UNL1        0.0000
@<TRIPOS>BOND
     1     5     4    1
     2     4     2    1
     3     3     2    2
     4     2     1    1
     5     1     6    1
     6     6     7    1
     7     7     8    2
     8     7     9    1
     9     8    10    1
    10     9    11    2
    11    10    12    2
    12    11    12    1
