@<TRIPOS>MOLECULE
/home/cewinharhar/GITHUB/reincatalyze/data/processed/docking_pred/2023_Apr_20-15:07/ab955c776f37f5544fae82246801d9a2769dfb79_ligand_2.pdbqt
 12 12 0 0 0
SMALL
GASTEIGER

@<TRIPOS>ATOM
      1  C          5.0440    1.6950    0.6790 C.3     1  UNL1        0.1270
      2  C          4.5980    1.0230    1.9220 C.2     1  UNL1        0.3030
      3  O          5.3200    0.1710    2.4960 O.2     1  UNL1       -0.2520
      4  O          3.3670    1.3180    2.4870 O.3     1  UNL1       -0.4810
      5  H          3.3260    1.9260    3.3090 H       1  UNL1        0.2960
      6  C          6.5400    1.7710    0.6950 C.3     1  UNL1        0.0470
      7  C          7.1850    1.0120   -0.3760 C.2     1  UNL1       -0.0470
      8  C          8.5150    1.2020   -0.6690 C.2     1  UNL1        0.0040
      9  C          6.4450    0.1000   -1.0920 C.2     1  UNL1        0.0040
     10  C          9.0660    0.4430   -1.7040 C.2     1  UNL1        0.0000
     11  C          6.9910   -0.6500   -2.1150 C.2     1  UNL1        0.0000
     12  C          8.3230   -0.4660   -2.4150 C.2     1  UNL1        0.0000
@<TRIPOS>BOND
     1    12    11    2
     2    12    10    1
     3    11     9    1
     4    10     8    2
     5     9     7    2
     6     8     7    1
     7     7     6    1
     8     1     6    1
     9     1     2    1
    10     2     4    1
    11     2     3    2
    12     4     5    1
