@<TRIPOS>MOLECULE
/home/cewinharhar/GITHUB/reincatalyze/data/processed/docking_pred/2023_Apr_20-15:07/ab955c776f37f5544fae82246801d9a2769dfb79_ligand_2.pdbqt
 12 12 0 0 0
SMALL
GASTEIGER

@<TRIPOS>ATOM
      1  C          8.5180    0.5800   -1.7760 C.3     1  UNL1        0.1270
      2  C          9.6390    0.2770   -0.8540 C.2     1  UNL1        0.3030
      3  O          9.4880   -0.5020    0.1190 O.2     1  UNL1       -0.2520
      4  O         10.8870    0.8480   -1.0430 O.3     1  UNL1       -0.4810
      5  H         11.7230    0.3290   -0.7610 H       1  UNL1        0.2960
      6  C          7.3530   -0.2840   -1.3990 C.3     1  UNL1        0.0470
      7  C          6.4600    0.3200   -0.4110 C.2     1  UNL1       -0.0470
      8  C          6.2300   -0.2960    0.7970 C.2     1  UNL1        0.0040
      9  C          5.8500    1.5180   -0.7010 C.2     1  UNL1        0.0040
     10  C          5.3670    0.3380    1.6930 C.2     1  UNL1        0.0000
     11  C          4.9970    2.1430    0.1860 C.2     1  UNL1        0.0000
     12  C          4.7600    1.5330    1.3990 C.2     1  UNL1        0.0000
@<TRIPOS>BOND
     1     1     6    1
     2     1     2    1
     3     6     7    1
     4     4     2    1
     5     4     5    1
     6     2     3    2
     7     9     7    2
     8     9    11    1
     9     7     8    1
    10    11    12    2
    11     8    10    2
    12    12    10    1
