@<TRIPOS>MOLECULE
/home/cewinharhar/GITHUB/reincatalyze/data/processed/docking_pred/2023_Apr_20-15:07/ae45d061dddc84380b8ad6f9293329cc64ca5b9d_ligand_2.pdbqt
 12 12 0 0 0
SMALL
GASTEIGER

@<TRIPOS>ATOM
      1  C          8.4110    0.5770   -1.7800 C.3     1  UNL1        0.1270
      2  C          9.5630    0.2700   -0.8990 C.2     1  UNL1        0.3030
      3  O          9.4500   -0.5240    0.0670 O.2     1  UNL1       -0.2520
      4  O         10.8000    0.8540   -1.1200 O.3     1  UNL1       -0.4810
      5  H         11.6120    0.5210   -0.5920 H       1  UNL1        0.2960
      6  C          7.2590   -0.2870   -1.3670 C.3     1  UNL1        0.0470
      7  C          6.3830    0.3250   -0.3690 C.2     1  UNL1       -0.0470
      8  C          5.7740    1.5340   -0.6150 C.2     1  UNL1        0.0040
      9  C          6.1700   -0.3230    0.8250 C.2     1  UNL1        0.0040
     10  C          4.9500    2.0590    0.3830 C.2     1  UNL1        0.0000
     11  C          5.3550    0.1980    1.8110 C.2     1  UNL1        0.0000
     12  C          4.7420    1.4080    1.5730 C.2     1  UNL1        0.0000
@<TRIPOS>BOND
     1     1     6    1
     2     1     2    1
     3     6     7    1
     4     4     2    1
     5     4     5    1
     6     2     3    2
     7     8     7    2
     8     8    10    1
     9     7     9    1
    10    10    12    2
    11     9    11    2
    12    12    11    1
