@<TRIPOS>MOLECULE
/home/cewinharhar/GITHUB/reincatalyze/data/processed/docking_pred/2023_Apr_20-15:07/ae45d061dddc84380b8ad6f9293329cc64ca5b9d_ligand_2.pdbqt
 12 12 0 0 0
SMALL
GASTEIGER

@<TRIPOS>ATOM
      1  C          8.4230   -0.5420   -2.2470 C.3     1  UNL1        0.1270
      2  C          8.4780   -1.8610   -2.9210 C.2     1  UNL1        0.3030
      3  O          9.5680   -2.4640   -3.0830 O.2     1  UNL1       -0.2520
      4  O          7.3250   -2.4660   -3.3930 O.3     1  UNL1       -0.4810
      5  H          6.6250   -1.9000   -3.8800 H       1  UNL1        0.2960
      6  C          6.9900   -0.1080   -2.1810 C.3     1  UNL1        0.0470
      7  C          6.4780    0.0450   -0.8200 C.2     1  UNL1       -0.0470
      8  C          6.6070   -0.9710    0.0980 C.2     1  UNL1        0.0040
      9  C          5.8640    1.2230   -0.4630 C.2     1  UNL1        0.0040
     10  C          6.0960   -0.7550    1.3800 C.2     1  UNL1        0.0000
     11  C          5.3580    1.4350    0.8050 C.2     1  UNL1        0.0000
     12  C          5.4830    0.4220    1.7310 C.2     1  UNL1        0.0000
@<TRIPOS>BOND
     1     5     4    1
     2     4     2    1
     3     3     2    2
     4     2     1    1
     5     1     6    1
     6     6     7    1
     7     7     9    2
     8     7     8    1
     9     9    11    1
    10     8    10    2
    11    11    12    2
    12    10    12    1
