@<TRIPOS>MOLECULE
/home/cewinharhar/GITHUB/reincatalyze/data/processed/docking_pred/2023_Apr_20-15:07/ae45d061dddc84380b8ad6f9293329cc64ca5b9d_ligand_2.pdbqt
 12 12 0 0 0
SMALL
GASTEIGER

@<TRIPOS>ATOM
      1  C          4.9930    1.8390    0.7330 C.3     1  UNL1        0.1270
      2  C          4.4780    1.1250    1.9250 C.2     1  UNL1        0.3030
      3  O          5.1410    0.2100    2.4730 O.2     1  UNL1       -0.2520
      4  O          3.2450    1.4490    2.4700 O.3     1  UNL1       -0.4810
      5  H          2.4800    0.7710    2.4160 H       1  UNL1        0.2960
      6  C          6.4900    1.8060    0.7750 C.3     1  UNL1        0.0470
      7  C          7.1000    1.0730   -0.3320 C.2     1  UNL1       -0.0470
      8  C          6.3470    0.2350   -1.1210 C.2     1  UNL1        0.0040
      9  C          8.4440    1.2300   -0.5810 C.2     1  UNL1        0.0040
     10  C          6.9960   -0.4330   -2.1620 C.2     1  UNL1        0.0000
     11  C          9.0840    0.5680   -1.6110 C.2     1  UNL1        0.0000
     12  C          8.3360   -0.2740   -2.4050 C.2     1  UNL1        0.0000
@<TRIPOS>BOND
     1    12    10    2
     2    12    11    1
     3    10     8    1
     4    11     9    2
     5     8     7    2
     6     9     7    1
     7     7     6    1
     8     1     6    1
     9     1     2    1
    10     2     4    1
    11     2     3    2
    12     5     4    1
