@<TRIPOS>MOLECULE
/home/cewinharhar/GITHUB/reincatalyze/data/processed/docking_pred/2023_Apr_20-15:07/ae45d061dddc84380b8ad6f9293329cc64ca5b9d_ligand_2.pdbqt
 12 12 0 0 0
SMALL
GASTEIGER

@<TRIPOS>ATOM
      1  C          7.2490   -1.2710   -2.1130 C.3     1  UNL1        0.1270
      2  C          8.6900   -1.3020   -2.4590 C.2     1  UNL1        0.3030
      3  O          9.1690   -2.2200   -3.1710 O.2     1  UNL1       -0.2520
      4  O          9.5510   -0.3170   -2.0040 O.3     1  UNL1       -0.4810
      5  H          9.2160    0.6480   -1.9350 H       1  UNL1        0.2960
      6  C          7.1220   -1.3240   -0.6210 C.3     1  UNL1        0.0470
      7  C          6.3550   -0.2180   -0.0500 C.2     1  UNL1       -0.0470
      8  C          5.9050   -0.2710    1.2480 C.2     1  UNL1        0.0040
      9  C          6.0880    0.8850   -0.8280 C.2     1  UNL1        0.0040
     10  C          5.1800    0.8220    1.7280 C.2     1  UNL1        0.0000
     11  C          5.3710    1.9650   -0.3520 C.2     1  UNL1        0.0000
     12  C          4.9160    1.9200    0.9480 C.2     1  UNL1        0.0000
@<TRIPOS>BOND
     1     3     2    2
     2     2     1    1
     3     2     4    1
     4     1     6    1
     5     4     5    1
     6     9    11    1
     7     9     7    2
     8     6     7    1
     9    11    12    2
    10     7     8    1
    11    12    10    1
    12     8    10    2
