@<TRIPOS>MOLECULE
/home/cewinharhar/GITHUB/reincatalyze/data/processed/docking_pred/2023_Apr_20-15:07/ae45d061dddc84380b8ad6f9293329cc64ca5b9d_ligand_2.pdbqt
 12 12 0 0 0
SMALL
GASTEIGER

@<TRIPOS>ATOM
      1  C          8.4130   -0.5990   -2.1800 C.3     1  UNL1        0.1270
      2  C          8.4660   -1.8870   -2.9120 C.2     1  UNL1        0.3030
      3  O          9.5530   -2.4880   -3.0940 O.2     1  UNL1       -0.2520
      4  O          7.3120   -2.4630   -3.4180 O.3     1  UNL1       -0.4810
      5  H          6.4550   -1.9060   -3.4710 H       1  UNL1        0.2960
      6  C          6.9880   -0.1370   -2.1420 C.3     1  UNL1        0.0470
      7  C          6.4600    0.0490   -0.7910 C.2     1  UNL1       -0.0470
      8  C          5.8260    1.2180   -0.4390 C.2     1  UNL1        0.0040
      9  C          6.6010   -0.9620    0.1300 C.2     1  UNL1        0.0040
     10  C          5.3450    1.3270    0.8680 C.2     1  UNL1        0.0000
     11  C          6.1250   -0.8530    1.4220 C.2     1  UNL1        0.0000
     12  C          5.4890    0.3150    1.7830 C.2     1  UNL1        0.0000
@<TRIPOS>BOND
     1     5     4    1
     2     4     2    1
     3     3     2    2
     4     2     1    1
     5     1     6    1
     6     6     7    1
     7     7     8    2
     8     7     9    1
     9     8    10    1
    10     9    11    2
    11    10    12    2
    12    11    12    1
