MODEL 1
REMARK VINA RESULT:      -7.3      0.000      0.000
REMARK SMILES O=C(O)CCc1ccccc1
REMARK SMILES IDX 4 1 2 2 1 3 3 4 5 6 6 7 7 8 11 9 8 10 10 11 9 12
REMARK H PARENT 3 5
REMARK Flexibility Score: inf
ROOT
ATOM      1  C   UNL     1       8.413  -0.599  -2.180  1.00  0.00     0.127 C 
ENDROOT
BRANCH   1   2
ATOM      2  C   UNL     1       8.466  -1.887  -2.912  1.00  0.00     0.303 C 
ATOM      3  O   UNL     1       9.553  -2.488  -3.094  1.00  0.00    -0.252 OA
BRANCH   2   4
ATOM      4  O   UNL     1       7.312  -2.463  -3.418  1.00  0.00    -0.481 OA
ATOM      5  H   UNL     1       6.455  -1.906  -3.471  1.00  0.00     0.296 HD
ENDBRANCH   2   4
ENDBRANCH   1   2
BRANCH   1   6
ATOM      6  C   UNL     1       6.988  -0.137  -2.142  1.00  0.00     0.047 C 
BRANCH   6   7
ATOM      7  C   UNL     1       6.460   0.049  -0.791  1.00  0.00    -0.047 A 
ATOM      8  C   UNL     1       5.826   1.218  -0.439  1.00  0.00     0.004 A 
ATOM      9  C   UNL     1       6.601  -0.962   0.130  1.00  0.00     0.004 A 
ATOM     10  C   UNL     1       5.345   1.327   0.868  1.00  0.00     0.000 A 
ATOM     11  C   UNL     1       6.125  -0.853   1.422  1.00  0.00     0.000 A 
ATOM     12  C   UNL     1       5.489   0.315   1.783  1.00  0.00     0.000 A 
ENDBRANCH   6   7
ENDBRANCH   1   6
TORSDOF 4
ENDMDL
MODEL 2
REMARK VINA RESULT:      -7.3      0.074      1.438
REMARK SMILES O=C(O)CCc1ccccc1
REMARK SMILES IDX 4 1 2 2 1 3 3 4 5 6 6 7 7 8 11 9 8 10 10 11 9 12
REMARK H PARENT 3 5
REMARK Flexibility Score: inf
ROOT
ATOM      1  C   UNL     1       8.423  -0.542  -2.247  1.00  0.00     0.127 C 
ENDROOT
BRANCH   1   2
ATOM      2  C   UNL     1       8.478  -1.861  -2.921  1.00  0.00     0.303 C 
ATOM      3  O   UNL     1       9.568  -2.464  -3.083  1.00  0.00    -0.252 OA
BRANCH   2   4
ATOM      4  O   UNL     1       7.325  -2.466  -3.393  1.00  0.00    -0.481 OA
ATOM      5  H   UNL     1       6.625  -1.900  -3.880  1.00  0.00     0.296 HD
ENDBRANCH   2   4
ENDBRANCH   1   2
BRANCH   1   6
ATOM      6  C   UNL     1       6.990  -0.108  -2.181  1.00  0.00     0.047 C 
BRANCH   6   7
ATOM      7  C   UNL     1       6.478   0.045  -0.820  1.00  0.00    -0.047 A 
ATOM      8  C   UNL     1       6.607  -0.971   0.098  1.00  0.00     0.004 A 
ATOM      9  C   UNL     1       5.864   1.223  -0.463  1.00  0.00     0.004 A 
ATOM     10  C   UNL     1       6.096  -0.755   1.380  1.00  0.00     0.000 A 
ATOM     11  C   UNL     1       5.358   1.435   0.805  1.00  0.00     0.000 A 
ATOM     12  C   UNL     1       5.483   0.422   1.731  1.00  0.00     0.000 A 
ENDBRANCH   6   7
ENDBRANCH   1   6
TORSDOF 4
ENDMDL
MODEL 3
REMARK VINA RESULT:      -6.9      1.049      2.013
REMARK SMILES O=C(O)CCc1ccccc1
REMARK SMILES IDX 4 1 2 2 1 3 3 4 5 6 6 7 7 8 11 9 8 10 10 11 9 12
REMARK H PARENT 3 5
REMARK Flexibility Score: inf
ROOT
ATOM      1  C   UNL     1       7.249  -1.271  -2.113  1.00  0.00     0.127 C 
ENDROOT
BRANCH   1   2
ATOM      2  C   UNL     1       8.690  -1.302  -2.459  1.00  0.00     0.303 C 
ATOM      3  O   UNL     1       9.169  -2.220  -3.171  1.00  0.00    -0.252 OA
BRANCH   2   4
ATOM      4  O   UNL     1       9.551  -0.317  -2.004  1.00  0.00    -0.481 OA
ATOM      5  H   UNL     1       9.216   0.648  -1.935  1.00  0.00     0.296 HD
ENDBRANCH   2   4
ENDBRANCH   1   2
BRANCH   1   6
ATOM      6  C   UNL     1       7.122  -1.324  -0.621  1.00  0.00     0.047 C 
BRANCH   6   7
ATOM      7  C   UNL     1       6.355  -0.218  -0.050  1.00  0.00    -0.047 A 
ATOM      8  C   UNL     1       5.905  -0.271   1.248  1.00  0.00     0.004 A 
ATOM      9  C   UNL     1       6.088   0.885  -0.828  1.00  0.00     0.004 A 
ATOM     10  C   UNL     1       5.180   0.822   1.728  1.00  0.00     0.000 A 
ATOM     11  C   UNL     1       5.371   1.965  -0.352  1.00  0.00     0.000 A 
ATOM     12  C   UNL     1       4.916   1.920   0.948  1.00  0.00     0.000 A 
ENDBRANCH   6   7
ENDBRANCH   1   6
TORSDOF 4
ENDMDL
MODEL 4
REMARK VINA RESULT:      -6.8      3.388      5.084
REMARK SMILES O=C(O)CCc1ccccc1
REMARK SMILES IDX 4 1 2 2 1 3 3 4 5 6 6 7 7 8 11 9 8 10 10 11 9 12
REMARK H PARENT 3 5
REMARK Flexibility Score: inf
ROOT
ATOM      1  C   UNL     1       4.993   1.839   0.733  1.00  0.00     0.127 C 
ENDROOT
BRANCH   1   2
ATOM      2  C   UNL     1       4.478   1.125   1.925  1.00  0.00     0.303 C 
ATOM      3  O   UNL     1       5.141   0.210   2.473  1.00  0.00    -0.252 OA
BRANCH   2   4
ATOM      4  O   UNL     1       3.245   1.449   2.470  1.00  0.00    -0.481 OA
ATOM      5  H   UNL     1       2.480   0.771   2.416  1.00  0.00     0.296 HD
ENDBRANCH   2   4
ENDBRANCH   1   2
BRANCH   1   6
ATOM      6  C   UNL     1       6.490   1.806   0.775  1.00  0.00     0.047 C 
BRANCH   6   7
ATOM      7  C   UNL     1       7.100   1.073  -0.332  1.00  0.00    -0.047 A 
ATOM      8  C   UNL     1       6.347   0.235  -1.121  1.00  0.00     0.004 A 
ATOM      9  C   UNL     1       8.444   1.230  -0.581  1.00  0.00     0.004 A 
ATOM     10  C   UNL     1       6.996  -0.433  -2.162  1.00  0.00     0.000 A 
ATOM     11  C   UNL     1       9.084   0.568  -1.611  1.00  0.00     0.000 A 
ATOM     12  C   UNL     1       8.336  -0.274  -2.405  1.00  0.00     0.000 A 
ENDBRANCH   6   7
ENDBRANCH   1   6
TORSDOF 4
ENDMDL
MODEL 5
REMARK VINA RESULT:      -6.6      2.044      2.345
REMARK SMILES O=C(O)CCc1ccccc1
REMARK SMILES IDX 4 1 2 2 1 3 3 4 5 6 6 7 7 8 11 9 8 10 10 11 9 12
REMARK H PARENT 3 5
REMARK Flexibility Score: inf
ROOT
ATOM      1  C   UNL     1       8.411   0.577  -1.780  1.00  0.00     0.127 C 
ENDROOT
BRANCH   1   2
ATOM      2  C   UNL     1       9.563   0.270  -0.899  1.00  0.00     0.303 C 
ATOM      3  O   UNL     1       9.450  -0.524   0.067  1.00  0.00    -0.252 OA
BRANCH   2   4
ATOM      4  O   UNL     1      10.800   0.854  -1.120  1.00  0.00    -0.481 OA
ATOM      5  H   UNL     1      11.612   0.521  -0.592  1.00  0.00     0.296 HD
ENDBRANCH   2   4
ENDBRANCH   1   2
BRANCH   1   6
ATOM      6  C   UNL     1       7.259  -0.287  -1.367  1.00  0.00     0.047 C 
BRANCH   6   7
ATOM      7  C   UNL     1       6.383   0.325  -0.369  1.00  0.00    -0.047 A 
ATOM      8  C   UNL     1       5.774   1.534  -0.615  1.00  0.00     0.004 A 
ATOM      9  C   UNL     1       6.170  -0.323   0.825  1.00  0.00     0.004 A 
ATOM     10  C   UNL     1       4.950   2.059   0.383  1.00  0.00     0.000 A 
ATOM     11  C   UNL     1       5.355   0.198   1.811  1.00  0.00     0.000 A 
ATOM     12  C   UNL     1       4.742   1.408   1.573  1.00  0.00     0.000 A 
ENDBRANCH   6   7
ENDBRANCH   1   6
TORSDOF 4
ENDMDL
