@<TRIPOS>MOLECULE
/home/cewinharhar/GITHUB/reincatalyze/data/processed/docking_pred/2023_Apr_20-15:07/ae62664a3c9eef67376bdc077c2faa7ac5a69a78_ligand_2.pdbqt
 12 12 0 0 0
SMALL
GASTEIGER

@<TRIPOS>ATOM
      1  C          8.4930    0.6670   -1.7080 C.3     1  UNL1        0.1270
      2  C          9.6390    0.2850   -0.8490 C.2     1  UNL1        0.3030
      3  O          9.4930   -0.5060    0.1150 O.2     1  UNL1       -0.2520
      4  O         10.9060    0.7930   -1.0880 O.3     1  UNL1       -0.4810
      5  H         11.0450    1.8070   -1.0960 H       1  UNL1        0.2960
      6  C          7.3360   -0.2240   -1.3730 C.3     1  UNL1        0.0470
      7  C          6.4410    0.3230   -0.3540 C.2     1  UNL1       -0.0470
      8  C          6.2150   -0.3560    0.8200 C.2     1  UNL1        0.0040
      9  C          5.8240    1.5320   -0.5810 C.2     1  UNL1        0.0040
     10  C          5.3490    0.2260    1.7490 C.2     1  UNL1        0.0000
     11  C          4.9680    2.1050    0.3370 C.2     1  UNL1        0.0000
     12  C          4.7350    1.4320    1.5170 C.2     1  UNL1        0.0000
@<TRIPOS>BOND
     1     1     6    1
     2     1     2    1
     3     6     7    1
     4     5     4    1
     5     4     2    1
     6     2     3    2
     7     9     7    2
     8     9    11    1
     9     7     8    1
    10    11    12    2
    11     8    10    2
    12    12    10    1
