@<TRIPOS>MOLECULE
/home/cewinharhar/GITHUB/reincatalyze/data/processed/docking_pred/2023_Apr_20-15:07/ae62664a3c9eef67376bdc077c2faa7ac5a69a78_ligand_2.pdbqt
 12 12 0 0 0
SMALL
GASTEIGER

@<TRIPOS>ATOM
      1  C          8.4100   -0.7170   -1.9990 C.3     1  UNL1        0.1270
      2  C          8.3760   -1.9210   -2.8620 C.2     1  UNL1        0.3030
      3  O          7.2870   -2.4120   -3.2510 O.2     1  UNL1       -0.2520
      4  O          9.5480   -2.5400   -3.2640 O.3     1  UNL1       -0.4810
      5  H         10.1730   -2.0550   -3.9150 H       1  UNL1        0.2960
      6  C          7.0590   -0.0710   -2.0370 C.3     1  UNL1        0.0470
      7  C          6.4590    0.1310   -0.7190 C.2     1  UNL1       -0.0470
      8  C          5.7980    1.2990   -0.4190 C.2     1  UNL1        0.0040
      9  C          6.5590   -0.8660    0.2240 C.2     1  UNL1        0.0040
     10  C          5.2490    1.4230    0.8590 C.2     1  UNL1        0.0000
     11  C          6.0160   -0.7410    1.4870 C.2     1  UNL1        0.0000
     12  C          5.3530    0.4270    1.7960 C.2     1  UNL1        0.0000
@<TRIPOS>BOND
     1     5     4    1
     2     4     2    1
     3     3     2    2
     4     2     1    1
     5     6     1    1
     6     6     7    1
     7     7     8    2
     8     7     9    1
     9     8    10    1
    10     9    11    2
    11    10    12    2
    12    11    12    1
