@<TRIPOS>MOLECULE
/home/cewinharhar/GITHUB/reincatalyze/data/processed/docking_pred/2023_Apr_20-15:07/ae62664a3c9eef67376bdc077c2faa7ac5a69a78_ligand_2.pdbqt
 12 12 0 0 0
SMALL
GASTEIGER

@<TRIPOS>ATOM
      1  C          5.3460    2.9290    0.1010 C.3     1  UNL1        0.1270
      2  C          6.2110    3.8680    0.8530 C.2     1  UNL1        0.3030
      3  O          6.8510    4.7750    0.2660 O.2     1  UNL1       -0.2520
      4  O          6.3370    3.7700    2.2290 O.3     1  UNL1       -0.4810
      5  H          6.6280    4.5920    2.7650 H       1  UNL1        0.2960
      6  C          5.3090    1.6270    0.8410 C.3     1  UNL1        0.0470
      7  C          6.0450    0.5480    0.1830 C.2     1  UNL1       -0.0470
      8  C          6.4820   -0.5430    0.8980 C.2     1  UNL1        0.0040
      9  C          6.2970    0.6330   -1.1670 C.2     1  UNL1        0.0040
     10  C          7.1780   -1.5360    0.2050 C.2     1  UNL1        0.0000
     11  C          6.9850   -0.3500   -1.8500 C.2     1  UNL1        0.0000
     12  C          7.4270   -1.4460   -1.1410 C.2     1  UNL1        0.0000
@<TRIPOS>BOND
     1    11     9    1
     2    11    12    2
     3     9     7    2
     4    12    10    1
     5     1     6    1
     6     1     2    1
     7     7     6    1
     8     7     8    1
     9    10     8    2
    10     3     2    2
    11     2     4    1
    12     4     5    1
