@<TRIPOS>MOLECULE
/home/cewinharhar/GITHUB/reincatalyze/data/processed/docking_pred/2023_Apr_20-15:07/ae62664a3c9eef67376bdc077c2faa7ac5a69a78_ligand_2.pdbqt
 12 12 0 0 0
SMALL
GASTEIGER

@<TRIPOS>ATOM
      1  C          5.0300    1.7800    0.6980 C.3     1  UNL1        0.1270
      2  C          4.5020    1.1070    1.9080 C.2     1  UNL1        0.3030
      3  O          5.1510    0.1990    2.4830 O.2     1  UNL1       -0.2520
      4  O          3.2720    1.4620    2.4380 O.3     1  UNL1       -0.4810
      5  H          2.5810    1.9200    1.8380 H       1  UNL1        0.2960
      6  C          6.5270    1.7610    0.7640 C.3     1  UNL1        0.0470
      7  C          7.1600    1.0230   -0.3270 C.2     1  UNL1       -0.0470
      8  C          8.4790    1.2420   -0.6520 C.2     1  UNL1        0.0040
      9  C          6.4220    0.0990   -1.0300 C.2     1  UNL1        0.0040
     10  C          9.0190    0.5000   -1.7060 C.2     1  UNL1        0.0000
     11  C          6.9580   -0.6330   -2.0710 C.2     1  UNL1        0.0000
     12  C          8.2780   -0.4190   -2.4040 C.2     1  UNL1        0.0000
@<TRIPOS>BOND
     1    12    11    2
     2    12    10    1
     3    11     9    1
     4    10     8    2
     5     9     7    2
     6     8     7    1
     7     7     6    1
     8     1     6    1
     9     1     2    1
    10     5     4    1
    11     2     4    1
    12     2     3    2
