@<TRIPOS>MOLECULE
/home/cewinharhar/GITHUB/reincatalyze/data/processed/docking_pred/2023_Apr_20-15:07/ae62664a3c9eef67376bdc077c2faa7ac5a69a78_ligand_2.pdbqt
 12 12 0 0 0
SMALL
GASTEIGER

@<TRIPOS>ATOM
      1  C          8.4890   -0.6260   -2.1350 C.3     1  UNL1        0.1270
      2  C          8.5040   -1.8950   -2.9010 C.2     1  UNL1        0.3030
      3  O          9.5750   -2.5140   -3.1150 O.2     1  UNL1       -0.2520
      4  O          7.3300   -2.4330   -3.4050 O.3     1  UNL1       -0.4810
      5  H          6.7520   -3.0250   -2.8020 H       1  UNL1        0.2960
      6  C          7.0890   -0.0940   -2.1330 C.3     1  UNL1        0.0470
      7  C          6.5160    0.0690   -0.7970 C.2     1  UNL1       -0.0470
      8  C          6.6440   -0.9220    0.1480 C.2     1  UNL1        0.0040
      9  C          5.8460    1.2300   -0.4910 C.2     1  UNL1        0.0040
     10  C          6.0740   -0.6990    1.4030 C.2     1  UNL1        0.0000
     11  C          5.2820    1.4490    0.7500 C.2     1  UNL1        0.0000
     12  C          5.4050    0.4610    1.7030 C.2     1  UNL1        0.0000
@<TRIPOS>BOND
     1     4     2    1
     2     4     5    1
     3     3     2    2
     4     2     1    1
     5     1     6    1
     6     6     7    1
     7     7     9    2
     8     7     8    1
     9     9    11    1
    10     8    10    2
    11    11    12    2
    12    10    12    1
