@<TRIPOS>MOLECULE
/home/cewinharhar/GITHUB/reincatalyze/data/processed/docking_pred/2023_Apr_20-15:07/af895cae38f50b8ad608cacdd29f7ae1ddca485c_ligand_2.pdbqt
 12 12 0 0 0
SMALL
GASTEIGER

@<TRIPOS>ATOM
      1  C          8.4640   -0.6130   -2.1520 C.3     1  UNL1        0.1270
      2  C          8.4910   -1.8900   -2.9030 C.2     1  UNL1        0.3030
      3  O          9.5680   -2.5030   -3.1070 O.2     1  UNL1       -0.2520
      4  O          7.3230   -2.4450   -3.4020 O.3     1  UNL1       -0.4810
      5  H          7.1810   -3.4560   -3.3360 H       1  UNL1        0.2960
      6  C          7.0530   -0.1110   -2.1270 C.3     1  UNL1        0.0470
      7  C          6.5010    0.0470   -0.7830 C.2     1  UNL1       -0.0470
      8  C          6.6310   -0.9530    0.1530 C.2     1  UNL1        0.0040
      9  C          5.8480    1.2130   -0.4570 C.2     1  UNL1        0.0040
     10  C          6.0800   -0.7340    1.4170 C.2     1  UNL1        0.0000
     11  C          5.3040    1.4290    0.7930 C.2     1  UNL1        0.0000
     12  C          5.4290    0.4310    1.7360 C.2     1  UNL1        0.0000
@<TRIPOS>BOND
     1     4     5    1
     2     4     2    1
     3     3     2    2
     4     2     1    1
     5     1     6    1
     6     6     7    1
     7     7     9    2
     8     7     8    1
     9     9    11    1
    10     8    10    2
    11    11    12    2
    12    10    12    1
