@<TRIPOS>MOLECULE
/home/cewinharhar/GITHUB/reincatalyze/data/processed/docking_pred/2023_Apr_20-15:07/af895cae38f50b8ad608cacdd29f7ae1ddca485c_ligand_2.pdbqt
 12 12 0 0 0
SMALL
GASTEIGER

@<TRIPOS>ATOM
      1  C          8.3960   -0.6190   -2.1110 C.3     1  UNL1        0.1270
      2  C          8.3680   -1.8760   -2.8950 C.2     1  UNL1        0.3030
      3  O          7.2810   -2.3980   -3.2490 O.2     1  UNL1       -0.2520
      4  O          9.5430   -2.5130   -3.2590 O.3     1  UNL1       -0.4810
      5  H         10.2240   -2.0140   -3.8390 H       1  UNL1        0.2960
      6  C          7.0110   -0.0500   -2.0830 C.3     1  UNL1        0.0470
      7  C          6.4560    0.1000   -0.7390 C.2     1  UNL1       -0.0470
      8  C          5.8170    1.2600   -0.3670 C.2     1  UNL1        0.0040
      9  C          6.5780   -0.9370    0.1570 C.2     1  UNL1        0.0040
     10  C          5.3110    1.3330    0.9330 C.2     1  UNL1        0.0000
     11  C          6.0780   -0.8630    1.4420 C.2     1  UNL1        0.0000
     12  C          5.4370    0.2960    1.8220 C.2     1  UNL1        0.0000
@<TRIPOS>BOND
     1     5     4    1
     2     4     2    1
     3     3     2    2
     4     2     1    1
     5     1     6    1
     6     6     7    1
     7     7     8    2
     8     7     9    1
     9     8    10    1
    10     9    11    2
    11    10    12    2
    12    11    12    1
