@<TRIPOS>MOLECULE
/home/cewinharhar/GITHUB/reincatalyze/data/processed/docking_pred/2023_Apr_20-15:07/af895cae38f50b8ad608cacdd29f7ae1ddca485c_ligand_2.pdbqt
 12 12 0 0 0
SMALL
GASTEIGER

@<TRIPOS>ATOM
      1  C          8.2910   -0.8650   -1.9580 C.3     1  UNL1        0.1270
      2  C          8.4290   -2.0140   -2.8830 C.2     1  UNL1        0.3030
      3  O          9.5490   -2.5350   -3.1120 O.2     1  UNL1       -0.2520
      4  O          7.3220   -2.5470   -3.5240 O.3     1  UNL1       -0.4810
      5  H          6.3900   -2.1860   -3.2980 H       1  UNL1        0.2960
      6  C          7.4950   -1.3110   -0.7690 C.3     1  UNL1        0.0470
      7  C          6.6370   -0.2720   -0.2040 C.2     1  UNL1       -0.0470
      8  C          6.2910    0.8340   -0.9460 C.2     1  UNL1        0.0040
      9  C          6.1730   -0.4100    1.0840 C.2     1  UNL1        0.0040
     10  C          5.4660    1.7870   -0.3420 C.2     1  UNL1        0.0000
     11  C          5.3590    0.5330    1.6780 C.2     1  UNL1        0.0000
     12  C          5.0080    1.6440    0.9430 C.2     1  UNL1        0.0000
@<TRIPOS>BOND
     1     4     5    1
     2     4     2    1
     3     3     2    2
     4     2     1    1
     5     1     6    1
     6     8    10    1
     7     8     7    2
     8     6     7    1
     9    10    12    2
    10     7     9    1
    11    12    11    1
    12     9    11    2
