@<TRIPOS>MOLECULE
/home/cewinharhar/GITHUB/reincatalyze/data/processed/docking_pred/2023_Apr_20-15:07/af895cae38f50b8ad608cacdd29f7ae1ddca485c_ligand_2.pdbqt
 12 12 0 0 0
SMALL
GASTEIGER

@<TRIPOS>ATOM
      1  C          8.2290    0.2420   -2.2270 C.3     1  UNL1        0.1270
      2  C          9.3570    0.3410   -1.2700 C.2     1  UNL1        0.3030
      3  O          9.4330   -0.4180   -0.2730 O.2     1  UNL1       -0.2520
      4  O         10.3610    1.2780   -1.4510 O.3     1  UNL1       -0.4810
      5  H         11.3330    0.9630   -1.5250 H       1  UNL1        0.2960
      6  C          7.1150   -0.5110   -1.5650 C.3     1  UNL1        0.0470
      7  C          6.3370    0.2880   -0.6200 C.2     1  UNL1       -0.0470
      8  C          5.8140    1.5040   -0.9910 C.2     1  UNL1        0.0040
      9  C          6.1280   -0.1930    0.6520 C.2     1  UNL1        0.0040
     10  C          5.0790    2.2120   -0.0370 C.2     1  UNL1        0.0000
     11  C          5.4030    0.5090    1.5940 C.2     1  UNL1        0.0000
     12  C          4.8760    1.7290    1.2310 C.2     1  UNL1        0.0000
@<TRIPOS>BOND
     1     1     6    1
     2     1     2    1
     3     6     7    1
     4     5     4    1
     5     4     2    1
     6     2     3    2
     7     8     7    2
     8     8    10    1
     9     7     9    1
    10    10    12    2
    11     9    11    2
    12    12    11    1
