MODEL 1
REMARK VINA RESULT:      -7.4      0.000      0.000
REMARK SMILES O=C(O)CCc1ccccc1
REMARK SMILES IDX 4 1 2 2 1 3 3 4 5 6 6 7 7 8 11 9 8 10 10 11 9 12
REMARK H PARENT 3 5
REMARK Flexibility Score: inf
ROOT
ATOM      1  C   UNL     1       8.464  -0.613  -2.152  1.00  0.00     0.127 C 
ENDROOT
BRANCH   1   2
ATOM      2  C   UNL     1       8.491  -1.890  -2.903  1.00  0.00     0.303 C 
ATOM      3  O   UNL     1       9.568  -2.503  -3.107  1.00  0.00    -0.252 OA
BRANCH   2   4
ATOM      4  O   UNL     1       7.323  -2.445  -3.402  1.00  0.00    -0.481 OA
ATOM      5  H   UNL     1       7.181  -3.456  -3.336  1.00  0.00     0.296 HD
ENDBRANCH   2   4
ENDBRANCH   1   2
BRANCH   1   6
ATOM      6  C   UNL     1       7.053  -0.111  -2.127  1.00  0.00     0.047 C 
BRANCH   6   7
ATOM      7  C   UNL     1       6.501   0.047  -0.783  1.00  0.00    -0.047 A 
ATOM      8  C   UNL     1       6.631  -0.953   0.153  1.00  0.00     0.004 A 
ATOM      9  C   UNL     1       5.848   1.213  -0.457  1.00  0.00     0.004 A 
ATOM     10  C   UNL     1       6.080  -0.734   1.417  1.00  0.00     0.000 A 
ATOM     11  C   UNL     1       5.304   1.429   0.793  1.00  0.00     0.000 A 
ATOM     12  C   UNL     1       5.429   0.431   1.736  1.00  0.00     0.000 A 
ENDBRANCH   6   7
ENDBRANCH   1   6
TORSDOF 4
ENDMDL
MODEL 2
REMARK VINA RESULT:      -7.3      0.125      1.732
REMARK SMILES O=C(O)CCc1ccccc1
REMARK SMILES IDX 4 1 2 2 1 3 3 4 5 6 6 7 7 8 11 9 8 10 10 11 9 12
REMARK H PARENT 3 5
REMARK Flexibility Score: inf
ROOT
ATOM      1  C   UNL     1       8.396  -0.619  -2.111  1.00  0.00     0.127 C 
ENDROOT
BRANCH   1   2
ATOM      2  C   UNL     1       8.368  -1.876  -2.895  1.00  0.00     0.303 C 
ATOM      3  O   UNL     1       7.281  -2.398  -3.249  1.00  0.00    -0.252 OA
BRANCH   2   4
ATOM      4  O   UNL     1       9.543  -2.513  -3.259  1.00  0.00    -0.481 OA
ATOM      5  H   UNL     1      10.224  -2.014  -3.839  1.00  0.00     0.296 HD
ENDBRANCH   2   4
ENDBRANCH   1   2
BRANCH   1   6
ATOM      6  C   UNL     1       7.011  -0.050  -2.083  1.00  0.00     0.047 C 
BRANCH   6   7
ATOM      7  C   UNL     1       6.456   0.100  -0.739  1.00  0.00    -0.047 A 
ATOM      8  C   UNL     1       5.817   1.260  -0.367  1.00  0.00     0.004 A 
ATOM      9  C   UNL     1       6.578  -0.937   0.157  1.00  0.00     0.004 A 
ATOM     10  C   UNL     1       5.311   1.333   0.933  1.00  0.00     0.000 A 
ATOM     11  C   UNL     1       6.078  -0.863   1.442  1.00  0.00     0.000 A 
ATOM     12  C   UNL     1       5.437   0.296   1.822  1.00  0.00     0.000 A 
ENDBRANCH   6   7
ENDBRANCH   1   6
TORSDOF 4
ENDMDL
MODEL 3
REMARK VINA RESULT:      -7.2      0.621      1.579
REMARK SMILES O=C(O)CCc1ccccc1
REMARK SMILES IDX 4 1 2 2 1 3 3 4 5 6 6 7 7 8 11 9 8 10 10 11 9 12
REMARK H PARENT 3 5
REMARK Flexibility Score: inf
ROOT
ATOM      1  C   UNL     1       8.291  -0.865  -1.958  1.00  0.00     0.127 C 
ENDROOT
BRANCH   1   2
ATOM      2  C   UNL     1       8.429  -2.014  -2.883  1.00  0.00     0.303 C 
ATOM      3  O   UNL     1       9.549  -2.535  -3.112  1.00  0.00    -0.252 OA
BRANCH   2   4
ATOM      4  O   UNL     1       7.322  -2.547  -3.524  1.00  0.00    -0.481 OA
ATOM      5  H   UNL     1       6.390  -2.186  -3.298  1.00  0.00     0.296 HD
ENDBRANCH   2   4
ENDBRANCH   1   2
BRANCH   1   6
ATOM      6  C   UNL     1       7.495  -1.311  -0.769  1.00  0.00     0.047 C 
BRANCH   6   7
ATOM      7  C   UNL     1       6.637  -0.272  -0.204  1.00  0.00    -0.047 A 
ATOM      8  C   UNL     1       6.291   0.834  -0.946  1.00  0.00     0.004 A 
ATOM      9  C   UNL     1       6.173  -0.410   1.084  1.00  0.00     0.004 A 
ATOM     10  C   UNL     1       5.466   1.787  -0.342  1.00  0.00     0.000 A 
ATOM     11  C   UNL     1       5.359   0.533   1.678  1.00  0.00     0.000 A 
ATOM     12  C   UNL     1       5.008   1.644   0.943  1.00  0.00     0.000 A 
ENDBRANCH   6   7
ENDBRANCH   1   6
TORSDOF 4
ENDMDL
MODEL 4
REMARK VINA RESULT:      -6.7      3.333      5.037
REMARK SMILES O=C(O)CCc1ccccc1
REMARK SMILES IDX 4 1 2 2 1 3 3 4 5 6 6 7 7 8 11 9 8 10 10 11 9 12
REMARK H PARENT 3 5
REMARK Flexibility Score: inf
ROOT
ATOM      1  C   UNL     1       5.044   1.723   0.652  1.00  0.00     0.127 C 
ENDROOT
BRANCH   1   2
ATOM      2  C   UNL     1       4.599   1.056   1.898  1.00  0.00     0.303 C 
ATOM      3  O   UNL     1       5.324   0.212   2.479  1.00  0.00    -0.252 OA
BRANCH   2   4
ATOM      4  O   UNL     1       3.365   1.347   2.458  1.00  0.00    -0.481 OA
ATOM      5  H   UNL     1       3.281   1.419   3.475  1.00  0.00     0.296 HD
ENDBRANCH   2   4
ENDBRANCH   1   2
BRANCH   1   6
ATOM      6  C   UNL     1       6.540   1.802   0.669  1.00  0.00     0.047 C 
BRANCH   6   7
ATOM      7  C   UNL     1       7.188   1.032  -0.391  1.00  0.00    -0.047 A 
ATOM      8  C   UNL     1       8.527   1.196  -0.662  1.00  0.00     0.004 A 
ATOM      9  C   UNL     1       6.443   0.133  -1.119  1.00  0.00     0.004 A 
ATOM     10  C   UNL     1       9.080   0.426  -1.688  1.00  0.00     0.000 A 
ATOM     11  C   UNL     1       6.992  -0.627  -2.132  1.00  0.00     0.000 A 
ATOM     12  C   UNL     1       8.332  -0.468  -2.411  1.00  0.00     0.000 A 
ENDBRANCH   6   7
ENDBRANCH   1   6
TORSDOF 4
ENDMDL
