@<TRIPOS>MOLECULE
/home/cewinharhar/GITHUB/reincatalyze/data/processed/docking_pred/2023_Apr_20-15:07/af895cae38f50b8ad608cacdd29f7ae1ddca485c_ligand_2.pdbqt
 12 12 0 0 0
SMALL
GASTEIGER

@<TRIPOS>ATOM
      1  C          5.0440    1.7230    0.6520 C.3     1  UNL1        0.1270
      2  C          4.5990    1.0560    1.8980 C.2     1  UNL1        0.3030
      3  O          5.3240    0.2120    2.4790 O.2     1  UNL1       -0.2520
      4  O          3.3650    1.3470    2.4580 O.3     1  UNL1       -0.4810
      5  H          3.2810    1.4190    3.4750 H       1  UNL1        0.2960
      6  C          6.5400    1.8020    0.6690 C.3     1  UNL1        0.0470
      7  C          7.1880    1.0320   -0.3910 C.2     1  UNL1       -0.0470
      8  C          8.5270    1.1960   -0.6620 C.2     1  UNL1        0.0040
      9  C          6.4430    0.1330   -1.1190 C.2     1  UNL1        0.0040
     10  C          9.0800    0.4260   -1.6880 C.2     1  UNL1        0.0000
     11  C          6.9920   -0.6270   -2.1320 C.2     1  UNL1        0.0000
     12  C          8.3320   -0.4680   -2.4110 C.2     1  UNL1        0.0000
@<TRIPOS>BOND
     1    12    11    2
     2    12    10    1
     3    11     9    1
     4    10     8    2
     5     9     7    2
     6     8     7    1
     7     7     6    1
     8     1     6    1
     9     1     2    1
    10     2     4    1
    11     2     3    2
    12     4     5    1
