@<TRIPOS>MOLECULE
/home/cewinharhar/GITHUB/reincatalyze/data/processed/docking_pred/2023_Apr_20-15:07/b0dbf451e4e891e0fb60bf6ca530f921e690d9da_ligand_2.pdbqt
 12 12 0 0 0
SMALL
GASTEIGER

@<TRIPOS>ATOM
      1  C          8.4110   -0.5720   -2.1900 C.3     1  UNL1        0.1270
      2  C          8.4710   -1.8630   -2.9150 C.2     1  UNL1        0.3030
      3  O          9.5610   -2.4640   -3.0850 O.2     1  UNL1       -0.2520
      4  O          7.3220   -2.4450   -3.4260 O.3     1  UNL1       -0.4810
      5  H          6.6100   -2.7990   -2.7820 H       1  UNL1        0.2960
      6  C          6.9820   -0.1260   -2.1410 C.3     1  UNL1        0.0470
      7  C          6.4610    0.0540   -0.7870 C.2     1  UNL1       -0.0470
      8  C          5.8420    1.2270   -0.4220 C.2     1  UNL1        0.0040
      9  C          6.5960   -0.9670    0.1250 C.2     1  UNL1        0.0040
     10  C          5.3680    1.3300    0.8880 C.2     1  UNL1        0.0000
     11  C          6.1270   -0.8630    1.4200 C.2     1  UNL1        0.0000
     12  C          5.5060    0.3080    1.7940 C.2     1  UNL1        0.0000
@<TRIPOS>BOND
     1     4     2    1
     2     4     5    1
     3     3     2    2
     4     2     1    1
     5     1     6    1
     6     6     7    1
     7     7     8    2
     8     7     9    1
     9     8    10    1
    10     9    11    2
    11    10    12    2
    12    11    12    1
