@<TRIPOS>MOLECULE
/home/cewinharhar/GITHUB/reincatalyze/data/processed/docking_pred/2023_Apr_20-15:07/b0dbf451e4e891e0fb60bf6ca530f921e690d9da_ligand_2.pdbqt
 12 12 0 0 0
SMALL
GASTEIGER

@<TRIPOS>ATOM
      1  C          5.6010    2.9060   -0.0700 C.3     1  UNL1        0.1270
      2  C          6.3310    3.8740    0.7820 C.2     1  UNL1        0.3030
      3  O          7.0700    4.7560    0.2800 O.2     1  UNL1       -0.2520
      4  O          6.2170    3.8320    2.1630 O.3     1  UNL1       -0.4810
      5  H          5.8490    4.6470    2.6600 H       1  UNL1        0.2960
      6  C          4.9840    1.8690    0.8170 C.3     1  UNL1        0.0470
      7  C          5.7360    0.6170    0.8810 C.2     1  UNL1       -0.0470
      8  C          6.3420    0.1030   -0.2420 C.2     1  UNL1        0.0040
      9  C          5.8360   -0.0460    2.0820 C.2     1  UNL1        0.0040
     10  C          7.0450   -1.0970   -0.1070 C.2     1  UNL1        0.0000
     11  C          6.5310   -1.2310    2.2140 C.2     1  UNL1        0.0000
     12  C          7.1400   -1.7540    1.0940 C.2     1  UNL1        0.0000
@<TRIPOS>BOND
     1     8    10    1
     2     8     7    2
     3    10    12    2
     4     1     2    1
     5     1     6    1
     6     3     2    2
     7     2     4    1
     8     6     7    1
     9     7     9    1
    10    12    11    1
    11     9    11    2
    12     4     5    1
