@<TRIPOS>MOLECULE
/home/cewinharhar/GITHUB/reincatalyze/data/processed/docking_pred/2023_Apr_20-15:07/b0dbf451e4e891e0fb60bf6ca530f921e690d9da_ligand_2.pdbqt
 12 12 0 0 0
SMALL
GASTEIGER

@<TRIPOS>ATOM
      1  C          8.4860   -0.6390   -2.1150 C.3     1  UNL1        0.1270
      2  C          8.4980   -1.9020   -2.8910 C.2     1  UNL1        0.3030
      3  O          9.5670   -2.5300   -3.0950 O.2     1  UNL1       -0.2520
      4  O          7.3270   -2.4250   -3.4150 O.3     1  UNL1       -0.4810
      5  H          7.1070   -3.4130   -3.2610 H       1  UNL1        0.2960
      6  C          7.0850   -0.1090   -2.1010 C.3     1  UNL1        0.0470
      7  C          6.5180    0.0350   -0.7620 C.2     1  UNL1       -0.0470
      8  C          6.6270   -0.9790    0.1610 C.2     1  UNL1        0.0040
      9  C          5.8710    1.2030   -0.4290 C.2     1  UNL1        0.0040
     10  C          6.0620   -0.7720    1.4220 C.2     1  UNL1        0.0000
     11  C          5.3130    1.4060    0.8180 C.2     1  UNL1        0.0000
     12  C          5.4170    0.3950    1.7480 C.2     1  UNL1        0.0000
@<TRIPOS>BOND
     1     4     5    1
     2     4     2    1
     3     3     2    2
     4     2     1    1
     5     1     6    1
     6     6     7    1
     7     7     9    2
     8     7     8    1
     9     9    11    1
    10     8    10    2
    11    11    12    2
    12    10    12    1
