MODEL 1
REMARK VINA RESULT:      -7.4      0.000      0.000
REMARK SMILES O=C(O)CCc1ccccc1
REMARK SMILES IDX 4 1 2 2 1 3 3 4 5 6 6 7 7 8 11 9 8 10 10 11 9 12
REMARK H PARENT 3 5
REMARK Flexibility Score: inf
ROOT
ATOM      1  C   UNL     1       8.486  -0.639  -2.115  1.00  0.00     0.127 C 
ENDROOT
BRANCH   1   2
ATOM      2  C   UNL     1       8.498  -1.902  -2.891  1.00  0.00     0.303 C 
ATOM      3  O   UNL     1       9.567  -2.530  -3.095  1.00  0.00    -0.252 OA
BRANCH   2   4
ATOM      4  O   UNL     1       7.327  -2.425  -3.415  1.00  0.00    -0.481 OA
ATOM      5  H   UNL     1       7.107  -3.413  -3.261  1.00  0.00     0.296 HD
ENDBRANCH   2   4
ENDBRANCH   1   2
BRANCH   1   6
ATOM      6  C   UNL     1       7.085  -0.109  -2.101  1.00  0.00     0.047 C 
BRANCH   6   7
ATOM      7  C   UNL     1       6.518   0.035  -0.762  1.00  0.00    -0.047 A 
ATOM      8  C   UNL     1       6.627  -0.979   0.161  1.00  0.00     0.004 A 
ATOM      9  C   UNL     1       5.871   1.203  -0.429  1.00  0.00     0.004 A 
ATOM     10  C   UNL     1       6.062  -0.772   1.422  1.00  0.00     0.000 A 
ATOM     11  C   UNL     1       5.313   1.406   0.818  1.00  0.00     0.000 A 
ATOM     12  C   UNL     1       5.417   0.395   1.748  1.00  0.00     0.000 A 
ENDBRANCH   6   7
ENDBRANCH   1   6
TORSDOF 4
ENDMDL
MODEL 2
REMARK VINA RESULT:      -7.3      0.090      1.439
REMARK SMILES O=C(O)CCc1ccccc1
REMARK SMILES IDX 4 1 2 2 1 3 3 4 5 6 6 7 7 8 11 9 8 10 10 11 9 12
REMARK H PARENT 3 5
REMARK Flexibility Score: inf
ROOT
ATOM      1  C   UNL     1       8.411  -0.572  -2.190  1.00  0.00     0.127 C 
ENDROOT
BRANCH   1   2
ATOM      2  C   UNL     1       8.471  -1.863  -2.915  1.00  0.00     0.303 C 
ATOM      3  O   UNL     1       9.561  -2.464  -3.085  1.00  0.00    -0.252 OA
BRANCH   2   4
ATOM      4  O   UNL     1       7.322  -2.445  -3.426  1.00  0.00    -0.481 OA
ATOM      5  H   UNL     1       6.610  -2.799  -2.782  1.00  0.00     0.296 HD
ENDBRANCH   2   4
ENDBRANCH   1   2
BRANCH   1   6
ATOM      6  C   UNL     1       6.982  -0.126  -2.141  1.00  0.00     0.047 C 
BRANCH   6   7
ATOM      7  C   UNL     1       6.461   0.054  -0.787  1.00  0.00    -0.047 A 
ATOM      8  C   UNL     1       5.842   1.227  -0.422  1.00  0.00     0.004 A 
ATOM      9  C   UNL     1       6.596  -0.967   0.125  1.00  0.00     0.004 A 
ATOM     10  C   UNL     1       5.368   1.330   0.888  1.00  0.00     0.000 A 
ATOM     11  C   UNL     1       6.127  -0.863   1.420  1.00  0.00     0.000 A 
ATOM     12  C   UNL     1       5.506   0.308   1.794  1.00  0.00     0.000 A 
ENDBRANCH   6   7
ENDBRANCH   1   6
TORSDOF 4
ENDMDL
MODEL 3
REMARK VINA RESULT:      -7.2      0.665      1.105
REMARK SMILES O=C(O)CCc1ccccc1
REMARK SMILES IDX 4 1 2 2 1 3 3 4 5 6 6 7 7 8 11 9 8 10 10 11 9 12
REMARK H PARENT 3 5
REMARK Flexibility Score: inf
ROOT
ATOM      1  C   UNL     1       8.303  -1.028  -1.704  1.00  0.00     0.127 C 
ENDROOT
BRANCH   1   2
ATOM      2  C   UNL     1       8.431  -2.017  -2.800  1.00  0.00     0.303 C 
ATOM      3  O   UNL     1       9.553  -2.465  -3.145  1.00  0.00    -0.252 OA
BRANCH   2   4
ATOM      4  O   UNL     1       7.312  -2.476  -3.477  1.00  0.00    -0.481 OA
ATOM      5  H   UNL     1       6.402  -2.460  -3.008  1.00  0.00     0.296 HD
ENDBRANCH   2   4
ENDBRANCH   1   2
BRANCH   1   6
ATOM      6  C   UNL     1       7.202  -1.476  -0.792  1.00  0.00     0.047 C 
BRANCH   6   7
ATOM      7  C   UNL     1       6.459  -0.379  -0.174  1.00  0.00    -0.047 A 
ATOM      8  C   UNL     1       6.044  -0.461   1.135  1.00  0.00     0.004 A 
ATOM      9  C   UNL     1       6.179   0.744  -0.916  1.00  0.00     0.004 A 
ATOM     10  C   UNL     1       5.340   0.625   1.661  1.00  0.00     0.000 A 
ATOM     11  C   UNL     1       5.482   1.817  -0.395  1.00  0.00     0.000 A 
ATOM     12  C   UNL     1       5.062   1.742   0.915  1.00  0.00     0.000 A 
ENDBRANCH   6   7
ENDBRANCH   1   6
TORSDOF 4
ENDMDL
MODEL 4
REMARK VINA RESULT:      -6.8      3.373      5.074
REMARK SMILES O=C(O)CCc1ccccc1
REMARK SMILES IDX 4 1 2 2 1 3 3 4 5 6 6 7 7 8 11 9 8 10 10 11 9 12
REMARK H PARENT 3 5
REMARK Flexibility Score: inf
ROOT
ATOM      1  C   UNL     1       4.977   1.811   0.681  1.00  0.00     0.127 C 
ENDROOT
BRANCH   1   2
ATOM      2  C   UNL     1       4.486   1.131   1.903  1.00  0.00     0.303 C 
ATOM      3  O   UNL     1       5.168   0.244   2.473  1.00  0.00    -0.252 OA
BRANCH   2   4
ATOM      4  O   UNL     1       3.256   1.458   2.452  1.00  0.00    -0.481 OA
ATOM      5  H   UNL     1       2.449   0.856   2.267  1.00  0.00     0.296 HD
ENDBRANCH   2   4
ENDBRANCH   1   2
BRANCH   1   6
ATOM      6  C   UNL     1       6.474   1.829   0.722  1.00  0.00     0.047 C 
BRANCH   6   7
ATOM      7  C   UNL     1       7.108   1.072  -0.357  1.00  0.00    -0.047 A 
ATOM      8  C   UNL     1       6.372   0.213  -1.139  1.00  0.00     0.004 A 
ATOM      9  C   UNL     1       8.455   1.230  -0.585  1.00  0.00     0.004 A 
ATOM     10  C   UNL     1       7.043  -0.477  -2.152  1.00  0.00     0.000 A 
ATOM     11  C   UNL     1       9.117   0.547  -1.587  1.00  0.00     0.000 A 
ATOM     12  C   UNL     1       8.387  -0.317  -2.375  1.00  0.00     0.000 A 
ENDBRANCH   6   7
ENDBRANCH   1   6
TORSDOF 4
ENDMDL
MODEL 5
REMARK VINA RESULT:      -6.7      3.823      4.958
REMARK SMILES O=C(O)CCc1ccccc1
REMARK SMILES IDX 4 1 2 2 1 3 3 4 5 6 6 7 7 8 11 9 8 10 10 11 9 12
REMARK H PARENT 3 5
REMARK Flexibility Score: inf
ROOT
ATOM      1  C   UNL     1       5.601   2.906  -0.070  1.00  0.00     0.127 C 
ENDROOT
BRANCH   1   2
ATOM      2  C   UNL     1       6.331   3.874   0.782  1.00  0.00     0.303 C 
ATOM      3  O   UNL     1       7.070   4.756   0.280  1.00  0.00    -0.252 OA
BRANCH   2   4
ATOM      4  O   UNL     1       6.217   3.832   2.163  1.00  0.00    -0.481 OA
ATOM      5  H   UNL     1       5.849   4.647   2.660  1.00  0.00     0.296 HD
ENDBRANCH   2   4
ENDBRANCH   1   2
BRANCH   1   6
ATOM      6  C   UNL     1       4.984   1.869   0.817  1.00  0.00     0.047 C 
BRANCH   6   7
ATOM      7  C   UNL     1       5.736   0.617   0.881  1.00  0.00    -0.047 A 
ATOM      8  C   UNL     1       6.342   0.103  -0.242  1.00  0.00     0.004 A 
ATOM      9  C   UNL     1       5.836  -0.046   2.082  1.00  0.00     0.004 A 
ATOM     10  C   UNL     1       7.045  -1.097  -0.107  1.00  0.00     0.000 A 
ATOM     11  C   UNL     1       6.531  -1.231   2.214  1.00  0.00     0.000 A 
ATOM     12  C   UNL     1       7.140  -1.754   1.094  1.00  0.00     0.000 A 
ENDBRANCH   6   7
ENDBRANCH   1   6
TORSDOF 4
ENDMDL
