@<TRIPOS>MOLECULE
/home/cewinharhar/GITHUB/reincatalyze/data/processed/docking_pred/2023_Apr_20-15:07/b0dbf451e4e891e0fb60bf6ca530f921e690d9da_ligand_2.pdbqt
 12 12 0 0 0
SMALL
GASTEIGER

@<TRIPOS>ATOM
      1  C          4.9770    1.8110    0.6810 C.3     1  UNL1        0.1270
      2  C          4.4860    1.1310    1.9030 C.2     1  UNL1        0.3030
      3  O          5.1680    0.2440    2.4730 O.2     1  UNL1       -0.2520
      4  O          3.2560    1.4580    2.4520 O.3     1  UNL1       -0.4810
      5  H          2.4490    0.8560    2.2670 H       1  UNL1        0.2960
      6  C          6.4740    1.8290    0.7220 C.3     1  UNL1        0.0470
      7  C          7.1080    1.0720   -0.3570 C.2     1  UNL1       -0.0470
      8  C          6.3720    0.2130   -1.1390 C.2     1  UNL1        0.0040
      9  C          8.4550    1.2300   -0.5850 C.2     1  UNL1        0.0040
     10  C          7.0430   -0.4770   -2.1520 C.2     1  UNL1        0.0000
     11  C          9.1170    0.5470   -1.5870 C.2     1  UNL1        0.0000
     12  C          8.3870   -0.3170   -2.3750 C.2     1  UNL1        0.0000
@<TRIPOS>BOND
     1    12    10    2
     2    12    11    1
     3    10     8    1
     4    11     9    2
     5     8     7    2
     6     9     7    1
     7     7     6    1
     8     1     6    1
     9     1     2    1
    10     2     4    1
    11     2     3    2
    12     5     4    1
