@<TRIPOS>MOLECULE
/home/cewinharhar/GITHUB/reincatalyze/data/processed/docking_pred/2023_Apr_20-15:07/b1cc709a4c09585943c6b669d8b61c6b26bf0288_ligand_2.pdbqt
 12 12 0 0 0
SMALL
GASTEIGER

@<TRIPOS>ATOM
      1  C          8.4420   -0.6170   -2.1520 C.3     1  UNL1        0.1270
      2  C          8.4800   -1.8990   -2.8940 C.2     1  UNL1        0.3030
      3  O          9.5610   -2.5090   -3.0850 O.2     1  UNL1       -0.2520
      4  O          7.3190   -2.4610   -3.4000 O.3     1  UNL1       -0.4810
      5  H          7.3650   -3.3690   -3.8690 H       1  UNL1        0.2960
      6  C          7.0250   -0.1320   -2.1210 C.3     1  UNL1        0.0470
      7  C          6.4850    0.0400   -0.7730 C.2     1  UNL1       -0.0470
      8  C          5.8630    1.2120   -0.4090 C.2     1  UNL1        0.0040
      9  C          6.6030   -0.9880    0.1340 C.2     1  UNL1        0.0040
     10  C          5.3710    1.3070    0.8950 C.2     1  UNL1        0.0000
     11  C          6.1150   -0.8920    1.4220 C.2     1  UNL1        0.0000
     12  C          5.4920    0.2790    1.7950 C.2     1  UNL1        0.0000
@<TRIPOS>BOND
     1     5     4    1
     2     4     2    1
     3     3     2    2
     4     2     1    1
     5     1     6    1
     6     6     7    1
     7     7     8    2
     8     7     9    1
     9     8    10    1
    10     9    11    2
    11    10    12    2
    12    11    12    1
