@<TRIPOS>MOLECULE
/home/cewinharhar/GITHUB/reincatalyze/data/processed/docking_pred/2023_Apr_20-15:07/b1cc709a4c09585943c6b669d8b61c6b26bf0288_ligand_2.pdbqt
 12 12 0 0 0
SMALL
GASTEIGER

@<TRIPOS>ATOM
      1  C          8.4540   -0.5400   -2.2040 C.3     1  UNL1        0.1270
      2  C          8.5090   -1.8390   -2.9140 C.2     1  UNL1        0.3030
      3  O          9.5990   -2.4370   -3.0950 O.2     1  UNL1       -0.2520
      4  O          7.3550   -2.4320   -3.4010 O.3     1  UNL1       -0.4810
      5  H          6.4450   -2.0390   -3.1450 H       1  UNL1        0.2960
      6  C          7.0260   -0.0910   -2.1530 C.3     1  UNL1        0.0470
      7  C          6.4940    0.0500   -0.7990 C.2     1  UNL1       -0.0470
      8  C          6.6150   -0.9720    0.1140 C.2     1  UNL1        0.0040
      9  C          5.8690    1.2220   -0.4420 C.2     1  UNL1        0.0040
     10  C          6.0850   -0.7680    1.3900 C.2     1  UNL1        0.0000
     11  C          5.3450    1.4220    0.8200 C.2     1  UNL1        0.0000
     12  C          5.4610    0.4030    1.7400 C.2     1  UNL1        0.0000
@<TRIPOS>BOND
     1     4     5    1
     2     4     2    1
     3     3     2    2
     4     2     1    1
     5     1     6    1
     6     6     7    1
     7     7     9    2
     8     7     8    1
     9     9    11    1
    10     8    10    2
    11    11    12    2
    12    10    12    1
