@<TRIPOS>MOLECULE
/home/cewinharhar/GITHUB/reincatalyze/data/processed/docking_pred/2023_Apr_20-15:07/b1cc709a4c09585943c6b669d8b61c6b26bf0288_ligand_2.pdbqt
 12 12 0 0 0
SMALL
GASTEIGER

@<TRIPOS>ATOM
      1  C          5.0470    1.7200    0.6800 C.3     1  UNL1        0.1270
      2  C          4.6080    1.0260    1.9140 C.2     1  UNL1        0.3030
      3  O          5.3350    0.1670    2.4720 O.2     1  UNL1       -0.2520
      4  O          3.3790    1.3080    2.4880 O.3     1  UNL1       -0.4810
      5  H          2.6480    0.5910    2.4850 H       1  UNL1        0.2960
      6  C          6.5440    1.7940    0.6890 C.3     1  UNL1        0.0470
      7  C          7.1830    1.0250   -0.3780 C.2     1  UNL1       -0.0470
      8  C          8.5220    1.1810   -0.6520 C.2     1  UNL1        0.0040
      9  C          6.4300    0.1360   -1.1090 C.2     1  UNL1        0.0040
     10  C          9.0660    0.4140   -1.6840 C.2     1  UNL1        0.0000
     11  C          6.9690   -0.6220   -2.1290 C.2     1  UNL1        0.0000
     12  C          8.3100   -0.4710   -2.4110 C.2     1  UNL1        0.0000
@<TRIPOS>BOND
     1    12    11    2
     2    12    10    1
     3    11     9    1
     4    10     8    2
     5     9     7    2
     6     8     7    1
     7     7     6    1
     8     1     6    1
     9     1     2    1
    10     2     3    2
    11     2     4    1
    12     5     4    1
