@<TRIPOS>MOLECULE
/home/cewinharhar/GITHUB/reincatalyze/data/processed/docking_pred/2023_Apr_20-15:07/b1cc709a4c09585943c6b669d8b61c6b26bf0288_ligand_2.pdbqt
 12 12 0 0 0
SMALL
GASTEIGER

@<TRIPOS>ATOM
      1  C          5.3140    2.9560    0.0300 C.3     1  UNL1        0.1270
      2  C          6.1960    3.8580    0.8080 C.2     1  UNL1        0.3030
      3  O          6.8690    4.7560    0.2440 O.2     1  UNL1       -0.2520
      4  O          6.3000    3.7350    2.1840 O.3     1  UNL1       -0.4810
      5  H          5.9100    4.4670    2.7840 H       1  UNL1        0.2960
      6  C          5.1820    1.6650    0.7790 C.3     1  UNL1        0.0470
      7  C          5.9920    0.5770    0.2350 C.2     1  UNL1       -0.0470
      8  C          6.3510    0.5630   -1.0920 C.2     1  UNL1        0.0040
      9  C          6.3970   -0.4400    1.0690 C.2     1  UNL1        0.0040
     10  C          7.1260   -0.5080   -1.5430 C.2     1  UNL1        0.0000
     11  C          7.1630   -1.4980    0.6220 C.2     1  UNL1        0.0000
     12  C          7.5270   -1.5200   -0.7070 C.2     1  UNL1        0.0000
@<TRIPOS>BOND
     1    10     8    1
     2    10    12    2
     3     8     7    2
     4    12    11    1
     5     1     6    1
     6     1     2    1
     7     7     6    1
     8     7     9    1
     9     3     2    2
    10    11     9    2
    11     2     4    1
    12     4     5    1
