@<TRIPOS>MOLECULE
/home/cewinharhar/GITHUB/reincatalyze/data/processed/docking_pred/2023_Apr_20-15:07/b1cc709a4c09585943c6b669d8b61c6b26bf0288_ligand_2.pdbqt
 12 12 0 0 0
SMALL
GASTEIGER

@<TRIPOS>ATOM
      1  C          8.1820   -1.4940    1.0980 C.3     1  UNL1        0.1270
      2  C          8.4790   -2.7200    0.3210 C.2     1  UNL1        0.3030
      3  O          9.1180   -3.6740    0.8300 O.2     1  UNL1       -0.2520
      4  O          8.0580   -2.8470   -0.9930 O.3     1  UNL1       -0.4810
      5  H          7.1390   -2.4850   -1.2620 H       1  UNL1        0.2960
      6  C          6.6970   -1.3870    1.2590 C.3     1  UNL1        0.0470
      7  C          6.1350   -0.1270    0.7740 C.2     1  UNL1       -0.0470
      8  C          5.3610    0.6600    1.5950 C.2     1  UNL1        0.0040
      9  C          6.3920    0.2690   -0.5180 C.2     1  UNL1        0.0040
     10  C          4.8580    1.8510    1.0650 C.2     1  UNL1        0.0000
     11  C          5.8940    1.4460   -1.0400 C.2     1  UNL1        0.0000
     12  C          5.1160    2.2400   -0.2250 C.2     1  UNL1        0.0000
@<TRIPOS>BOND
     1     5     4    1
     2    11     9    1
     3    11    12    2
     4     4     2    1
     5     9     7    2
     6    12    10    1
     7     2     3    2
     8     2     1    1
     9     7     6    1
    10     7     8    1
    11    10     8    2
    12     1     6    1
