@<TRIPOS>MOLECULE
/home/cewinharhar/GITHUB/reincatalyze/data/processed/docking_pred/2023_Apr_20-15:07/b393d0f0af23d36e99ef7bf88514b4beffd0378d_ligand_2.pdbqt
 12 12 0 0 0
SMALL
GASTEIGER

@<TRIPOS>ATOM
      1  C          8.3110   -1.6910    1.2350 C.3     1  UNL1        0.1270
      2  C          8.7100   -2.9240    0.5160 C.2     1  UNL1        0.3030
      3  O          9.4550   -3.7790    1.0540 O.2     1  UNL1       -0.2520
      4  O          8.2680   -3.1670   -0.7750 O.3     1  UNL1       -0.4810
      5  H          8.7930   -2.7800   -1.5640 H       1  UNL1        0.2960
      6  C          6.8150   -1.6410    1.2910 C.3     1  UNL1        0.0470
      7  C          6.2450   -0.3740    0.8350 C.2     1  UNL1       -0.0470
      8  C          5.4840    0.4000    1.6800 C.2     1  UNL1        0.0040
      9  C          6.4800    0.0420   -0.4550 C.2     1  UNL1        0.0040
     10  C          4.9730    1.5980    1.1770 C.2     1  UNL1        0.0000
     11  C          5.9740    1.2270   -0.9510 C.2     1  UNL1        0.0000
     12  C          5.2090    2.0080   -0.1110 C.2     1  UNL1        0.0000
@<TRIPOS>BOND
     1     5     4    1
     2    11     9    1
     3    11    12    2
     4     4     2    1
     5     9     7    2
     6    12    10    1
     7     2     3    2
     8     2     1    1
     9     7     6    1
    10     7     8    1
    11    10     8    2
    12     1     6    1
