@<TRIPOS>MOLECULE
/home/cewinharhar/GITHUB/reincatalyze/data/processed/docking_pred/2023_Apr_20-15:07/b393d0f0af23d36e99ef7bf88514b4beffd0378d_ligand_2.pdbqt
 12 12 0 0 0
SMALL
GASTEIGER

@<TRIPOS>ATOM
      1  C          8.4570   -0.6560   -2.1180 C.3     1  UNL1        0.1270
      2  C          8.4870   -1.9140   -2.9010 C.2     1  UNL1        0.3030
      3  O          9.5620   -2.5340   -3.0950 O.2     1  UNL1       -0.2520
      4  O          7.3260   -2.4410   -3.4420 O.3     1  UNL1       -0.4810
      5  H          6.9650   -2.0610   -4.3220 H       1  UNL1        0.2960
      6  C          7.0510   -0.1370   -2.1150 C.3     1  UNL1        0.0470
      7  C          6.4930    0.0600   -0.7780 C.2     1  UNL1       -0.0470
      8  C          5.8440    1.2280   -0.4520 C.2     1  UNL1        0.0040
      9  C          6.6230   -0.9400    0.1580 C.2     1  UNL1        0.0040
     10  C          5.3350    1.3470    0.8430 C.2     1  UNL1        0.0000
     11  C          6.1200   -0.8200    1.4380 C.2     1  UNL1        0.0000
     12  C          5.4680    0.3470    1.7730 C.2     1  UNL1        0.0000
@<TRIPOS>BOND
     1     5     4    1
     2     4     2    1
     3     3     2    2
     4     2     1    1
     5     1     6    1
     6     6     7    1
     7     7     8    2
     8     7     9    1
     9     8    10    1
    10     9    11    2
    11    10    12    2
    12    11    12    1
