MODEL 1
REMARK VINA RESULT:      -7.3      0.000      0.000
REMARK SMILES O=C(O)CCc1ccccc1
REMARK SMILES IDX 4 1 2 2 1 3 3 4 5 6 6 7 7 8 11 9 8 10 10 11 9 12
REMARK H PARENT 3 5
REMARK Flexibility Score: inf
ROOT
ATOM      1  C   UNL     1       8.457  -0.656  -2.118  1.00  0.00     0.127 C 
ENDROOT
BRANCH   1   2
ATOM      2  C   UNL     1       8.487  -1.914  -2.901  1.00  0.00     0.303 C 
ATOM      3  O   UNL     1       9.562  -2.534  -3.095  1.00  0.00    -0.252 OA
BRANCH   2   4
ATOM      4  O   UNL     1       7.326  -2.441  -3.442  1.00  0.00    -0.481 OA
ATOM      5  H   UNL     1       6.965  -2.061  -4.322  1.00  0.00     0.296 HD
ENDBRANCH   2   4
ENDBRANCH   1   2
BRANCH   1   6
ATOM      6  C   UNL     1       7.051  -0.137  -2.115  1.00  0.00     0.047 C 
BRANCH   6   7
ATOM      7  C   UNL     1       6.493   0.060  -0.778  1.00  0.00    -0.047 A 
ATOM      8  C   UNL     1       5.844   1.228  -0.452  1.00  0.00     0.004 A 
ATOM      9  C   UNL     1       6.623  -0.940   0.158  1.00  0.00     0.004 A 
ATOM     10  C   UNL     1       5.335   1.347   0.843  1.00  0.00     0.000 A 
ATOM     11  C   UNL     1       6.120  -0.820   1.438  1.00  0.00     0.000 A 
ATOM     12  C   UNL     1       5.468   0.347   1.773  1.00  0.00     0.000 A 
ENDBRANCH   6   7
ENDBRANCH   1   6
TORSDOF 4
ENDMDL
MODEL 2
REMARK VINA RESULT:      -7.3      0.160      1.734
REMARK SMILES O=C(O)CCc1ccccc1
REMARK SMILES IDX 4 1 2 2 1 3 3 4 5 6 6 7 7 8 11 9 8 10 10 11 9 12
REMARK H PARENT 3 5
REMARK Flexibility Score: inf
ROOT
ATOM      1  C   UNL     1       8.417  -0.596  -2.179  1.00  0.00     0.127 C 
ENDROOT
BRANCH   1   2
ATOM      2  C   UNL     1       8.386  -1.877  -2.923  1.00  0.00     0.303 C 
ATOM      3  O   UNL     1       7.299  -2.407  -3.260  1.00  0.00    -0.252 OA
BRANCH   2   4
ATOM      4  O   UNL     1       9.560  -2.527  -3.268  1.00  0.00    -0.481 OA
ATOM      5  H   UNL     1       9.817  -3.390  -2.781  1.00  0.00     0.296 HD
ENDBRANCH   2   4
ENDBRANCH   1   2
BRANCH   1   6
ATOM      6  C   UNL     1       7.031  -0.027  -2.162  1.00  0.00     0.047 C 
BRANCH   6   7
ATOM      7  C   UNL     1       6.473   0.139  -0.822  1.00  0.00    -0.047 A 
ATOM      8  C   UNL     1       6.632  -0.838   0.133  1.00  0.00     0.004 A 
ATOM      9  C   UNL     1       5.783   1.291  -0.520  1.00  0.00     0.004 A 
ATOM     10  C   UNL     1       6.072  -0.612   1.392  1.00  0.00     0.000 A 
ATOM     11  C   UNL     1       5.230   1.513   0.726  1.00  0.00     0.000 A 
ATOM     12  C   UNL     1       5.385   0.538   1.687  1.00  0.00     0.000 A 
ENDBRANCH   6   7
ENDBRANCH   1   6
TORSDOF 4
ENDMDL
MODEL 3
REMARK VINA RESULT:      -6.7      3.349      5.027
REMARK SMILES O=C(O)CCc1ccccc1
REMARK SMILES IDX 4 1 2 2 1 3 3 4 5 6 6 7 7 8 11 9 8 10 10 11 9 12
REMARK H PARENT 3 5
REMARK Flexibility Score: inf
ROOT
ATOM      1  C   UNL     1       5.054   1.709   0.686  1.00  0.00     0.127 C 
ENDROOT
BRANCH   1   2
ATOM      2  C   UNL     1       4.586   1.026   1.915  1.00  0.00     0.303 C 
ATOM      3  O   UNL     1       5.292   0.160   2.487  1.00  0.00    -0.252 OA
BRANCH   2   4
ATOM      4  O   UNL     1       3.352   1.327   2.468  1.00  0.00    -0.481 OA
ATOM      5  H   UNL     1       2.789   2.078   2.060  1.00  0.00     0.296 HD
ENDBRANCH   2   4
ENDBRANCH   1   2
BRANCH   1   6
ATOM      6  C   UNL     1       6.551   1.753   0.713  1.00  0.00     0.047 C 
BRANCH   6   7
ATOM      7  C   UNL     1       7.188   1.010  -0.373  1.00  0.00    -0.047 A 
ATOM      8  C   UNL     1       8.512   1.214  -0.684  1.00  0.00     0.004 A 
ATOM      9  C   UNL     1       6.446   0.096  -1.086  1.00  0.00     0.004 A 
ATOM     10  C   UNL     1       9.054   0.468  -1.733  1.00  0.00     0.000 A 
ATOM     11  C   UNL     1       6.983  -0.640  -2.123  1.00  0.00     0.000 A 
ATOM     12  C   UNL     1       8.309  -0.441  -2.441  1.00  0.00     0.000 A 
ENDBRANCH   6   7
ENDBRANCH   1   6
TORSDOF 4
ENDMDL
MODEL 4
REMARK VINA RESULT:      -6.5      3.702      4.976
REMARK SMILES O=C(O)CCc1ccccc1
REMARK SMILES IDX 4 1 2 2 1 3 3 4 5 6 6 7 7 8 11 9 8 10 10 11 9 12
REMARK H PARENT 3 5
REMARK Flexibility Score: inf
ROOT
ATOM      1  C   UNL     1       5.306   2.865   0.101  1.00  0.00     0.127 C 
ENDROOT
BRANCH   1   2
ATOM      2  C   UNL     1       6.168   3.788   0.877  1.00  0.00     0.303 C 
ATOM      3  O   UNL     1       6.254   3.702   2.127  1.00  0.00    -0.252 OA
BRANCH   2   4
ATOM      4  O   UNL     1       6.904   4.775   0.241  1.00  0.00    -0.481 OA
ATOM      5  H   UNL     1       7.235   4.615  -0.714  1.00  0.00     0.296 HD
ENDBRANCH   2   4
ENDBRANCH   1   2
BRANCH   1   6
ATOM      6  C   UNL     1       5.299   1.535   0.792  1.00  0.00     0.047 C 
BRANCH   6   7
ATOM      7  C   UNL     1       6.066   0.501   0.099  1.00  0.00    -0.047 A 
ATOM      8  C   UNL     1       6.337   0.609  -1.245  1.00  0.00     0.004 A 
ATOM      9  C   UNL     1       6.520  -0.587   0.808  1.00  0.00     0.004 A 
ATOM     10  C   UNL     1       7.076  -0.416  -1.842  1.00  0.00     0.000 A 
ATOM     11  C   UNL     1       7.249  -1.599   0.217  1.00  0.00     0.000 A 
ATOM     12  C   UNL     1       7.525  -1.499  -1.129  1.00  0.00     0.000 A 
ENDBRANCH   6   7
ENDBRANCH   1   6
TORSDOF 4
ENDMDL
MODEL 5
REMARK VINA RESULT:      -6.5      1.973      2.900
REMARK SMILES O=C(O)CCc1ccccc1
REMARK SMILES IDX 4 1 2 2 1 3 3 4 5 6 6 7 7 8 11 9 8 10 10 11 9 12
REMARK H PARENT 3 5
REMARK Flexibility Score: inf
ROOT
ATOM      1  C   UNL     1       8.311  -1.691   1.235  1.00  0.00     0.127 C 
ENDROOT
BRANCH   1   2
ATOM      2  C   UNL     1       8.710  -2.924   0.516  1.00  0.00     0.303 C 
ATOM      3  O   UNL     1       9.455  -3.779   1.054  1.00  0.00    -0.252 OA
BRANCH   2   4
ATOM      4  O   UNL     1       8.268  -3.167  -0.775  1.00  0.00    -0.481 OA
ATOM      5  H   UNL     1       8.793  -2.780  -1.564  1.00  0.00     0.296 HD
ENDBRANCH   2   4
ENDBRANCH   1   2
BRANCH   1   6
ATOM      6  C   UNL     1       6.815  -1.641   1.291  1.00  0.00     0.047 C 
BRANCH   6   7
ATOM      7  C   UNL     1       6.245  -0.374   0.835  1.00  0.00    -0.047 A 
ATOM      8  C   UNL     1       5.484   0.400   1.680  1.00  0.00     0.004 A 
ATOM      9  C   UNL     1       6.480   0.042  -0.455  1.00  0.00     0.004 A 
ATOM     10  C   UNL     1       4.973   1.598   1.177  1.00  0.00     0.000 A 
ATOM     11  C   UNL     1       5.974   1.227  -0.951  1.00  0.00     0.000 A 
ATOM     12  C   UNL     1       5.209   2.008  -0.111  1.00  0.00     0.000 A 
ENDBRANCH   6   7
ENDBRANCH   1   6
TORSDOF 4
ENDMDL
