@<TRIPOS>MOLECULE
/home/cewinharhar/GITHUB/reincatalyze/data/processed/docking_pred/2023_Apr_20-15:07/b393d0f0af23d36e99ef7bf88514b4beffd0378d_ligand_2.pdbqt
 12 12 0 0 0
SMALL
GASTEIGER

@<TRIPOS>ATOM
      1  C          5.3060    2.8650    0.1010 C.3     1  UNL1        0.1270
      2  C          6.1680    3.7880    0.8770 C.2     1  UNL1        0.3030
      3  O          6.2540    3.7020    2.1270 O.2     1  UNL1       -0.2520
      4  O          6.9040    4.7750    0.2410 O.3     1  UNL1       -0.4810
      5  H          7.2350    4.6150   -0.7140 H       1  UNL1        0.2960
      6  C          5.2990    1.5350    0.7920 C.3     1  UNL1        0.0470
      7  C          6.0660    0.5010    0.0990 C.2     1  UNL1       -0.0470
      8  C          6.3370    0.6090   -1.2450 C.2     1  UNL1        0.0040
      9  C          6.5200   -0.5870    0.8080 C.2     1  UNL1        0.0040
     10  C          7.0760   -0.4160   -1.8420 C.2     1  UNL1        0.0000
     11  C          7.2490   -1.5990    0.2170 C.2     1  UNL1        0.0000
     12  C          7.5250   -1.4990   -1.1290 C.2     1  UNL1        0.0000
@<TRIPOS>BOND
     1    10     8    1
     2    10    12    2
     3     8     7    2
     4    12    11    1
     5     5     4    1
     6     7     6    1
     7     7     9    1
     8     1     6    1
     9     1     2    1
    10    11     9    2
    11     4     2    1
    12     2     3    2
