@<TRIPOS>MOLECULE
/home/cewinharhar/GITHUB/reincatalyze/data/processed/docking_pred/2023_Apr_20-15:07/b393d0f0af23d36e99ef7bf88514b4beffd0378d_ligand_2.pdbqt
 12 12 0 0 0
SMALL
GASTEIGER

@<TRIPOS>ATOM
      1  C          8.4170   -0.5960   -2.1790 C.3     1  UNL1        0.1270
      2  C          8.3860   -1.8770   -2.9230 C.2     1  UNL1        0.3030
      3  O          7.2990   -2.4070   -3.2600 O.2     1  UNL1       -0.2520
      4  O          9.5600   -2.5270   -3.2680 O.3     1  UNL1       -0.4810
      5  H          9.8170   -3.3900   -2.7810 H       1  UNL1        0.2960
      6  C          7.0310   -0.0270   -2.1620 C.3     1  UNL1        0.0470
      7  C          6.4730    0.1390   -0.8220 C.2     1  UNL1       -0.0470
      8  C          6.6320   -0.8380    0.1330 C.2     1  UNL1        0.0040
      9  C          5.7830    1.2910   -0.5200 C.2     1  UNL1        0.0040
     10  C          6.0720   -0.6120    1.3920 C.2     1  UNL1        0.0000
     11  C          5.2300    1.5130    0.7260 C.2     1  UNL1        0.0000
     12  C          5.3850    0.5380    1.6870 C.2     1  UNL1        0.0000
@<TRIPOS>BOND
     1     4     2    1
     2     4     5    1
     3     3     2    2
     4     2     1    1
     5     1     6    1
     6     6     7    1
     7     7     9    2
     8     7     8    1
     9     9    11    1
    10     8    10    2
    11    11    12    2
    12    10    12    1
