@<TRIPOS>MOLECULE
/home/cewinharhar/GITHUB/reincatalyze/data/processed/docking_pred/2023_Apr_20-15:07/b3ccd1df948aefc26948fdc9bbc960af2f6fd47d_ligand_2.pdbqt
 12 12 0 0 0
SMALL
GASTEIGER

@<TRIPOS>ATOM
      1  C          8.4280   -0.6200   -2.1410 C.3     1  UNL1        0.1270
      2  C          8.3930   -1.8920   -2.9000 C.2     1  UNL1        0.3030
      3  O          7.3050   -2.4190   -3.2370 O.2     1  UNL1       -0.2520
      4  O          9.5660   -2.5370   -3.2580 O.3     1  UNL1       -0.4810
      5  H          9.5570   -3.1920   -4.0450 H       1  UNL1        0.2960
      6  C          7.0410   -0.0540   -2.1070 C.3     1  UNL1        0.0470
      7  C          6.4860    0.0780   -0.7610 C.2     1  UNL1       -0.0470
      8  C          6.6100   -0.9410    0.1550 C.2     1  UNL1        0.0040
      9  C          5.8350    1.2400   -0.4140 C.2     1  UNL1        0.0040
     10  C          6.0560   -0.7450    1.4220 C.2     1  UNL1        0.0000
     11  C          5.2880    1.4320    0.8390 C.2     1  UNL1        0.0000
     12  C          5.4080    0.4150    1.7620 C.2     1  UNL1        0.0000
@<TRIPOS>BOND
     1     5     4    1
     2     4     2    1
     3     3     2    2
     4     2     1    1
     5     1     6    1
     6     6     7    1
     7     7     9    2
     8     7     8    1
     9     9    11    1
    10     8    10    2
    11    11    12    2
    12    10    12    1
