@<TRIPOS>MOLECULE
/home/cewinharhar/GITHUB/reincatalyze/data/processed/docking_pred/2023_Apr_20-15:07/b3ccd1df948aefc26948fdc9bbc960af2f6fd47d_ligand_2.pdbqt
 12 12 0 0 0
SMALL
GASTEIGER

@<TRIPOS>ATOM
      1  C          5.3260    2.8570    0.0530 C.3     1  UNL1        0.1270
      2  C          6.1660    3.7710    0.8620 C.2     1  UNL1        0.3030
      3  O          6.2280    3.6630    2.1120 O.2     1  UNL1       -0.2520
      4  O          6.9070    4.7750    0.2590 O.3     1  UNL1       -0.4810
      5  H          6.6400    5.7520    0.4060 H       1  UNL1        0.2960
      6  C          5.0440    1.6320    0.8690 C.3     1  UNL1        0.0470
      7  C          5.9200    0.5010    0.5650 C.2     1  UNL1       -0.0470
      8  C          6.2930   -0.3830    1.5500 C.2     1  UNL1        0.0040
      9  C          6.3690    0.3270   -0.7240 C.2     1  UNL1        0.0040
     10  C          7.1310   -1.4410    1.1880 C.2     1  UNL1        0.0000
     11  C          7.1970   -0.7190   -1.0800 C.2     1  UNL1        0.0000
     12  C          7.5760   -1.6090   -0.0990 C.2     1  UNL1        0.0000
@<TRIPOS>BOND
     1    11     9    1
     2    11    12    2
     3     9     7    2
     4    12    10    1
     5     1     2    1
     6     1     6    1
     7     4     5    1
     8     4     2    1
     9     7     6    1
    10     7     8    1
    11     2     3    2
    12    10     8    2
