@<TRIPOS>MOLECULE
/home/cewinharhar/GITHUB/reincatalyze/data/processed/docking_pred/2023_Apr_20-15:07/b3ccd1df948aefc26948fdc9bbc960af2f6fd47d_ligand_2.pdbqt
 12 12 0 0 0
SMALL
GASTEIGER

@<TRIPOS>ATOM
      1  C          8.4280   -0.5640   -2.2080 C.3     1  UNL1        0.1270
      2  C          8.4780   -1.8640   -2.9180 C.2     1  UNL1        0.3030
      3  O          9.5640   -2.4740   -3.0830 O.2     1  UNL1       -0.2520
      4  O          7.3250   -2.4430   -3.4210 O.3     1  UNL1       -0.4810
      5  H          7.3000   -2.7420   -4.4000 H       1  UNL1        0.2960
      6  C          7.0020   -0.1060   -2.1640 C.3     1  UNL1        0.0470
      7  C          6.4730    0.0650   -0.8120 C.2     1  UNL1       -0.0470
      8  C          5.8550    1.2360   -0.4410 C.2     1  UNL1        0.0040
      9  C          6.5990   -0.9640    0.0930 C.2     1  UNL1        0.0040
     10  C          5.3730    1.3300    0.8670 C.2     1  UNL1        0.0000
     11  C          6.1220   -0.8700    1.3860 C.2     1  UNL1        0.0000
     12  C          5.5020    0.3010    1.7650 C.2     1  UNL1        0.0000
@<TRIPOS>BOND
     1     5     4    1
     2     4     2    1
     3     3     2    2
     4     2     1    1
     5     1     6    1
     6     6     7    1
     7     7     8    2
     8     7     9    1
     9     8    10    1
    10     9    11    2
    11    10    12    2
    12    11    12    1
