@<TRIPOS>MOLECULE
/home/cewinharhar/GITHUB/reincatalyze/data/processed/docking_pred/2023_Apr_20-15:07/b3ccd1df948aefc26948fdc9bbc960af2f6fd47d_ligand_2.pdbqt
 12 12 0 0 0
SMALL
GASTEIGER

@<TRIPOS>ATOM
      1  C          8.1900    0.2360   -2.1240 C.3     1  UNL1        0.1270
      2  C          9.3560    0.3530   -1.2160 C.2     1  UNL1        0.3030
      3  O          9.4760   -0.3920   -0.2120 O.2     1  UNL1       -0.2520
      4  O         10.3480    1.2910   -1.4520 O.3     1  UNL1       -0.4810
      5  H         10.7070    1.4120   -2.4030 H       1  UNL1        0.2960
      6  C          7.1410   -0.5860   -1.4400 C.3     1  UNL1        0.0470
      7  C          6.3550    0.1550   -0.4540 C.2     1  UNL1       -0.0470
      8  C          6.1510   -0.3530    0.8080 C.2     1  UNL1        0.0040
      9  C          5.8180    1.3730   -0.8020 C.2     1  UNL1        0.0040
     10  C          5.3900    0.4090    1.6980 C.2     1  UNL1        0.0000
     11  C          5.0660    2.1250    0.0790 C.2     1  UNL1        0.0000
     12  C          4.8570    1.6230    1.3460 C.2     1  UNL1        0.0000
@<TRIPOS>BOND
     1     5     4    1
     2     1     6    1
     3     1     2    1
     4     4     2    1
     5     6     7    1
     6     2     3    2
     7     9     7    2
     8     9    11    1
     9     7     8    1
    10    11    12    2
    11     8    10    2
    12    12    10    1
