@<TRIPOS>MOLECULE
/home/cewinharhar/GITHUB/reincatalyze/data/processed/docking_pred/2023_Apr_20-15:07/b3ccd1df948aefc26948fdc9bbc960af2f6fd47d_ligand_2.pdbqt
 12 12 0 0 0
SMALL
GASTEIGER

@<TRIPOS>ATOM
      1  C          5.0140    1.7850    0.7270 C.3     1  UNL1        0.1270
      2  C          4.4700    1.1080    1.9270 C.2     1  UNL1        0.3030
      3  O          5.1040    0.1860    2.4980 O.2     1  UNL1       -0.2520
      4  O          3.2430    1.4750    2.4550 O.3     1  UNL1       -0.4810
      5  H          2.8940    0.9980    3.2910 H       1  UNL1        0.2960
      6  C          6.5100    1.7180    0.7850 C.3     1  UNL1        0.0470
      7  C          7.1150    0.9710   -0.3170 C.2     1  UNL1       -0.0470
      8  C          6.3980    0.0100   -0.9920 C.2     1  UNL1        0.0040
      9  C          8.4150    1.2410   -0.6770 C.2     1  UNL1        0.0040
     10  C          7.0400   -0.6640   -2.0340 C.2     1  UNL1        0.0000
     11  C          9.0470    0.5740   -1.7070 C.2     1  UNL1        0.0000
     12  C          8.3370   -0.3910   -2.3880 C.2     1  UNL1        0.0000
@<TRIPOS>BOND
     1    12    10    2
     2    12    11    1
     3    10     8    1
     4    11     9    2
     5     8     7    2
     6     9     7    1
     7     7     6    1
     8     1     6    1
     9     1     2    1
    10     2     4    1
    11     2     3    2
    12     4     5    1
