@<TRIPOS>MOLECULE
/home/cewinharhar/GITHUB/reincatalyze/data/processed/docking_pred/2023_Apr_20-15:07/b3efa5aa79561967f2a1346927635c3d7bfec8a2_ligand_2.pdbqt
 12 12 0 0 0
SMALL
GASTEIGER

@<TRIPOS>ATOM
      1  C          8.2830   -1.0150   -1.7020 C.3     1  UNL1        0.1270
      2  C          8.3940   -2.0220   -2.7830 C.2     1  UNL1        0.3030
      3  O          9.5080   -2.4870   -3.1270 O.2     1  UNL1       -0.2520
      4  O          7.2660   -2.4800   -3.4450 O.3     1  UNL1       -0.4810
      5  H          6.3590   -2.4470   -2.9720 H       1  UNL1        0.2960
      6  C          7.2410   -1.4800   -0.7300 C.3     1  UNL1        0.0470
      7  C          6.4840   -0.3960   -0.1060 C.2     1  UNL1       -0.0470
      8  C          6.0670   -0.4910    1.2010 C.2     1  UNL1        0.0040
      9  C          6.1920    0.7290   -0.8420 C.2     1  UNL1        0.0040
     10  C          5.3490    0.5830    1.7320 C.2     1  UNL1        0.0000
     11  C          5.4820    1.7900   -0.3160 C.2     1  UNL1        0.0000
     12  C          5.0600    1.7020    0.9930 C.2     1  UNL1        0.0000
@<TRIPOS>BOND
     1     4     5    1
     2     4     2    1
     3     3     2    2
     4     2     1    1
     5     1     6    1
     6     9    11    1
     7     9     7    2
     8     6     7    1
     9    11    12    2
    10     7     8    1
    11    12    10    1
    12     8    10    2
