@<TRIPOS>MOLECULE
/home/cewinharhar/GITHUB/reincatalyze/data/processed/docking_pred/2023_Apr_20-15:07/b3efa5aa79561967f2a1346927635c3d7bfec8a2_ligand_2.pdbqt
 12 12 0 0 0
SMALL
GASTEIGER

@<TRIPOS>ATOM
      1  C          8.3960   -0.6470   -2.0900 C.3     1  UNL1        0.1270
      2  C          8.4530   -1.9020   -2.8760 C.2     1  UNL1        0.3030
      3  O          9.5430   -2.4920   -3.0820 O.2     1  UNL1       -0.2520
      4  O          7.3020   -2.4600   -3.4080 O.3     1  UNL1       -0.4810
      5  H          6.5980   -2.8530   -2.7760 H       1  UNL1        0.2960
      6  C          6.9830   -0.1480   -2.1030 C.3     1  UNL1        0.0470
      7  C          6.4240    0.0890   -0.7730 C.2     1  UNL1       -0.0470
      8  C          6.5300   -0.8630    0.2140 C.2     1  UNL1        0.0040
      9  C          5.7870    1.2810   -0.5150 C.2     1  UNL1        0.0040
     10  C          5.9730   -0.5690    1.4610 C.2     1  UNL1        0.0000
     11  C          5.2370    1.5700    0.7180 C.2     1  UNL1        0.0000
     12  C          5.3380    0.6210    1.7120 C.2     1  UNL1        0.0000
@<TRIPOS>BOND
     1     4     2    1
     2     4     5    1
     3     3     2    2
     4     2     1    1
     5     6     1    1
     6     6     7    1
     7     7     9    2
     8     7     8    1
     9     9    11    1
    10     8    10    2
    11    11    12    2
    12    10    12    1
