MODEL 1
REMARK VINA RESULT:      -7.3      0.000      0.000
REMARK SMILES O=C(O)CCc1ccccc1
REMARK SMILES IDX 4 1 2 2 1 3 3 4 5 6 6 7 7 8 11 9 8 10 10 11 9 12
REMARK H PARENT 3 5
REMARK Flexibility Score: inf
ROOT
ATOM      1  C   UNL     1       8.396  -0.647  -2.090  1.00  0.00     0.127 C 
ENDROOT
BRANCH   1   2
ATOM      2  C   UNL     1       8.453  -1.902  -2.876  1.00  0.00     0.303 C 
ATOM      3  O   UNL     1       9.543  -2.492  -3.082  1.00  0.00    -0.252 OA
BRANCH   2   4
ATOM      4  O   UNL     1       7.302  -2.460  -3.408  1.00  0.00    -0.481 OA
ATOM      5  H   UNL     1       6.598  -2.853  -2.776  1.00  0.00     0.296 HD
ENDBRANCH   2   4
ENDBRANCH   1   2
BRANCH   1   6
ATOM      6  C   UNL     1       6.983  -0.148  -2.103  1.00  0.00     0.047 C 
BRANCH   6   7
ATOM      7  C   UNL     1       6.424   0.089  -0.773  1.00  0.00    -0.047 A 
ATOM      8  C   UNL     1       6.530  -0.863   0.214  1.00  0.00     0.004 A 
ATOM      9  C   UNL     1       5.787   1.281  -0.515  1.00  0.00     0.004 A 
ATOM     10  C   UNL     1       5.973  -0.569   1.461  1.00  0.00     0.000 A 
ATOM     11  C   UNL     1       5.237   1.570   0.718  1.00  0.00     0.000 A 
ATOM     12  C   UNL     1       5.338   0.621   1.712  1.00  0.00     0.000 A 
ENDBRANCH   6   7
ENDBRANCH   1   6
TORSDOF 4
ENDMDL
MODEL 2
REMARK VINA RESULT:      -7.2      0.157      1.735
REMARK SMILES O=C(O)CCc1ccccc1
REMARK SMILES IDX 4 1 2 2 1 3 3 4 5 6 6 7 7 8 11 9 8 10 10 11 9 12
REMARK H PARENT 3 5
REMARK Flexibility Score: inf
ROOT
ATOM      1  C   UNL     1       8.351  -0.806  -1.864  1.00  0.00     0.127 C 
ENDROOT
BRANCH   1   2
ATOM      2  C   UNL     1       8.339  -1.936  -2.823  1.00  0.00     0.303 C 
ATOM      3  O   UNL     1       7.261  -2.390  -3.281  1.00  0.00    -0.252 OA
BRANCH   2   4
ATOM      4  O   UNL     1       9.521  -2.525  -3.242  1.00  0.00    -0.481 OA
ATOM      5  H   UNL     1       9.938  -2.235  -4.131  1.00  0.00     0.296 HD
ENDBRANCH   2   4
ENDBRANCH   1   2
BRANCH   1   6
ATOM      6  C   UNL     1       7.042  -0.084  -1.971  1.00  0.00     0.047 C 
BRANCH   6   7
ATOM      7  C   UNL     1       6.412   0.197  -0.682  1.00  0.00    -0.047 A 
ATOM      8  C   UNL     1       5.740   1.379  -0.471  1.00  0.00     0.004 A 
ATOM      9  C   UNL     1       6.495  -0.737   0.324  1.00  0.00     0.004 A 
ATOM     10  C   UNL     1       5.161   1.580   0.784  1.00  0.00     0.000 A 
ATOM     11  C   UNL     1       5.922  -0.537   1.564  1.00  0.00     0.000 A 
ATOM     12  C   UNL     1       5.248   0.645   1.784  1.00  0.00     0.000 A 
ENDBRANCH   6   7
ENDBRANCH   1   6
TORSDOF 4
ENDMDL
MODEL 3
REMARK VINA RESULT:      -7.1      0.627      1.017
REMARK SMILES O=C(O)CCc1ccccc1
REMARK SMILES IDX 4 1 2 2 1 3 3 4 5 6 6 7 7 8 11 9 8 10 10 11 9 12
REMARK H PARENT 3 5
REMARK Flexibility Score: inf
ROOT
ATOM      1  C   UNL     1       8.283  -1.015  -1.702  1.00  0.00     0.127 C 
ENDROOT
BRANCH   1   2
ATOM      2  C   UNL     1       8.394  -2.022  -2.783  1.00  0.00     0.303 C 
ATOM      3  O   UNL     1       9.508  -2.487  -3.127  1.00  0.00    -0.252 OA
BRANCH   2   4
ATOM      4  O   UNL     1       7.266  -2.480  -3.445  1.00  0.00    -0.481 OA
ATOM      5  H   UNL     1       6.359  -2.447  -2.972  1.00  0.00     0.296 HD
ENDBRANCH   2   4
ENDBRANCH   1   2
BRANCH   1   6
ATOM      6  C   UNL     1       7.241  -1.480  -0.730  1.00  0.00     0.047 C 
BRANCH   6   7
ATOM      7  C   UNL     1       6.484  -0.396  -0.106  1.00  0.00    -0.047 A 
ATOM      8  C   UNL     1       6.067  -0.491   1.201  1.00  0.00     0.004 A 
ATOM      9  C   UNL     1       6.192   0.729  -0.842  1.00  0.00     0.004 A 
ATOM     10  C   UNL     1       5.349   0.583   1.732  1.00  0.00     0.000 A 
ATOM     11  C   UNL     1       5.482   1.790  -0.316  1.00  0.00     0.000 A 
ATOM     12  C   UNL     1       5.060   1.702   0.993  1.00  0.00     0.000 A 
ENDBRANCH   6   7
ENDBRANCH   1   6
TORSDOF 4
ENDMDL
MODEL 4
REMARK VINA RESULT:      -6.9      3.391      5.082
REMARK SMILES O=C(O)CCc1ccccc1
REMARK SMILES IDX 4 1 2 2 1 3 3 4 5 6 6 7 7 8 11 9 8 10 10 11 9 12
REMARK H PARENT 3 5
REMARK Flexibility Score: inf
ROOT
ATOM      1  C   UNL     1       5.049   1.807   0.703  1.00  0.00     0.127 C 
ENDROOT
BRANCH   1   2
ATOM      2  C   UNL     1       4.607   1.188   1.974  1.00  0.00     0.303 C 
ATOM      3  O   UNL     1       5.270   0.268   2.516  1.00  0.00    -0.252 OA
BRANCH   2   4
ATOM      4  O   UNL     1       3.445   1.607   2.602  1.00  0.00    -0.481 OA
ATOM      5  H   UNL     1       3.291   2.608   2.754  1.00  0.00     0.296 HD
ENDBRANCH   2   4
ENDBRANCH   1   2
BRANCH   1   6
ATOM      6  C   UNL     1       6.547   1.841   0.692  1.00  0.00     0.047 C 
BRANCH   6   7
ATOM      7  C   UNL     1       7.152   1.041  -0.371  1.00  0.00    -0.047 A 
ATOM      8  C   UNL     1       6.394   0.159  -1.106  1.00  0.00     0.004 A 
ATOM      9  C   UNL     1       8.496   1.179  -0.633  1.00  0.00     0.004 A 
ATOM     10  C   UNL     1       7.038  -0.572  -2.107  1.00  0.00     0.000 A 
ATOM     11  C   UNL     1       9.131   0.455  -1.622  1.00  0.00     0.000 A 
ATOM     12  C   UNL     1       8.379  -0.431  -2.363  1.00  0.00     0.000 A 
ENDBRANCH   6   7
ENDBRANCH   1   6
TORSDOF 4
ENDMDL
MODEL 5
REMARK VINA RESULT:      -6.8      2.003      2.283
REMARK SMILES O=C(O)CCc1ccccc1
REMARK SMILES IDX 4 1 2 2 1 3 3 4 5 6 6 7 7 8 11 9 8 10 10 11 9 12
REMARK H PARENT 3 5
REMARK Flexibility Score: inf
ROOT
ATOM      1  C   UNL     1       8.177   0.611  -1.838  1.00  0.00     0.127 C 
ENDROOT
BRANCH   1   2
ATOM      2  C   UNL     1       9.414   0.432  -1.041  1.00  0.00     0.303 C 
ATOM      3  O   UNL     1       9.476  -0.418  -0.118  1.00  0.00    -0.252 OA
BRANCH   2   4
ATOM      4  O   UNL     1      10.539   1.201  -1.292  1.00  0.00    -0.481 OA
ATOM      5  H   UNL     1      11.111   1.523  -0.507  1.00  0.00     0.296 HD
ENDBRANCH   2   4
ENDBRANCH   1   2
BRANCH   1   6
ATOM      6  C   UNL     1       7.132  -0.318  -1.301  1.00  0.00     0.047 C 
BRANCH   6   7
ATOM      7  C   UNL     1       6.324   0.254  -0.226  1.00  0.00    -0.047 A 
ATOM      8  C   UNL     1       6.150  -0.422   0.960  1.00  0.00     0.004 A 
ATOM      9  C   UNL     1       5.735   1.484  -0.410  1.00  0.00     0.004 A 
ATOM     10  C   UNL     1       5.365   0.185   1.943  1.00  0.00     0.000 A 
ATOM     11  C   UNL     1       4.960   2.082   0.564  1.00  0.00     0.000 A 
ATOM     12  C   UNL     1       4.780   1.411   1.754  1.00  0.00     0.000 A 
ENDBRANCH   6   7
ENDBRANCH   1   6
TORSDOF 4
ENDMDL
