@<TRIPOS>MOLECULE
/home/cewinharhar/GITHUB/reincatalyze/data/processed/docking_pred/2023_Apr_20-15:07/b3efa5aa79561967f2a1346927635c3d7bfec8a2_ligand_2.pdbqt
 12 12 0 0 0
SMALL
GASTEIGER

@<TRIPOS>ATOM
      1  C          5.0490    1.8070    0.7030 C.3     1  UNL1        0.1270
      2  C          4.6070    1.1880    1.9740 C.2     1  UNL1        0.3030
      3  O          5.2700    0.2680    2.5160 O.2     1  UNL1       -0.2520
      4  O          3.4450    1.6070    2.6020 O.3     1  UNL1       -0.4810
      5  H          3.2910    2.6080    2.7540 H       1  UNL1        0.2960
      6  C          6.5470    1.8410    0.6920 C.3     1  UNL1        0.0470
      7  C          7.1520    1.0410   -0.3710 C.2     1  UNL1       -0.0470
      8  C          6.3940    0.1590   -1.1060 C.2     1  UNL1        0.0040
      9  C          8.4960    1.1790   -0.6330 C.2     1  UNL1        0.0040
     10  C          7.0380   -0.5720   -2.1070 C.2     1  UNL1        0.0000
     11  C          9.1310    0.4550   -1.6220 C.2     1  UNL1        0.0000
     12  C          8.3790   -0.4310   -2.3630 C.2     1  UNL1        0.0000
@<TRIPOS>BOND
     1    12    10    2
     2    12    11    1
     3    10     8    1
     4    11     9    2
     5     8     7    2
     6     9     7    1
     7     7     6    1
     8     6     1    1
     9     1     2    1
    10     2     3    2
    11     2     4    1
    12     4     5    1
