@<TRIPOS>MOLECULE
/home/cewinharhar/GITHUB/reincatalyze/data/processed/docking_pred/2023_Apr_20-15:07/b3efa5aa79561967f2a1346927635c3d7bfec8a2_ligand_2.pdbqt
 12 12 0 0 0
SMALL
GASTEIGER

@<TRIPOS>ATOM
      1  C          8.1770    0.6110   -1.8380 C.3     1  UNL1        0.1270
      2  C          9.4140    0.4320   -1.0410 C.2     1  UNL1        0.3030
      3  O          9.4760   -0.4180   -0.1180 O.2     1  UNL1       -0.2520
      4  O         10.5390    1.2010   -1.2920 O.3     1  UNL1       -0.4810
      5  H         11.1110    1.5230   -0.5070 H       1  UNL1        0.2960
      6  C          7.1320   -0.3180   -1.3010 C.3     1  UNL1        0.0470
      7  C          6.3240    0.2540   -0.2260 C.2     1  UNL1       -0.0470
      8  C          6.1500   -0.4220    0.9600 C.2     1  UNL1        0.0040
      9  C          5.7350    1.4840   -0.4100 C.2     1  UNL1        0.0040
     10  C          5.3650    0.1850    1.9430 C.2     1  UNL1        0.0000
     11  C          4.9600    2.0820    0.5640 C.2     1  UNL1        0.0000
     12  C          4.7800    1.4110    1.7540 C.2     1  UNL1        0.0000
@<TRIPOS>BOND
     1     1     6    1
     2     1     2    1
     3     6     7    1
     4     4     2    1
     5     4     5    1
     6     2     3    2
     7     9     7    2
     8     9    11    1
     9     7     8    1
    10    11    12    2
    11     8    10    2
    12    12    10    1
