@<TRIPOS>MOLECULE
/home/cewinharhar/GITHUB/reincatalyze/data/processed/docking_pred/2023_Apr_20-15:07/b3efa5aa79561967f2a1346927635c3d7bfec8a2_ligand_2.pdbqt
 12 12 0 0 0
SMALL
GASTEIGER

@<TRIPOS>ATOM
      1  C          8.3510   -0.8060   -1.8640 C.3     1  UNL1        0.1270
      2  C          8.3390   -1.9360   -2.8230 C.2     1  UNL1        0.3030
      3  O          7.2610   -2.3900   -3.2810 O.2     1  UNL1       -0.2520
      4  O          9.5210   -2.5250   -3.2420 O.3     1  UNL1       -0.4810
      5  H          9.9380   -2.2350   -4.1310 H       1  UNL1        0.2960
      6  C          7.0420   -0.0840   -1.9710 C.3     1  UNL1        0.0470
      7  C          6.4120    0.1970   -0.6820 C.2     1  UNL1       -0.0470
      8  C          5.7400    1.3790   -0.4710 C.2     1  UNL1        0.0040
      9  C          6.4950   -0.7370    0.3240 C.2     1  UNL1        0.0040
     10  C          5.1610    1.5800    0.7840 C.2     1  UNL1        0.0000
     11  C          5.9220   -0.5370    1.5640 C.2     1  UNL1        0.0000
     12  C          5.2480    0.6450    1.7840 C.2     1  UNL1        0.0000
@<TRIPOS>BOND
     1     5     4    1
     2     3     2    2
     3     4     2    1
     4     2     1    1
     5     6     1    1
     6     6     7    1
     7     7     8    2
     8     7     9    1
     9     8    10    1
    10     9    11    2
    11    10    12    2
    12    11    12    1
