@<TRIPOS>MOLECULE
/home/cewinharhar/GITHUB/reincatalyze/data/processed/docking_pred/2023_Apr_20-15:07/b58c38953477011b0b30fd8623da0ee842eab33b_ligand_2.pdbqt
 12 12 0 0 0
SMALL
GASTEIGER

@<TRIPOS>ATOM
      1  C          8.4060   -0.5860   -2.2250 C.3     1  UNL1        0.1270
      2  C          8.4610   -1.8900   -2.9270 C.2     1  UNL1        0.3030
      3  O          9.5500   -2.4920   -3.0960 O.2     1  UNL1       -0.2520
      4  O          7.3090   -2.4820   -3.4180 O.3     1  UNL1       -0.4810
      5  H          7.1230   -2.4580   -4.4240 H       1  UNL1        0.2960
      6  C          6.9680   -0.1860   -2.0880 C.3     1  UNL1        0.0470
      7  C          6.5270   -0.0180   -0.7040 C.2     1  UNL1       -0.0470
      8  C          5.9300    1.1520   -0.2940 C.2     1  UNL1        0.0040
      9  C          6.7140   -1.0460    0.1900 C.2     1  UNL1        0.0040
     10  C          5.5330    1.2430    1.0420 C.2     1  UNL1        0.0000
     11  C          6.3220   -0.9540    1.5110 C.2     1  UNL1        0.0000
     12  C          5.7230    0.2140    1.9300 C.2     1  UNL1        0.0000
@<TRIPOS>BOND
     1     5     4    1
     2     4     2    1
     3     3     2    2
     4     2     1    1
     5     1     6    1
     6     6     7    1
     7     7     8    2
     8     7     9    1
     9     8    10    1
    10     9    11    2
    11    10    12    2
    12    11    12    1
