@<TRIPOS>MOLECULE
/home/cewinharhar/GITHUB/reincatalyze/data/processed/docking_pred/2023_Apr_20-15:07/b58c38953477011b0b30fd8623da0ee842eab33b_ligand_2.pdbqt
 12 12 0 0 0
SMALL
GASTEIGER

@<TRIPOS>ATOM
      1  C          8.4530   -0.6260   -2.1590 C.3     1  UNL1        0.1270
      2  C          8.4030   -1.9040   -2.9070 C.2     1  UNL1        0.3030
      3  O          7.3070   -2.4220   -3.2390 O.2     1  UNL1       -0.2520
      4  O          9.5670   -2.5660   -3.2600 O.3     1  UNL1       -0.4810
      5  H          9.5700   -3.1690   -4.0880 H       1  UNL1        0.2960
      6  C          7.0610   -0.0770   -2.0710 C.3     1  UNL1        0.0470
      7  C          6.5620    0.0610   -0.7040 C.2     1  UNL1       -0.0470
      8  C          6.7190   -0.9570    0.2080 C.2     1  UNL1        0.0040
      9  C          5.9320    1.2260   -0.3340 C.2     1  UNL1        0.0040
     10  C          6.2190   -0.7550    1.4970 C.2     1  UNL1        0.0000
     11  C          5.4370    1.4240    0.9400 C.2     1  UNL1        0.0000
     12  C          5.5900    0.4090    1.8600 C.2     1  UNL1        0.0000
@<TRIPOS>BOND
     1     5     4    1
     2     4     2    1
     3     3     2    2
     4     2     1    1
     5     1     6    1
     6     6     7    1
     7     7     9    2
     8     7     8    1
     9     9    11    1
    10     8    10    2
    11    11    12    2
    12    10    12    1
