@<TRIPOS>MOLECULE
/home/cewinharhar/GITHUB/reincatalyze/data/processed/docking_pred/2023_Apr_20-15:07/b58c38953477011b0b30fd8623da0ee842eab33b_ligand_2.pdbqt
 12 12 0 0 0
SMALL
GASTEIGER

@<TRIPOS>ATOM
      1  C          5.3940    2.9200    0.0910 C.3     1  UNL1        0.1270
      2  C          6.2300    3.8840    0.8440 C.2     1  UNL1        0.3030
      3  O          6.8920    4.7730    0.2530 O.2     1  UNL1       -0.2520
      4  O          6.3040    3.8310    2.2270 O.3     1  UNL1       -0.4810
      5  H          6.7890    3.0480    2.6730 H       1  UNL1        0.2960
      6  C          5.3990    1.6160    0.8280 C.3     1  UNL1        0.0470
      7  C          6.1200    0.5460    0.1400 C.2     1  UNL1       -0.0470
      8  C          6.2060    0.5270   -1.2330 C.2     1  UNL1        0.0040
      9  C          6.7170   -0.4470    0.8820 C.2     1  UNL1        0.0040
     10  C          6.9110   -0.5240   -1.8230 C.2     1  UNL1        0.0000
     11  C          7.4130   -1.4850    0.2960 C.2     1  UNL1        0.0000
     12  C          7.5040   -1.5130   -1.0780 C.2     1  UNL1        0.0000
@<TRIPOS>BOND
     1    10     8    1
     2    10    12    2
     3     8     7    2
     4    12    11    1
     5     1     6    1
     6     1     2    1
     7     7     6    1
     8     7     9    1
     9     3     2    2
    10    11     9    2
    11     2     4    1
    12     4     5    1
