@<TRIPOS>MOLECULE
/home/cewinharhar/GITHUB/reincatalyze/data/processed/docking_pred/2023_Apr_20-15:07/b58c38953477011b0b30fd8623da0ee842eab33b_ligand_2.pdbqt
 12 12 0 0 0
SMALL
GASTEIGER

@<TRIPOS>ATOM
      1  C          8.4280   -1.0010    0.7050 C.3     1  UNL1        0.1270
      2  C          7.9950   -2.4000    0.9350 C.2     1  UNL1        0.3030
      3  O          8.7660   -3.3650    0.7130 O.2     1  UNL1       -0.2520
      4  O          6.7210   -2.6810    1.4030 O.3     1  UNL1       -0.4810
      5  H          5.9430   -2.0720    1.1340 H       1  UNL1        0.2960
      6  C          7.7690   -0.5040   -0.5460 C.3     1  UNL1        0.0470
      7  C          6.8400    0.6030   -0.3280 C.2     1  UNL1       -0.0470
      8  C          5.9230    0.9510   -1.2930 C.2     1  UNL1        0.0040
      9  C          6.8900    1.2990    0.8580 C.2     1  UNL1        0.0040
     10  C          5.0660    2.0190   -1.0170 C.2     1  UNL1        0.0000
     11  C          6.0420    2.3540    1.1290 C.2     1  UNL1        0.0000
     12  C          5.1210    2.7100    0.1680 C.2     1  UNL1        0.0000
@<TRIPOS>BOND
     1     8    10    1
     2     8     7    2
     3    10    12    2
     4     6     7    1
     5     6     1    1
     6     7     9    1
     7    12    11    1
     8     1     2    1
     9     3     2    2
    10     9    11    2
    11     2     4    1
    12     5     4    1
