@<TRIPOS>MOLECULE
/home/cewinharhar/GITHUB/reincatalyze/data/processed/docking_pred/2023_Apr_20-15:07/b58c38953477011b0b30fd8623da0ee842eab33b_ligand_2.pdbqt
 12 12 0 0 0
SMALL
GASTEIGER

@<TRIPOS>ATOM
      1  C          5.3320    2.9420    0.0870 C.3     1  UNL1        0.1270
      2  C          6.2940    3.7840    0.8370 C.2     1  UNL1        0.3030
      3  O          6.8490    4.7740    0.3000 O.2     1  UNL1       -0.2520
      4  O          6.6090    3.4990    2.1560 O.3     1  UNL1       -0.4810
      5  H          6.2180    4.0820    2.9010 H       1  UNL1        0.2960
      6  C          5.1940    1.6330    0.8030 C.3     1  UNL1        0.0470
      7  C          5.9860    0.5500    0.2210 C.2     1  UNL1       -0.0470
      8  C          6.4010   -0.5100    0.9920 C.2     1  UNL1        0.0040
      9  C          6.3120    0.6000   -1.1140 C.2     1  UNL1        0.0040
     10  C          7.1530   -1.5090    0.3690 C.2     1  UNL1        0.0000
     11  C          7.0550   -0.3880   -1.7280 C.2     1  UNL1        0.0000
     12  C          7.4760   -1.4530   -0.9630 C.2     1  UNL1        0.0000
@<TRIPOS>BOND
     1    11     9    1
     2    11    12    2
     3     9     7    2
     4    12    10    1
     5     1     6    1
     6     1     2    1
     7     7     6    1
     8     7     8    1
     9     3     2    2
    10    10     8    2
    11     2     4    1
    12     4     5    1
