MODEL 1
REMARK VINA RESULT:      -7.3      0.000      0.000
REMARK SMILES O=C(O)CCc1ccccc1
REMARK SMILES IDX 4 1 2 2 1 3 3 4 5 6 6 7 7 8 11 9 8 10 10 11 9 12
REMARK H PARENT 3 5
REMARK Flexibility Score: inf
ROOT
ATOM      1  C   UNL     1       8.406  -0.586  -2.225  1.00  0.00     0.127 C 
ENDROOT
BRANCH   1   2
ATOM      2  C   UNL     1       8.461  -1.890  -2.927  1.00  0.00     0.303 C 
ATOM      3  O   UNL     1       9.550  -2.492  -3.096  1.00  0.00    -0.252 OA
BRANCH   2   4
ATOM      4  O   UNL     1       7.309  -2.482  -3.418  1.00  0.00    -0.481 OA
ATOM      5  H   UNL     1       7.123  -2.458  -4.424  1.00  0.00     0.296 HD
ENDBRANCH   2   4
ENDBRANCH   1   2
BRANCH   1   6
ATOM      6  C   UNL     1       6.968  -0.186  -2.088  1.00  0.00     0.047 C 
BRANCH   6   7
ATOM      7  C   UNL     1       6.527  -0.018  -0.704  1.00  0.00    -0.047 A 
ATOM      8  C   UNL     1       5.930   1.152  -0.294  1.00  0.00     0.004 A 
ATOM      9  C   UNL     1       6.714  -1.046   0.190  1.00  0.00     0.004 A 
ATOM     10  C   UNL     1       5.533   1.243   1.042  1.00  0.00     0.000 A 
ATOM     11  C   UNL     1       6.322  -0.954   1.511  1.00  0.00     0.000 A 
ATOM     12  C   UNL     1       5.723   0.214   1.930  1.00  0.00     0.000 A 
ENDBRANCH   6   7
ENDBRANCH   1   6
TORSDOF 4
ENDMDL
MODEL 2
REMARK VINA RESULT:      -7.1      0.162      1.735
REMARK SMILES O=C(O)CCc1ccccc1
REMARK SMILES IDX 4 1 2 2 1 3 3 4 5 6 6 7 7 8 11 9 8 10 10 11 9 12
REMARK H PARENT 3 5
REMARK Flexibility Score: inf
ROOT
ATOM      1  C   UNL     1       8.453  -0.626  -2.159  1.00  0.00     0.127 C 
ENDROOT
BRANCH   1   2
ATOM      2  C   UNL     1       8.403  -1.904  -2.907  1.00  0.00     0.303 C 
ATOM      3  O   UNL     1       7.307  -2.422  -3.239  1.00  0.00    -0.252 OA
BRANCH   2   4
ATOM      4  O   UNL     1       9.567  -2.566  -3.260  1.00  0.00    -0.481 OA
ATOM      5  H   UNL     1       9.570  -3.169  -4.088  1.00  0.00     0.296 HD
ENDBRANCH   2   4
ENDBRANCH   1   2
BRANCH   1   6
ATOM      6  C   UNL     1       7.061  -0.077  -2.071  1.00  0.00     0.047 C 
BRANCH   6   7
ATOM      7  C   UNL     1       6.562   0.061  -0.704  1.00  0.00    -0.047 A 
ATOM      8  C   UNL     1       6.719  -0.957   0.208  1.00  0.00     0.004 A 
ATOM      9  C   UNL     1       5.932   1.226  -0.334  1.00  0.00     0.004 A 
ATOM     10  C   UNL     1       6.219  -0.755   1.497  1.00  0.00     0.000 A 
ATOM     11  C   UNL     1       5.437   1.424   0.940  1.00  0.00     0.000 A 
ATOM     12  C   UNL     1       5.590   0.409   1.860  1.00  0.00     0.000 A 
ENDBRANCH   6   7
ENDBRANCH   1   6
TORSDOF 4
ENDMDL
MODEL 3
REMARK VINA RESULT:      -6.6      3.762      4.973
REMARK SMILES O=C(O)CCc1ccccc1
REMARK SMILES IDX 4 1 2 2 1 3 3 4 5 6 6 7 7 8 11 9 8 10 10 11 9 12
REMARK H PARENT 3 5
REMARK Flexibility Score: inf
ROOT
ATOM      1  C   UNL     1       5.394   2.920   0.091  1.00  0.00     0.127 C 
ENDROOT
BRANCH   1   2
ATOM      2  C   UNL     1       6.230   3.884   0.844  1.00  0.00     0.303 C 
ATOM      3  O   UNL     1       6.892   4.773   0.253  1.00  0.00    -0.252 OA
BRANCH   2   4
ATOM      4  O   UNL     1       6.304   3.831   2.227  1.00  0.00    -0.481 OA
ATOM      5  H   UNL     1       6.789   3.048   2.673  1.00  0.00     0.296 HD
ENDBRANCH   2   4
ENDBRANCH   1   2
BRANCH   1   6
ATOM      6  C   UNL     1       5.399   1.616   0.828  1.00  0.00     0.047 C 
BRANCH   6   7
ATOM      7  C   UNL     1       6.120   0.546   0.140  1.00  0.00    -0.047 A 
ATOM      8  C   UNL     1       6.206   0.527  -1.233  1.00  0.00     0.004 A 
ATOM      9  C   UNL     1       6.717  -0.447   0.882  1.00  0.00     0.004 A 
ATOM     10  C   UNL     1       6.911  -0.524  -1.823  1.00  0.00     0.000 A 
ATOM     11  C   UNL     1       7.413  -1.485   0.296  1.00  0.00     0.000 A 
ATOM     12  C   UNL     1       7.504  -1.513  -1.078  1.00  0.00     0.000 A 
ENDBRANCH   6   7
ENDBRANCH   1   6
TORSDOF 4
ENDMDL
MODEL 4
REMARK VINA RESULT:      -6.5      2.413      3.020
REMARK SMILES O=C(O)CCc1ccccc1
REMARK SMILES IDX 4 1 2 2 1 3 3 4 5 6 6 7 7 8 11 9 8 10 10 11 9 12
REMARK H PARENT 3 5
REMARK Flexibility Score: inf
ROOT
ATOM      1  C   UNL     1       8.428  -1.001   0.705  1.00  0.00     0.127 C 
ENDROOT
BRANCH   1   2
ATOM      2  C   UNL     1       7.995  -2.400   0.935  1.00  0.00     0.303 C 
ATOM      3  O   UNL     1       8.766  -3.365   0.713  1.00  0.00    -0.252 OA
BRANCH   2   4
ATOM      4  O   UNL     1       6.721  -2.681   1.403  1.00  0.00    -0.481 OA
ATOM      5  H   UNL     1       5.943  -2.072   1.134  1.00  0.00     0.296 HD
ENDBRANCH   2   4
ENDBRANCH   1   2
BRANCH   1   6
ATOM      6  C   UNL     1       7.769  -0.504  -0.546  1.00  0.00     0.047 C 
BRANCH   6   7
ATOM      7  C   UNL     1       6.840   0.603  -0.328  1.00  0.00    -0.047 A 
ATOM      8  C   UNL     1       5.923   0.951  -1.293  1.00  0.00     0.004 A 
ATOM      9  C   UNL     1       6.890   1.299   0.858  1.00  0.00     0.004 A 
ATOM     10  C   UNL     1       5.066   2.019  -1.017  1.00  0.00     0.000 A 
ATOM     11  C   UNL     1       6.042   2.354   1.129  1.00  0.00     0.000 A 
ATOM     12  C   UNL     1       5.121   2.710   0.168  1.00  0.00     0.000 A 
ENDBRANCH   6   7
ENDBRANCH   1   6
TORSDOF 4
ENDMDL
