@<TRIPOS>MOLECULE
/home/cewinharhar/GITHUB/reincatalyze/data/processed/docking_pred/2023_Apr_20-15:07/b590df4aad401e291154b1741be08749940afe84_ligand_2.pdbqt
 12 12 0 0 0
SMALL
GASTEIGER

@<TRIPOS>ATOM
      1  C          7.8240   -0.1720   -2.5170 C.3     1  UNL1        0.1270
      2  C          8.1760   -1.5690   -2.8650 C.2     1  UNL1        0.3030
      3  O          7.2950   -2.3970   -3.2060 O.2     1  UNL1       -0.2520
      4  O          9.4920   -2.0010   -2.8230 O.3     1  UNL1       -0.4810
      5  H         10.2010   -1.4050   -2.3860 H       1  UNL1        0.2960
      6  C          8.3480    0.1170   -1.1440 C.3     1  UNL1        0.0470
      7  C          7.3100    0.2140   -0.1190 C.2     1  UNL1       -0.0470
      8  C          6.3160    1.1610   -0.2120 C.2     1  UNL1        0.0040
      9  C          7.3330   -0.6570    0.9450 C.2     1  UNL1        0.0040
     10  C          5.3570    1.1960    0.8020 C.2     1  UNL1        0.0000
     11  C          6.3840   -0.6220    1.9470 C.2     1  UNL1        0.0000
     12  C          5.3850    0.3240    1.8620 C.2     1  UNL1        0.0000
@<TRIPOS>BOND
     1     3     2    2
     2     2     4    1
     3     2     1    1
     4     4     5    1
     5     1     6    1
     6     6     7    1
     7     8     7    2
     8     8    10    1
     9     7     9    1
    10    10    12    2
    11     9    11    2
    12    12    11    1
