@<TRIPOS>MOLECULE
/home/cewinharhar/GITHUB/reincatalyze/data/processed/docking_pred/2023_Apr_20-15:07/b590df4aad401e291154b1741be08749940afe84_ligand_2.pdbqt
 12 12 0 0 0
SMALL
GASTEIGER

@<TRIPOS>ATOM
      1  C          8.4400   -0.6270   -2.1200 C.3     1  UNL1        0.1270
      2  C          8.3950   -1.8930   -2.8890 C.2     1  UNL1        0.3030
      3  O          7.3020   -2.4150   -3.2190 O.2     1  UNL1       -0.2520
      4  O          9.5630   -2.5370   -3.2650 O.3     1  UNL1       -0.4810
      5  H          9.5630   -3.1240   -4.1030 H       1  UNL1        0.2960
      6  C          7.0660   -0.0300   -2.1150 C.3     1  UNL1        0.0470
      7  C          6.4900    0.1240   -0.7800 C.2     1  UNL1       -0.0470
      8  C          6.6570   -0.8520    0.1750 C.2     1  UNL1        0.0040
      9  C          5.7750    1.2610   -0.4840 C.2     1  UNL1        0.0040
     10  C          6.0790   -0.6380    1.4280 C.2     1  UNL1        0.0000
     11  C          5.2050    1.4710    0.7560 C.2     1  UNL1        0.0000
     12  C          5.3670    0.4980    1.7180 C.2     1  UNL1        0.0000
@<TRIPOS>BOND
     1     5     4    1
     2     4     2    1
     3     3     2    2
     4     2     1    1
     5     1     6    1
     6     6     7    1
     7     7     9    2
     8     7     8    1
     9     9    11    1
    10     8    10    2
    11    11    12    2
    12    10    12    1
