MODEL 1
REMARK VINA RESULT:      -7.3      0.000      0.000
REMARK SMILES O=C(O)CCc1ccccc1
REMARK SMILES IDX 4 1 2 2 1 3 3 4 5 6 6 7 7 8 11 9 8 10 10 11 9 12
REMARK H PARENT 3 5
REMARK Flexibility Score: inf
ROOT
ATOM      1  C   UNL     1       8.427  -0.580  -2.195  1.00  0.00     0.127 C 
ENDROOT
BRANCH   1   2
ATOM      2  C   UNL     1       8.478  -1.877  -2.910  1.00  0.00     0.303 C 
ATOM      3  O   UNL     1       9.564  -2.484  -3.079  1.00  0.00    -0.252 OA
BRANCH   2   4
ATOM      4  O   UNL     1       7.324  -2.457  -3.413  1.00  0.00    -0.481 OA
ATOM      5  H   UNL     1       7.162  -3.457  -3.268  1.00  0.00     0.296 HD
ENDBRANCH   2   4
ENDBRANCH   1   2
BRANCH   1   6
ATOM      6  C   UNL     1       7.001  -0.122  -2.153  1.00  0.00     0.047 C 
BRANCH   6   7
ATOM      7  C   UNL     1       6.475   0.062  -0.802  1.00  0.00    -0.047 A 
ATOM      8  C   UNL     1       5.869   1.242  -0.437  1.00  0.00     0.004 A 
ATOM      9  C   UNL     1       6.589  -0.963   0.109  1.00  0.00     0.004 A 
ATOM     10  C   UNL     1       5.389   1.348   0.870  1.00  0.00     0.000 A 
ATOM     11  C   UNL     1       6.114  -0.857   1.401  1.00  0.00     0.000 A 
ATOM     12  C   UNL     1       5.506   0.323   1.774  1.00  0.00     0.000 A 
ENDBRANCH   6   7
ENDBRANCH   1   6
TORSDOF 4
ENDMDL
MODEL 2
REMARK VINA RESULT:      -7.3      0.168      1.732
REMARK SMILES O=C(O)CCc1ccccc1
REMARK SMILES IDX 4 1 2 2 1 3 3 4 5 6 6 7 7 8 11 9 8 10 10 11 9 12
REMARK H PARENT 3 5
REMARK Flexibility Score: inf
ROOT
ATOM      1  C   UNL     1       8.440  -0.627  -2.120  1.00  0.00     0.127 C 
ENDROOT
BRANCH   1   2
ATOM      2  C   UNL     1       8.395  -1.893  -2.889  1.00  0.00     0.303 C 
ATOM      3  O   UNL     1       7.302  -2.415  -3.219  1.00  0.00    -0.252 OA
BRANCH   2   4
ATOM      4  O   UNL     1       9.563  -2.537  -3.265  1.00  0.00    -0.481 OA
ATOM      5  H   UNL     1       9.563  -3.124  -4.103  1.00  0.00     0.296 HD
ENDBRANCH   2   4
ENDBRANCH   1   2
BRANCH   1   6
ATOM      6  C   UNL     1       7.066  -0.030  -2.115  1.00  0.00     0.047 C 
BRANCH   6   7
ATOM      7  C   UNL     1       6.490   0.124  -0.780  1.00  0.00    -0.047 A 
ATOM      8  C   UNL     1       6.657  -0.852   0.175  1.00  0.00     0.004 A 
ATOM      9  C   UNL     1       5.775   1.261  -0.484  1.00  0.00     0.004 A 
ATOM     10  C   UNL     1       6.079  -0.638   1.428  1.00  0.00     0.000 A 
ATOM     11  C   UNL     1       5.205   1.471   0.756  1.00  0.00     0.000 A 
ATOM     12  C   UNL     1       5.367   0.498   1.718  1.00  0.00     0.000 A 
ENDBRANCH   6   7
ENDBRANCH   1   6
TORSDOF 4
ENDMDL
MODEL 3
REMARK VINA RESULT:      -6.8      3.375      5.078
REMARK SMILES O=C(O)CCc1ccccc1
REMARK SMILES IDX 4 1 2 2 1 3 3 4 5 6 6 7 7 8 11 9 8 10 10 11 9 12
REMARK H PARENT 3 5
REMARK Flexibility Score: inf
ROOT
ATOM      1  C   UNL     1       5.021   1.745   0.684  1.00  0.00     0.127 C 
ENDROOT
BRANCH   1   2
ATOM      2  C   UNL     1       4.495   1.095   1.908  1.00  0.00     0.303 C 
ATOM      3  O   UNL     1       5.142   0.193   2.495  1.00  0.00    -0.252 OA
BRANCH   2   4
ATOM      4  O   UNL     1       3.271   1.468   2.440  1.00  0.00    -0.481 OA
ATOM      5  H   UNL     1       2.592   0.743   2.688  1.00  0.00     0.296 HD
ENDBRANCH   2   4
ENDBRANCH   1   2
BRANCH   1   6
ATOM      6  C   UNL     1       6.518   1.715   0.741  1.00  0.00     0.047 C 
BRANCH   6   7
ATOM      7  C   UNL     1       7.139   0.966  -0.350  1.00  0.00    -0.047 A 
ATOM      8  C   UNL     1       6.419   0.037  -1.065  1.00  0.00     0.004 A 
ATOM      9  C   UNL     1       8.458   1.201  -0.660  1.00  0.00     0.004 A 
ATOM     10  C   UNL     1       7.076  -0.641  -2.095  1.00  0.00     0.000 A 
ATOM     11  C   UNL     1       9.107   0.530  -1.678  1.00  0.00     0.000 A 
ATOM     12  C   UNL     1       8.393  -0.403  -2.398  1.00  0.00     0.000 A 
ENDBRANCH   6   7
ENDBRANCH   1   6
TORSDOF 4
ENDMDL
MODEL 4
REMARK VINA RESULT:      -6.7      3.824      4.897
REMARK SMILES O=C(O)CCc1ccccc1
REMARK SMILES IDX 4 1 2 2 1 3 3 4 5 6 6 7 7 8 11 9 8 10 10 11 9 12
REMARK H PARENT 3 5
REMARK Flexibility Score: inf
ROOT
ATOM      1  C   UNL     1       5.534   2.962  -0.112  1.00  0.00     0.127 C 
ENDROOT
BRANCH   1   2
ATOM      2  C   UNL     1       6.278   3.910   0.751  1.00  0.00     0.303 C 
ATOM      3  O   UNL     1       7.047   4.772   0.259  1.00  0.00    -0.252 OA
BRANCH   2   4
ATOM      4  O   UNL     1       6.144   3.869   2.130  1.00  0.00    -0.481 OA
ATOM      5  H   UNL     1       6.849   3.379   2.687  1.00  0.00     0.296 HD
ENDBRANCH   2   4
ENDBRANCH   1   2
BRANCH   1   6
ATOM      6  C   UNL     1       4.899   1.926   0.765  1.00  0.00     0.047 C 
BRANCH   6   7
ATOM      7  C   UNL     1       5.648   0.673   0.844  1.00  0.00    -0.047 A 
ATOM      8  C   UNL     1       6.323   0.187  -0.251  1.00  0.00     0.004 A 
ATOM      9  C   UNL     1       5.675  -0.019   2.033  1.00  0.00     0.004 A 
ATOM     10  C   UNL     1       7.019  -1.015  -0.103  1.00  0.00     0.000 A 
ATOM     11  C   UNL     1       6.363  -1.207   2.178  1.00  0.00     0.000 A 
ATOM     12  C   UNL     1       7.041  -1.702   1.085  1.00  0.00     0.000 A 
ENDBRANCH   6   7
ENDBRANCH   1   6
TORSDOF 4
ENDMDL
MODEL 5
REMARK VINA RESULT:      -6.7      0.741      1.258
REMARK SMILES O=C(O)CCc1ccccc1
REMARK SMILES IDX 4 1 2 2 1 3 3 4 5 6 6 7 7 8 11 9 8 10 10 11 9 12
REMARK H PARENT 3 5
REMARK Flexibility Score: inf
ROOT
ATOM      1  C   UNL     1       7.824  -0.172  -2.517  1.00  0.00     0.127 C 
ENDROOT
BRANCH   1   2
ATOM      2  C   UNL     1       8.176  -1.569  -2.865  1.00  0.00     0.303 C 
ATOM      3  O   UNL     1       7.295  -2.397  -3.206  1.00  0.00    -0.252 OA
BRANCH   2   4
ATOM      4  O   UNL     1       9.492  -2.001  -2.823  1.00  0.00    -0.481 OA
ATOM      5  H   UNL     1      10.201  -1.405  -2.386  1.00  0.00     0.296 HD
ENDBRANCH   2   4
ENDBRANCH   1   2
BRANCH   1   6
ATOM      6  C   UNL     1       8.348   0.117  -1.144  1.00  0.00     0.047 C 
BRANCH   6   7
ATOM      7  C   UNL     1       7.310   0.214  -0.119  1.00  0.00    -0.047 A 
ATOM      8  C   UNL     1       6.316   1.161  -0.212  1.00  0.00     0.004 A 
ATOM      9  C   UNL     1       7.333  -0.657   0.945  1.00  0.00     0.004 A 
ATOM     10  C   UNL     1       5.357   1.196   0.802  1.00  0.00     0.000 A 
ATOM     11  C   UNL     1       6.384  -0.622   1.947  1.00  0.00     0.000 A 
ATOM     12  C   UNL     1       5.385   0.324   1.862  1.00  0.00     0.000 A 
ENDBRANCH   6   7
ENDBRANCH   1   6
TORSDOF 4
ENDMDL
