@<TRIPOS>MOLECULE
/home/cewinharhar/GITHUB/reincatalyze/data/processed/docking_pred/2023_Apr_20-15:07/b590df4aad401e291154b1741be08749940afe84_ligand_2.pdbqt
 12 12 0 0 0
SMALL
GASTEIGER

@<TRIPOS>ATOM
      1  C          5.5340    2.9620   -0.1120 C.3     1  UNL1        0.1270
      2  C          6.2780    3.9100    0.7510 C.2     1  UNL1        0.3030
      3  O          7.0470    4.7720    0.2590 O.2     1  UNL1       -0.2520
      4  O          6.1440    3.8690    2.1300 O.3     1  UNL1       -0.4810
      5  H          6.8490    3.3790    2.6870 H       1  UNL1        0.2960
      6  C          4.8990    1.9260    0.7650 C.3     1  UNL1        0.0470
      7  C          5.6480    0.6730    0.8440 C.2     1  UNL1       -0.0470
      8  C          6.3230    0.1870   -0.2510 C.2     1  UNL1        0.0040
      9  C          5.6750   -0.0190    2.0330 C.2     1  UNL1        0.0040
     10  C          7.0190   -1.0150   -0.1030 C.2     1  UNL1        0.0000
     11  C          6.3630   -1.2070    2.1780 C.2     1  UNL1        0.0000
     12  C          7.0410   -1.7020    1.0850 C.2     1  UNL1        0.0000
@<TRIPOS>BOND
     1     8    10    1
     2     8     7    2
     3     1     2    1
     4     1     6    1
     5    10    12    2
     6     3     2    2
     7     2     4    1
     8     6     7    1
     9     7     9    1
    10    12    11    1
    11     9    11    2
    12     4     5    1
