@<TRIPOS>MOLECULE
/home/cewinharhar/GITHUB/reincatalyze/data/processed/docking_pred/2023_Apr_20-15:07/b590df4aad401e291154b1741be08749940afe84_ligand_2.pdbqt
 12 12 0 0 0
SMALL
GASTEIGER

@<TRIPOS>ATOM
      1  C          8.4270   -0.5800   -2.1950 C.3     1  UNL1        0.1270
      2  C          8.4780   -1.8770   -2.9100 C.2     1  UNL1        0.3030
      3  O          9.5640   -2.4840   -3.0790 O.2     1  UNL1       -0.2520
      4  O          7.3240   -2.4570   -3.4130 O.3     1  UNL1       -0.4810
      5  H          7.1620   -3.4570   -3.2680 H       1  UNL1        0.2960
      6  C          7.0010   -0.1220   -2.1530 C.3     1  UNL1        0.0470
      7  C          6.4750    0.0620   -0.8020 C.2     1  UNL1       -0.0470
      8  C          5.8690    1.2420   -0.4370 C.2     1  UNL1        0.0040
      9  C          6.5890   -0.9630    0.1090 C.2     1  UNL1        0.0040
     10  C          5.3890    1.3480    0.8700 C.2     1  UNL1        0.0000
     11  C          6.1140   -0.8570    1.4010 C.2     1  UNL1        0.0000
     12  C          5.5060    0.3230    1.7740 C.2     1  UNL1        0.0000
@<TRIPOS>BOND
     1     4     5    1
     2     4     2    1
     3     3     2    2
     4     2     1    1
     5     1     6    1
     6     6     7    1
     7     7     8    2
     8     7     9    1
     9     8    10    1
    10     9    11    2
    11    10    12    2
    12    11    12    1
