@<TRIPOS>MOLECULE
/home/cewinharhar/GITHUB/reincatalyze/data/processed/docking_pred/2023_Apr_20-15:07/b590df4aad401e291154b1741be08749940afe84_ligand_2.pdbqt
 12 12 0 0 0
SMALL
GASTEIGER

@<TRIPOS>ATOM
      1  C          5.0210    1.7450    0.6840 C.3     1  UNL1        0.1270
      2  C          4.4950    1.0950    1.9080 C.2     1  UNL1        0.3030
      3  O          5.1420    0.1930    2.4950 O.2     1  UNL1       -0.2520
      4  O          3.2710    1.4680    2.4400 O.3     1  UNL1       -0.4810
      5  H          2.5920    0.7430    2.6880 H       1  UNL1        0.2960
      6  C          6.5180    1.7150    0.7410 C.3     1  UNL1        0.0470
      7  C          7.1390    0.9660   -0.3500 C.2     1  UNL1       -0.0470
      8  C          6.4190    0.0370   -1.0650 C.2     1  UNL1        0.0040
      9  C          8.4580    1.2010   -0.6600 C.2     1  UNL1        0.0040
     10  C          7.0760   -0.6410   -2.0950 C.2     1  UNL1        0.0000
     11  C          9.1070    0.5300   -1.6780 C.2     1  UNL1        0.0000
     12  C          8.3930   -0.4030   -2.3980 C.2     1  UNL1        0.0000
@<TRIPOS>BOND
     1    12    10    2
     2    12    11    1
     3    10     8    1
     4    11     9    2
     5     8     7    2
     6     9     7    1
     7     7     6    1
     8     1     6    1
     9     1     2    1
    10     2     4    1
    11     2     3    2
    12     4     5    1
