@<TRIPOS>MOLECULE
/home/cewinharhar/GITHUB/reincatalyze/data/processed/docking_pred/2023_Apr_20-15:07/b5f7d4a2d914252a6bbd971338c7ac1ea6a3e46f_ligand_2.pdbqt
 12 12 0 0 0
SMALL
GASTEIGER

@<TRIPOS>ATOM
      1  C          8.3410    0.2850   -2.0860 C.3     1  UNL1        0.1270
      2  C          9.4640    0.3890   -1.1250 C.2     1  UNL1        0.3030
      3  O          9.5340   -0.3640   -0.1220 O.2     1  UNL1       -0.2520
      4  O         10.4710    1.3230   -1.3070 O.3     1  UNL1       -0.4810
      5  H         10.8290    1.4960   -2.2510 H       1  UNL1        0.2960
      6  C          7.2510   -0.5220   -1.4500 C.3     1  UNL1        0.0470
      7  C          6.4220    0.2320   -0.5120 C.2     1  UNL1       -0.0470
      8  C          6.2040   -0.2330    0.7640 C.2     1  UNL1        0.0040
      9  C          5.8610    1.4210   -0.9170 C.2     1  UNL1        0.0040
     10  C          5.4030    0.5400    1.6080 C.2     1  UNL1        0.0000
     11  C          5.0690    2.1840   -0.0820 C.2     1  UNL1        0.0000
     12  C          4.8450    1.7250    1.1980 C.2     1  UNL1        0.0000
@<TRIPOS>BOND
     1     5     4    1
     2     1     6    1
     3     1     2    1
     4     6     7    1
     5     4     2    1
     6     2     3    2
     7     9     7    2
     8     9    11    1
     9     7     8    1
    10    11    12    2
    11     8    10    2
    12    12    10    1
