@<TRIPOS>MOLECULE
/home/cewinharhar/GITHUB/reincatalyze/data/processed/docking_pred/2023_Apr_20-15:07/b5f7d4a2d914252a6bbd971338c7ac1ea6a3e46f_ligand_2.pdbqt
 12 12 0 0 0
SMALL
GASTEIGER

@<TRIPOS>ATOM
      1  C          5.5110    2.8680   -0.1020 C.3     1  UNL1        0.1270
      2  C          6.2410    3.8440    0.7410 C.2     1  UNL1        0.3030
      3  O          6.9120    4.7740    0.2280 O.2     1  UNL1       -0.2520
      4  O          6.2030    3.7560    2.1230 O.3     1  UNL1       -0.4810
      5  H          6.8480    4.3250    2.6790 H       1  UNL1        0.2960
      6  C          4.9930    1.7760    0.7830 C.3     1  UNL1        0.0470
      7  C          5.8670    0.6060    0.8570 C.2     1  UNL1       -0.0470
      8  C          6.8090    0.3700   -0.1170 C.2     1  UNL1        0.0040
      9  C          5.7390   -0.2610    1.9170 C.2     1  UNL1        0.0040
     10  C          7.6100   -0.7670    0.0190 C.2     1  UNL1        0.0000
     11  C          6.5310   -1.3840    2.0490 C.2     1  UNL1        0.0000
     12  C          7.4770   -1.6290    1.0780 C.2     1  UNL1        0.0000
@<TRIPOS>BOND
     1     8    10    1
     2     8     7    2
     3     1     2    1
     4     1     6    1
     5    10    12    2
     6     3     2    2
     7     2     4    1
     8     6     7    1
     9     7     9    1
    10    12    11    1
    11     9    11    2
    12     4     5    1
