@<TRIPOS>MOLECULE
/home/cewinharhar/GITHUB/reincatalyze/data/processed/docking_pred/2023_Apr_20-15:07/b5f7d4a2d914252a6bbd971338c7ac1ea6a3e46f_ligand_2.pdbqt
 12 12 0 0 0
SMALL
GASTEIGER

@<TRIPOS>ATOM
      1  C          5.0560    1.7490    0.7310 C.3     1  UNL1        0.1270
      2  C          4.5910    1.0280    1.9390 C.2     1  UNL1        0.3030
      3  O          5.3000    0.1460    2.4830 O.2     1  UNL1       -0.2520
      4  O          3.3560    1.3080    2.5020 O.3     1  UNL1       -0.4810
      5  H          2.5070    0.9740    2.0380 H       1  UNL1        0.2960
      6  C          6.5540    1.7590    0.7350 C.3     1  UNL1        0.0470
      7  C          7.1570    0.9880   -0.3510 C.2     1  UNL1       -0.0470
      8  C          6.4120    0.0810   -1.0670 C.2     1  UNL1        0.0040
      9  C          8.4850    1.1810   -0.6540 C.2     1  UNL1        0.0040
     10  C          7.0530   -0.6200   -2.0910 C.2     1  UNL1        0.0000
     11  C          9.1170    0.4870   -1.6660 C.2     1  UNL1        0.0000
     12  C          8.3780   -0.4240   -2.3880 C.2     1  UNL1        0.0000
@<TRIPOS>BOND
     1    12    10    2
     2    12    11    1
     3    10     8    1
     4    11     9    2
     5     8     7    2
     6     9     7    1
     7     7     6    1
     8     1     6    1
     9     1     2    1
    10     2     3    2
    11     2     4    1
    12     5     4    1
