@<TRIPOS>MOLECULE
/home/cewinharhar/GITHUB/reincatalyze/data/processed/docking_pred/2023_Apr_20-15:07/b5f7d4a2d914252a6bbd971338c7ac1ea6a3e46f_ligand_2.pdbqt
 12 12 0 0 0
SMALL
GASTEIGER

@<TRIPOS>ATOM
      1  C          8.4340   -0.5710   -2.2230 C.3     1  UNL1        0.1270
      2  C          8.4790   -1.8820   -2.9120 C.2     1  UNL1        0.3030
      3  O          9.5630   -2.4960   -3.0720 O.2     1  UNL1       -0.2520
      4  O          7.3230   -2.4680   -3.4000 O.3     1  UNL1       -0.4810
      5  H          6.5450   -1.8720   -3.6950 H       1  UNL1        0.2960
      6  C          7.0060   -0.1190   -2.1650 C.3     1  UNL1        0.0470
      7  C          6.4870    0.0370   -0.8070 C.2     1  UNL1       -0.0470
      8  C          6.6280   -0.9690    0.1200 C.2     1  UNL1        0.0040
      9  C          5.8530    1.2090   -0.4620 C.2     1  UNL1        0.0040
     10  C          6.1090   -0.7500    1.3980 C.2     1  UNL1        0.0000
     11  C          5.3400    1.4230    0.8020 C.2     1  UNL1        0.0000
     12  C          5.4770    0.4200    1.7370 C.2     1  UNL1        0.0000
@<TRIPOS>BOND
     1     5     4    1
     2     4     2    1
     3     3     2    2
     4     2     1    1
     5     1     6    1
     6     6     7    1
     7     7     9    2
     8     7     8    1
     9     9    11    1
    10     8    10    2
    11    11    12    2
    12    10    12    1
