@<TRIPOS>MOLECULE
/home/cewinharhar/GITHUB/reincatalyze/data/processed/docking_pred/2023_Apr_20-15:07/b5f7d4a2d914252a6bbd971338c7ac1ea6a3e46f_ligand_2.pdbqt
 12 12 0 0 0
SMALL
GASTEIGER

@<TRIPOS>ATOM
      1  C          8.4160   -0.6000   -2.1860 C.3     1  UNL1        0.1270
      2  C          8.4690   -1.8890   -2.9150 C.2     1  UNL1        0.3030
      3  O          9.5560   -2.4940   -3.0890 O.2     1  UNL1       -0.2520
      4  O          7.3170   -2.4630   -3.4280 O.3     1  UNL1       -0.4810
      5  H          7.3250   -2.8360   -4.3810 H       1  UNL1        0.2960
      6  C          6.9890   -0.1430   -2.1430 C.3     1  UNL1        0.0470
      7  C          6.4650    0.0430   -0.7910 C.2     1  UNL1       -0.0470
      8  C          5.8480    1.2180   -0.4310 C.2     1  UNL1        0.0040
      9  C          6.5920   -0.9770    0.1240 C.2     1  UNL1        0.0040
     10  C          5.3700    1.3250    0.8770 C.2     1  UNL1        0.0000
     11  C          6.1190   -0.8690    1.4170 C.2     1  UNL1        0.0000
     12  C          5.5010    0.3060    1.7860 C.2     1  UNL1        0.0000
@<TRIPOS>BOND
     1     5     4    1
     2     4     2    1
     3     3     2    2
     4     2     1    1
     5     1     6    1
     6     6     7    1
     7     7     8    2
     8     7     9    1
     9     8    10    1
    10     9    11    2
    11    10    12    2
    12    11    12    1
