@<TRIPOS>MOLECULE
/home/cewinharhar/GITHUB/reincatalyze/data/processed/docking_pred/2023_Apr_20-15:07/b658f69152bbaa0d4df6d0fc1d77222c9f34aa3c_ligand_2.pdbqt
 12 12 0 0 0
SMALL
GASTEIGER

@<TRIPOS>ATOM
      1  C          8.4220   -0.5280   -2.2480 C.3     1  UNL1        0.1270
      2  C          8.4910   -1.8400   -2.9320 C.2     1  UNL1        0.3030
      3  O          9.5870   -2.4320   -3.0970 O.2     1  UNL1       -0.2520
      4  O          7.3440   -2.4530   -3.4110 O.3     1  UNL1       -0.4810
      5  H          6.5520   -1.8740   -3.7030 H       1  UNL1        0.2960
      6  C          6.9870   -0.1010   -2.1920 C.3     1  UNL1        0.0470
      7  C          6.4690    0.0680   -0.8360 C.2     1  UNL1       -0.0470
      8  C          6.6040   -0.9330    0.0980 C.2     1  UNL1        0.0040
      9  C          5.8440    1.2450   -0.4970 C.2     1  UNL1        0.0040
     10  C          6.0870   -0.7030    1.3750 C.2     1  UNL1        0.0000
     11  C          5.3320    1.4710    0.7650 C.2     1  UNL1        0.0000
     12  C          5.4630    0.4730    1.7060 C.2     1  UNL1        0.0000
@<TRIPOS>BOND
     1     5     4    1
     2     4     2    1
     3     3     2    2
     4     2     1    1
     5     1     6    1
     6     6     7    1
     7     7     9    2
     8     7     8    1
     9     9    11    1
    10     8    10    2
    11    11    12    2
    12    10    12    1
