@<TRIPOS>MOLECULE
/home/cewinharhar/GITHUB/reincatalyze/data/processed/docking_pred/2023_Apr_20-15:07/b658f69152bbaa0d4df6d0fc1d77222c9f34aa3c_ligand_2.pdbqt
 12 12 0 0 0
SMALL
GASTEIGER

@<TRIPOS>ATOM
      1  C          8.4450   -0.5940   -2.1890 C.3     1  UNL1        0.1270
      2  C          8.4860   -1.8910   -2.9050 C.2     1  UNL1        0.3030
      3  O          9.5650   -2.5130   -3.0640 O.2     1  UNL1       -0.2520
      4  O          7.3290   -2.4550   -3.4200 O.3     1  UNL1       -0.4810
      5  H          7.3100   -2.7490   -4.4010 H       1  UNL1        0.2960
      6  C          7.0230   -0.1230   -2.1500 C.3     1  UNL1        0.0470
      7  C          6.4910    0.0520   -0.8000 C.2     1  UNL1       -0.0470
      8  C          5.8740    1.2250   -0.4330 C.2     1  UNL1        0.0040
      9  C          6.6110   -0.9760    0.1070 C.2     1  UNL1        0.0040
     10  C          5.3890    1.3220    0.8730 C.2     1  UNL1        0.0000
     11  C          6.1310   -0.8790    1.3980 C.2     1  UNL1        0.0000
     12  C          5.5130    0.2940    1.7740 C.2     1  UNL1        0.0000
@<TRIPOS>BOND
     1     5     4    1
     2     4     2    1
     3     3     2    2
     4     2     1    1
     5     1     6    1
     6     6     7    1
     7     7     8    2
     8     7     9    1
     9     8    10    1
    10     9    11    2
    11    10    12    2
    12    11    12    1
