@<TRIPOS>MOLECULE
/home/cewinharhar/GITHUB/reincatalyze/data/processed/docking_pred/2023_Apr_20-15:07/b658f69152bbaa0d4df6d0fc1d77222c9f34aa3c_ligand_2.pdbqt
 12 12 0 0 0
SMALL
GASTEIGER

@<TRIPOS>ATOM
      1  C          7.3100   -1.3870   -2.1280 C.3     1  UNL1        0.1270
      2  C          8.7460   -1.3700   -2.4950 C.2     1  UNL1        0.3030
      3  O          9.2470   -2.2770   -3.2050 O.2     1  UNL1       -0.2520
      4  O          9.5770   -0.3490   -2.0620 O.3     1  UNL1       -0.4810
      5  H          9.9820    0.2920   -2.7500 H       1  UNL1        0.2960
      6  C          7.2060   -1.4110   -0.6330 C.3     1  UNL1        0.0470
      7  C          6.4390   -0.3000   -0.0730 C.2     1  UNL1       -0.0470
      8  C          5.9880   -0.3410    1.2260 C.2     1  UNL1        0.0040
      9  C          6.1710    0.7960   -0.8600 C.2     1  UNL1        0.0040
     10  C          5.2620    0.7560    1.6960 C.2     1  UNL1        0.0000
     11  C          5.4520    1.8790   -0.3950 C.2     1  UNL1        0.0000
     12  C          4.9970    1.8460    0.9050 C.2     1  UNL1        0.0000
@<TRIPOS>BOND
     1     3     2    2
     2     5     4    1
     3     2     1    1
     4     2     4    1
     5     1     6    1
     6     9    11    1
     7     9     7    2
     8     6     7    1
     9    11    12    2
    10     7     8    1
    11    12    10    1
    12     8    10    2
