MODEL 1
REMARK VINA RESULT:      -7.3      0.000      0.000
REMARK SMILES O=C(O)CCc1ccccc1
REMARK SMILES IDX 4 1 2 2 1 3 3 4 5 6 6 7 7 8 11 9 8 10 10 11 9 12
REMARK H PARENT 3 5
REMARK Flexibility Score: inf
ROOT
ATOM      1  C   UNL     1       8.445  -0.594  -2.189  1.00  0.00     0.127 C 
ENDROOT
BRANCH   1   2
ATOM      2  C   UNL     1       8.486  -1.891  -2.905  1.00  0.00     0.303 C 
ATOM      3  O   UNL     1       9.565  -2.513  -3.064  1.00  0.00    -0.252 OA
BRANCH   2   4
ATOM      4  O   UNL     1       7.329  -2.455  -3.420  1.00  0.00    -0.481 OA
ATOM      5  H   UNL     1       7.310  -2.749  -4.401  1.00  0.00     0.296 HD
ENDBRANCH   2   4
ENDBRANCH   1   2
BRANCH   1   6
ATOM      6  C   UNL     1       7.023  -0.123  -2.150  1.00  0.00     0.047 C 
BRANCH   6   7
ATOM      7  C   UNL     1       6.491   0.052  -0.800  1.00  0.00    -0.047 A 
ATOM      8  C   UNL     1       5.874   1.225  -0.433  1.00  0.00     0.004 A 
ATOM      9  C   UNL     1       6.611  -0.976   0.107  1.00  0.00     0.004 A 
ATOM     10  C   UNL     1       5.389   1.322   0.873  1.00  0.00     0.000 A 
ATOM     11  C   UNL     1       6.131  -0.879   1.398  1.00  0.00     0.000 A 
ATOM     12  C   UNL     1       5.513   0.294   1.774  1.00  0.00     0.000 A 
ENDBRANCH   6   7
ENDBRANCH   1   6
TORSDOF 4
ENDMDL
MODEL 2
REMARK VINA RESULT:      -7.3      0.114      1.441
REMARK SMILES O=C(O)CCc1ccccc1
REMARK SMILES IDX 4 1 2 2 1 3 3 4 5 6 6 7 7 8 11 9 8 10 10 11 9 12
REMARK H PARENT 3 5
REMARK Flexibility Score: inf
ROOT
ATOM      1  C   UNL     1       8.422  -0.528  -2.248  1.00  0.00     0.127 C 
ENDROOT
BRANCH   1   2
ATOM      2  C   UNL     1       8.491  -1.840  -2.932  1.00  0.00     0.303 C 
ATOM      3  O   UNL     1       9.587  -2.432  -3.097  1.00  0.00    -0.252 OA
BRANCH   2   4
ATOM      4  O   UNL     1       7.344  -2.453  -3.411  1.00  0.00    -0.481 OA
ATOM      5  H   UNL     1       6.552  -1.874  -3.703  1.00  0.00     0.296 HD
ENDBRANCH   2   4
ENDBRANCH   1   2
BRANCH   1   6
ATOM      6  C   UNL     1       6.987  -0.101  -2.192  1.00  0.00     0.047 C 
BRANCH   6   7
ATOM      7  C   UNL     1       6.469   0.068  -0.836  1.00  0.00    -0.047 A 
ATOM      8  C   UNL     1       6.604  -0.933   0.098  1.00  0.00     0.004 A 
ATOM      9  C   UNL     1       5.844   1.245  -0.497  1.00  0.00     0.004 A 
ATOM     10  C   UNL     1       6.087  -0.703   1.375  1.00  0.00     0.000 A 
ATOM     11  C   UNL     1       5.332   1.471   0.765  1.00  0.00     0.000 A 
ATOM     12  C   UNL     1       5.463   0.473   1.706  1.00  0.00     0.000 A 
ENDBRANCH   6   7
ENDBRANCH   1   6
TORSDOF 4
ENDMDL
MODEL 3
REMARK VINA RESULT:      -6.8      1.035      1.995
REMARK SMILES O=C(O)CCc1ccccc1
REMARK SMILES IDX 4 1 2 2 1 3 3 4 5 6 6 7 7 8 11 9 8 10 10 11 9 12
REMARK H PARENT 3 5
REMARK Flexibility Score: inf
ROOT
ATOM      1  C   UNL     1       7.310  -1.387  -2.128  1.00  0.00     0.127 C 
ENDROOT
BRANCH   1   2
ATOM      2  C   UNL     1       8.746  -1.370  -2.495  1.00  0.00     0.303 C 
ATOM      3  O   UNL     1       9.247  -2.277  -3.205  1.00  0.00    -0.252 OA
BRANCH   2   4
ATOM      4  O   UNL     1       9.577  -0.349  -2.062  1.00  0.00    -0.481 OA
ATOM      5  H   UNL     1       9.982   0.292  -2.750  1.00  0.00     0.296 HD
ENDBRANCH   2   4
ENDBRANCH   1   2
BRANCH   1   6
ATOM      6  C   UNL     1       7.206  -1.411  -0.633  1.00  0.00     0.047 C 
BRANCH   6   7
ATOM      7  C   UNL     1       6.439  -0.300  -0.073  1.00  0.00    -0.047 A 
ATOM      8  C   UNL     1       5.988  -0.341   1.226  1.00  0.00     0.004 A 
ATOM      9  C   UNL     1       6.171   0.796  -0.860  1.00  0.00     0.004 A 
ATOM     10  C   UNL     1       5.262   0.756   1.696  1.00  0.00     0.000 A 
ATOM     11  C   UNL     1       5.452   1.879  -0.395  1.00  0.00     0.000 A 
ATOM     12  C   UNL     1       4.997   1.846   0.905  1.00  0.00     0.000 A 
ENDBRANCH   6   7
ENDBRANCH   1   6
TORSDOF 4
ENDMDL
MODEL 4
REMARK VINA RESULT:      -6.7      3.385      5.082
REMARK SMILES O=C(O)CCc1ccccc1
REMARK SMILES IDX 4 1 2 2 1 3 3 4 5 6 6 7 7 8 11 9 8 10 10 11 9 12
REMARK H PARENT 3 5
REMARK Flexibility Score: inf
ROOT
ATOM      1  C   UNL     1       4.997   1.808   0.722  1.00  0.00     0.127 C 
ENDROOT
BRANCH   1   2
ATOM      2  C   UNL     1       4.479   1.111   1.923  1.00  0.00     0.303 C 
ATOM      3  O   UNL     1       5.136   0.196   2.479  1.00  0.00    -0.252 OA
BRANCH   2   4
ATOM      4  O   UNL     1       3.250   1.451   2.466  1.00  0.00    -0.481 OA
ATOM      5  H   UNL     1       2.441   1.554   1.848  1.00  0.00     0.296 HD
ENDBRANCH   2   4
ENDBRANCH   1   2
BRANCH   1   6
ATOM      6  C   UNL     1       6.495   1.776   0.769  1.00  0.00     0.047 C 
BRANCH   6   7
ATOM      7  C   UNL     1       7.109   1.040  -0.335  1.00  0.00    -0.047 A 
ATOM      8  C   UNL     1       6.364   0.179  -1.107  1.00  0.00     0.004 A 
ATOM      9  C   UNL     1       8.447   1.220  -0.599  1.00  0.00     0.004 A 
ATOM     10  C   UNL     1       7.016  -0.489  -2.146  1.00  0.00     0.000 A 
ATOM     11  C   UNL     1       9.090   0.558  -1.626  1.00  0.00     0.000 A 
ATOM     12  C   UNL     1       8.351  -0.307  -2.403  1.00  0.00     0.000 A 
ENDBRANCH   6   7
ENDBRANCH   1   6
TORSDOF 4
ENDMDL
MODEL 5
REMARK VINA RESULT:      -6.7      3.831      4.920
REMARK SMILES O=C(O)CCc1ccccc1
REMARK SMILES IDX 4 1 2 2 1 3 3 4 5 6 6 7 7 8 11 9 8 10 10 11 9 12
REMARK H PARENT 3 5
REMARK Flexibility Score: inf
ROOT
ATOM      1  C   UNL     1       5.451   2.898  -0.011  1.00  0.00     0.127 C 
ENDROOT
BRANCH   1   2
ATOM      2  C   UNL     1       6.235   3.867   0.792  1.00  0.00     0.303 C 
ATOM      3  O   UNL     1       6.908   4.773   0.243  1.00  0.00    -0.252 OA
BRANCH   2   4
ATOM      4  O   UNL     1       6.246   3.797   2.176  1.00  0.00    -0.481 OA
ATOM      5  H   UNL     1       5.843   2.978   2.640  1.00  0.00     0.296 HD
ENDBRANCH   2   4
ENDBRANCH   1   2
BRANCH   1   6
ATOM      6  C   UNL     1       4.930   1.837   0.910  1.00  0.00     0.047 C 
BRANCH   6   7
ATOM      7  C   UNL     1       5.730   0.613   0.918  1.00  0.00    -0.047 A 
ATOM      8  C   UNL     1       6.410   0.209  -0.207  1.00  0.00     0.004 A 
ATOM      9  C   UNL     1       5.799  -0.136   2.070  1.00  0.00     0.004 A 
ATOM     10  C   UNL     1       7.154  -0.970  -0.127  1.00  0.00     0.000 A 
ATOM     11  C   UNL     1       6.535  -1.301   2.148  1.00  0.00     0.000 A 
ATOM     12  C   UNL     1       7.219  -1.713   1.025  1.00  0.00     0.000 A 
ENDBRANCH   6   7
ENDBRANCH   1   6
TORSDOF 4
ENDMDL
