@<TRIPOS>MOLECULE
/home/cewinharhar/GITHUB/reincatalyze/data/processed/docking_pred/2023_Apr_20-15:07/b658f69152bbaa0d4df6d0fc1d77222c9f34aa3c_ligand_2.pdbqt
 12 12 0 0 0
SMALL
GASTEIGER

@<TRIPOS>ATOM
      1  C          5.4510    2.8980   -0.0110 C.3     1  UNL1        0.1270
      2  C          6.2350    3.8670    0.7920 C.2     1  UNL1        0.3030
      3  O          6.9080    4.7730    0.2430 O.2     1  UNL1       -0.2520
      4  O          6.2460    3.7970    2.1760 O.3     1  UNL1       -0.4810
      5  H          5.8430    2.9780    2.6400 H       1  UNL1        0.2960
      6  C          4.9300    1.8370    0.9100 C.3     1  UNL1        0.0470
      7  C          5.7300    0.6130    0.9180 C.2     1  UNL1       -0.0470
      8  C          6.4100    0.2090   -0.2070 C.2     1  UNL1        0.0040
      9  C          5.7990   -0.1360    2.0700 C.2     1  UNL1        0.0040
     10  C          7.1540   -0.9700   -0.1270 C.2     1  UNL1        0.0000
     11  C          6.5350   -1.3010    2.1480 C.2     1  UNL1        0.0000
     12  C          7.2190   -1.7130    1.0250 C.2     1  UNL1        0.0000
@<TRIPOS>BOND
     1     8    10    1
     2     8     7    2
     3    10    12    2
     4     1     2    1
     5     1     6    1
     6     3     2    2
     7     2     4    1
     8     6     7    1
     9     7     9    1
    10    12    11    1
    11     9    11    2
    12     4     5    1
