@<TRIPOS>MOLECULE
/home/cewinharhar/GITHUB/reincatalyze/data/processed/docking_pred/2023_Apr_20-15:07/b658f69152bbaa0d4df6d0fc1d77222c9f34aa3c_ligand_2.pdbqt
 12 12 0 0 0
SMALL
GASTEIGER

@<TRIPOS>ATOM
      1  C          4.9970    1.8080    0.7220 C.3     1  UNL1        0.1270
      2  C          4.4790    1.1110    1.9230 C.2     1  UNL1        0.3030
      3  O          5.1360    0.1960    2.4790 O.2     1  UNL1       -0.2520
      4  O          3.2500    1.4510    2.4660 O.3     1  UNL1       -0.4810
      5  H          2.4410    1.5540    1.8480 H       1  UNL1        0.2960
      6  C          6.4950    1.7760    0.7690 C.3     1  UNL1        0.0470
      7  C          7.1090    1.0400   -0.3350 C.2     1  UNL1       -0.0470
      8  C          6.3640    0.1790   -1.1070 C.2     1  UNL1        0.0040
      9  C          8.4470    1.2200   -0.5990 C.2     1  UNL1        0.0040
     10  C          7.0160   -0.4890   -2.1460 C.2     1  UNL1        0.0000
     11  C          9.0900    0.5580   -1.6260 C.2     1  UNL1        0.0000
     12  C          8.3510   -0.3070   -2.4030 C.2     1  UNL1        0.0000
@<TRIPOS>BOND
     1    12    10    2
     2    12    11    1
     3    10     8    1
     4    11     9    2
     5     8     7    2
     6     9     7    1
     7     7     6    1
     8     1     6    1
     9     1     2    1
    10     5     4    1
    11     2     4    1
    12     2     3    2
