@<TRIPOS>MOLECULE
/home/cewinharhar/GITHUB/reincatalyze/data/processed/docking_pred/2023_Apr_20-15:07/b8d8050f43b71ccf975db7ed0a80e234855f027b_ligand_2.pdbqt
 12 12 0 0 0
SMALL
GASTEIGER

@<TRIPOS>ATOM
      1  C          8.4310   -0.7930   -1.9260 C.3     1  UNL1        0.1270
      2  C          8.4630   -1.9540   -2.8470 C.2     1  UNL1        0.3030
      3  O          9.5430   -2.5230   -3.1390 O.2     1  UNL1       -0.2520
      4  O          7.2960   -2.4450   -3.4110 O.3     1  UNL1       -0.4810
      5  H          7.3550   -3.0560   -4.2300 H       1  UNL1        0.2960
      6  C          7.0700   -0.1700   -2.0020 C.3     1  UNL1        0.0470
      7  C          6.4520    0.0680   -0.6980 C.2     1  UNL1       -0.0470
      8  C          6.5210   -0.8800    0.2970 C.2     1  UNL1        0.0040
      9  C          5.7980    1.2570   -0.4720 C.2     1  UNL1        0.0040
     10  C          5.9100   -0.5840    1.5170 C.2     1  UNL1        0.0000
     11  C          5.1940    1.5470    0.7350 C.2     1  UNL1        0.0000
     12  C          5.2580    0.6030    1.7360 C.2     1  UNL1        0.0000
@<TRIPOS>BOND
     1     5     4    1
     2     4     2    1
     3     3     2    2
     4     2     1    1
     5     6     1    1
     6     6     7    1
     7     7     9    2
     8     7     8    1
     9     9    11    1
    10     8    10    2
    11    11    12    2
    12    10    12    1
