MODEL 1
REMARK VINA RESULT:      -7.4      0.000      0.000
REMARK SMILES O=C(O)CCc1ccccc1
REMARK SMILES IDX 4 1 2 2 1 3 3 4 5 6 6 7 7 8 11 9 8 10 10 11 9 12
REMARK H PARENT 3 5
REMARK Flexibility Score: inf
ROOT
ATOM      1  C   UNL     1       8.455  -0.643  -2.069  1.00  0.00     0.127 C 
ENDROOT
BRANCH   1   2
ATOM      2  C   UNL     1       8.485  -1.886  -2.876  1.00  0.00     0.303 C 
ATOM      3  O   UNL     1       9.565  -2.480  -3.116  1.00  0.00    -0.252 OA
BRANCH   2   4
ATOM      4  O   UNL     1       7.317  -2.427  -3.389  1.00  0.00    -0.481 OA
ATOM      5  H   UNL     1       6.704  -2.969  -2.774  1.00  0.00     0.296 HD
ENDBRANCH   2   4
ENDBRANCH   1   2
BRANCH   1   6
ATOM      6  C   UNL     1       7.060  -0.097  -2.097  1.00  0.00     0.047 C 
BRANCH   6   7
ATOM      7  C   UNL     1       6.475   0.108  -0.773  1.00  0.00    -0.047 A 
ATOM      8  C   UNL     1       5.810   1.273  -0.470  1.00  0.00     0.004 A 
ATOM      9  C   UNL     1       6.594  -0.883   0.174  1.00  0.00     0.004 A 
ATOM     10  C   UNL     1       5.276   1.400   0.814  1.00  0.00     0.000 A 
ATOM     11  C   UNL     1       6.066  -0.756   1.443  1.00  0.00     0.000 A 
ATOM     12  C   UNL     1       5.399   0.408   1.755  1.00  0.00     0.000 A 
ENDBRANCH   6   7
ENDBRANCH   1   6
TORSDOF 4
ENDMDL
MODEL 2
REMARK VINA RESULT:      -7.3      0.150      1.443
REMARK SMILES O=C(O)CCc1ccccc1
REMARK SMILES IDX 4 1 2 2 1 3 3 4 5 6 6 7 7 8 11 9 8 10 10 11 9 12
REMARK H PARENT 3 5
REMARK Flexibility Score: inf
ROOT
ATOM      1  C   UNL     1       8.431  -0.793  -1.926  1.00  0.00     0.127 C 
ENDROOT
BRANCH   1   2
ATOM      2  C   UNL     1       8.463  -1.954  -2.847  1.00  0.00     0.303 C 
ATOM      3  O   UNL     1       9.543  -2.523  -3.139  1.00  0.00    -0.252 OA
BRANCH   2   4
ATOM      4  O   UNL     1       7.296  -2.445  -3.411  1.00  0.00    -0.481 OA
ATOM      5  H   UNL     1       7.355  -3.056  -4.230  1.00  0.00     0.296 HD
ENDBRANCH   2   4
ENDBRANCH   1   2
BRANCH   1   6
ATOM      6  C   UNL     1       7.070  -0.170  -2.002  1.00  0.00     0.047 C 
BRANCH   6   7
ATOM      7  C   UNL     1       6.452   0.068  -0.698  1.00  0.00    -0.047 A 
ATOM      8  C   UNL     1       6.521  -0.880   0.297  1.00  0.00     0.004 A 
ATOM      9  C   UNL     1       5.798   1.257  -0.472  1.00  0.00     0.004 A 
ATOM     10  C   UNL     1       5.910  -0.584   1.517  1.00  0.00     0.000 A 
ATOM     11  C   UNL     1       5.194   1.547   0.735  1.00  0.00     0.000 A 
ATOM     12  C   UNL     1       5.258   0.603   1.736  1.00  0.00     0.000 A 
ENDBRANCH   6   7
ENDBRANCH   1   6
TORSDOF 4
ENDMDL
MODEL 3
REMARK VINA RESULT:      -6.8      3.362      5.082
REMARK SMILES O=C(O)CCc1ccccc1
REMARK SMILES IDX 4 1 2 2 1 3 3 4 5 6 6 7 7 8 11 9 8 10 10 11 9 12
REMARK H PARENT 3 5
REMARK Flexibility Score: inf
ROOT
ATOM      1  C   UNL     1       4.993   1.763   0.692  1.00  0.00     0.127 C 
ENDROOT
BRANCH   1   2
ATOM      2  C   UNL     1       4.465   1.106   1.911  1.00  0.00     0.303 C 
ATOM      3  O   UNL     1       5.109   0.196   2.491  1.00  0.00    -0.252 OA
BRANCH   2   4
ATOM      4  O   UNL     1       3.243   1.478   2.446  1.00  0.00    -0.481 OA
ATOM      5  H   UNL     1       2.905   1.015   3.294  1.00  0.00     0.296 HD
ENDBRANCH   2   4
ENDBRANCH   1   2
BRANCH   1   6
ATOM      6  C   UNL     1       6.490   1.733   0.751  1.00  0.00     0.047 C 
BRANCH   6   7
ATOM      7  C   UNL     1       7.112   0.967  -0.327  1.00  0.00    -0.047 A 
ATOM      8  C   UNL     1       6.404   0.002  -1.004  1.00  0.00     0.004 A 
ATOM      9  C   UNL     1       8.422   1.224  -0.663  1.00  0.00     0.004 A 
ATOM     10  C   UNL     1       7.062  -0.690  -2.023  1.00  0.00     0.000 A 
ATOM     11  C   UNL     1       9.071   0.539  -1.671  1.00  0.00     0.000 A 
ATOM     12  C   UNL     1       8.368  -0.431  -2.354  1.00  0.00     0.000 A 
ENDBRANCH   6   7
ENDBRANCH   1   6
TORSDOF 4
ENDMDL
MODEL 4
REMARK VINA RESULT:      -6.7      1.970      2.680
REMARK SMILES O=C(O)CCc1ccccc1
REMARK SMILES IDX 4 1 2 2 1 3 3 4 5 6 6 7 7 8 11 9 8 10 10 11 9 12
REMARK H PARENT 3 5
REMARK Flexibility Score: inf
ROOT
ATOM      1  C   UNL     1       8.322   0.308  -2.059  1.00  0.00     0.127 C 
ENDROOT
BRANCH   1   2
ATOM      2  C   UNL     1       9.458   0.377  -1.109  1.00  0.00     0.303 C 
ATOM      3  O   UNL     1       9.518  -0.383  -0.111  1.00  0.00    -0.252 OA
BRANCH   2   4
ATOM      4  O   UNL     1      10.487   1.285  -1.298  1.00  0.00    -0.481 OA
ATOM      5  H   UNL     1      10.870   1.783  -0.490  1.00  0.00     0.296 HD
ENDBRANCH   2   4
ENDBRANCH   1   2
BRANCH   1   6
ATOM      6  C   UNL     1       7.234  -0.510  -1.433  1.00  0.00     0.047 C 
BRANCH   6   7
ATOM      7  C   UNL     1       6.405   0.230  -0.484  1.00  0.00    -0.047 A 
ATOM      8  C   UNL     1       6.175  -0.261   0.781  1.00  0.00     0.004 A 
ATOM      9  C   UNL     1       5.854   1.430  -0.867  1.00  0.00     0.004 A 
ATOM     10  C   UNL     1       5.374   0.500   1.636  1.00  0.00     0.000 A 
ATOM     11  C   UNL     1       5.062   2.181  -0.021  1.00  0.00     0.000 A 
ATOM     12  C   UNL     1       4.827   1.696   1.248  1.00  0.00     0.000 A 
ENDBRANCH   6   7
ENDBRANCH   1   6
TORSDOF 4
ENDMDL
MODEL 5
REMARK VINA RESULT:      -6.6      3.691      5.086
REMARK SMILES O=C(O)CCc1ccccc1
REMARK SMILES IDX 4 1 2 2 1 3 3 4 5 6 6 7 7 8 11 9 8 10 10 11 9 12
REMARK H PARENT 3 5
REMARK Flexibility Score: inf
ROOT
ATOM      1  C   UNL     1       5.329   2.931   0.069  1.00  0.00     0.127 C 
ENDROOT
BRANCH   1   2
ATOM      2  C   UNL     1       6.215   3.833   0.841  1.00  0.00     0.303 C 
ATOM      3  O   UNL     1       6.857   4.753   0.277  1.00  0.00    -0.252 OA
BRANCH   2   4
ATOM      4  O   UNL     1       6.359   3.685   2.211  1.00  0.00    -0.481 OA
ATOM      5  H   UNL     1       6.337   4.516   2.810  1.00  0.00     0.296 HD
ENDBRANCH   2   4
ENDBRANCH   1   2
BRANCH   1   6
ATOM      6  C   UNL     1       5.228   1.628   0.803  1.00  0.00     0.047 C 
BRANCH   6   7
ATOM      7  C   UNL     1       6.013   0.548   0.208  1.00  0.00    -0.047 A 
ATOM      8  C   UNL     1       6.418  -0.527   0.965  1.00  0.00     0.004 A 
ATOM      9  C   UNL     1       6.343   0.615  -1.126  1.00  0.00     0.004 A 
ATOM     10  C   UNL     1       7.163  -1.522   0.330  1.00  0.00     0.000 A 
ATOM     11  C   UNL     1       7.081  -0.370  -1.752  1.00  0.00     0.000 A 
ATOM     12  C   UNL     1       7.491  -1.450  -1.001  1.00  0.00     0.000 A 
ENDBRANCH   6   7
ENDBRANCH   1   6
TORSDOF 4
ENDMDL
