@<TRIPOS>MOLECULE
/home/cewinharhar/GITHUB/reincatalyze/data/processed/docking_pred/2023_Apr_20-15:07/b8d8050f43b71ccf975db7ed0a80e234855f027b_ligand_2.pdbqt
 12 12 0 0 0
SMALL
GASTEIGER

@<TRIPOS>ATOM
      1  C          4.9930    1.7630    0.6920 C.3     1  UNL1        0.1270
      2  C          4.4650    1.1060    1.9110 C.2     1  UNL1        0.3030
      3  O          5.1090    0.1960    2.4910 O.2     1  UNL1       -0.2520
      4  O          3.2430    1.4780    2.4460 O.3     1  UNL1       -0.4810
      5  H          2.9050    1.0150    3.2940 H       1  UNL1        0.2960
      6  C          6.4900    1.7330    0.7510 C.3     1  UNL1        0.0470
      7  C          7.1120    0.9670   -0.3270 C.2     1  UNL1       -0.0470
      8  C          6.4040    0.0020   -1.0040 C.2     1  UNL1        0.0040
      9  C          8.4220    1.2240   -0.6630 C.2     1  UNL1        0.0040
     10  C          7.0620   -0.6900   -2.0230 C.2     1  UNL1        0.0000
     11  C          9.0710    0.5390   -1.6710 C.2     1  UNL1        0.0000
     12  C          8.3680   -0.4310   -2.3540 C.2     1  UNL1        0.0000
@<TRIPOS>BOND
     1    12    10    2
     2    12    11    1
     3    10     8    1
     4    11     9    2
     5     8     7    2
     6     9     7    1
     7     7     6    1
     8     1     6    1
     9     1     2    1
    10     2     4    1
    11     2     3    2
    12     4     5    1
