@<TRIPOS>MOLECULE
/home/cewinharhar/GITHUB/reincatalyze/data/processed/docking_pred/2023_Apr_20-15:07/b8d8050f43b71ccf975db7ed0a80e234855f027b_ligand_2.pdbqt
 12 12 0 0 0
SMALL
GASTEIGER

@<TRIPOS>ATOM
      1  C          8.3220    0.3080   -2.0590 C.3     1  UNL1        0.1270
      2  C          9.4580    0.3770   -1.1090 C.2     1  UNL1        0.3030
      3  O          9.5180   -0.3830   -0.1110 O.2     1  UNL1       -0.2520
      4  O         10.4870    1.2850   -1.2980 O.3     1  UNL1       -0.4810
      5  H         10.8700    1.7830   -0.4900 H       1  UNL1        0.2960
      6  C          7.2340   -0.5100   -1.4330 C.3     1  UNL1        0.0470
      7  C          6.4050    0.2300   -0.4840 C.2     1  UNL1       -0.0470
      8  C          6.1750   -0.2610    0.7810 C.2     1  UNL1        0.0040
      9  C          5.8540    1.4300   -0.8670 C.2     1  UNL1        0.0040
     10  C          5.3740    0.5000    1.6360 C.2     1  UNL1        0.0000
     11  C          5.0620    2.1810   -0.0210 C.2     1  UNL1        0.0000
     12  C          4.8270    1.6960    1.2480 C.2     1  UNL1        0.0000
@<TRIPOS>BOND
     1     1     6    1
     2     1     2    1
     3     6     7    1
     4     4     2    1
     5     4     5    1
     6     2     3    2
     7     9     7    2
     8     9    11    1
     9     7     8    1
    10    11    12    2
    11     8    10    2
    12    12    10    1
