@<TRIPOS>MOLECULE
/home/cewinharhar/GITHUB/reincatalyze/data/processed/docking_pred/2023_Apr_20-15:07/b8d8050f43b71ccf975db7ed0a80e234855f027b_ligand_2.pdbqt
 12 12 0 0 0
SMALL
GASTEIGER

@<TRIPOS>ATOM
      1  C          8.4550   -0.6430   -2.0690 C.3     1  UNL1        0.1270
      2  C          8.4850   -1.8860   -2.8760 C.2     1  UNL1        0.3030
      3  O          9.5650   -2.4800   -3.1160 O.2     1  UNL1       -0.2520
      4  O          7.3170   -2.4270   -3.3890 O.3     1  UNL1       -0.4810
      5  H          6.7040   -2.9690   -2.7740 H       1  UNL1        0.2960
      6  C          7.0600   -0.0970   -2.0970 C.3     1  UNL1        0.0470
      7  C          6.4750    0.1080   -0.7730 C.2     1  UNL1       -0.0470
      8  C          5.8100    1.2730   -0.4700 C.2     1  UNL1        0.0040
      9  C          6.5940   -0.8830    0.1740 C.2     1  UNL1        0.0040
     10  C          5.2760    1.4000    0.8140 C.2     1  UNL1        0.0000
     11  C          6.0660   -0.7560    1.4430 C.2     1  UNL1        0.0000
     12  C          5.3990    0.4080    1.7550 C.2     1  UNL1        0.0000
@<TRIPOS>BOND
     1     4     2    1
     2     4     5    1
     3     3     2    2
     4     2     1    1
     5     6     1    1
     6     6     7    1
     7     7     8    2
     8     7     9    1
     9     8    10    1
    10     9    11    2
    11    10    12    2
    12    11    12    1
