@<TRIPOS>MOLECULE
/home/cewinharhar/GITHUB/reincatalyze/data/processed/docking_pred/2023_Apr_20-15:07/b8d8050f43b71ccf975db7ed0a80e234855f027b_ligand_2.pdbqt
 12 12 0 0 0
SMALL
GASTEIGER

@<TRIPOS>ATOM
      1  C          5.3290    2.9310    0.0690 C.3     1  UNL1        0.1270
      2  C          6.2150    3.8330    0.8410 C.2     1  UNL1        0.3030
      3  O          6.8570    4.7530    0.2770 O.2     1  UNL1       -0.2520
      4  O          6.3590    3.6850    2.2110 O.3     1  UNL1       -0.4810
      5  H          6.3370    4.5160    2.8100 H       1  UNL1        0.2960
      6  C          5.2280    1.6280    0.8030 C.3     1  UNL1        0.0470
      7  C          6.0130    0.5480    0.2080 C.2     1  UNL1       -0.0470
      8  C          6.4180   -0.5270    0.9650 C.2     1  UNL1        0.0040
      9  C          6.3430    0.6150   -1.1260 C.2     1  UNL1        0.0040
     10  C          7.1630   -1.5220    0.3300 C.2     1  UNL1        0.0000
     11  C          7.0810   -0.3700   -1.7520 C.2     1  UNL1        0.0000
     12  C          7.4910   -1.4500   -1.0010 C.2     1  UNL1        0.0000
@<TRIPOS>BOND
     1    11     9    1
     2    11    12    2
     3     9     7    2
     4    12    10    1
     5     1     6    1
     6     1     2    1
     7     7     6    1
     8     7     8    1
     9     3     2    2
    10    10     8    2
    11     2     4    1
    12     4     5    1
