@<TRIPOS>MOLECULE
/home/cewinharhar/GITHUB/reincatalyze/data/processed/docking_pred/2023_Apr_20-15:07/b99eeed02ad73e34178363463c07c25b6fbf2bee_ligand_2.pdbqt
 12 12 0 0 0
SMALL
GASTEIGER

@<TRIPOS>ATOM
      1  C          6.1310   -0.8680    1.8980 C.3     1  UNL1        0.1270
      2  C          5.5670    0.4880    2.0930 C.2     1  UNL1        0.3030
      3  O          6.2500    1.5170    1.8590 O.2     1  UNL1       -0.2520
      4  O          4.2670    0.6590    2.5400 O.3     1  UNL1       -0.4810
      5  H          3.8340   -0.0710    3.1110 H       1  UNL1        0.2960
      6  C          7.5640   -0.7270    1.4820 C.3     1  UNL1        0.0470
      7  C          7.7590   -0.6550    0.0350 C.2     1  UNL1       -0.0470
      8  C          6.8610   -1.2430   -0.8250 C.2     1  UNL1        0.0040
      9  C          8.8530    0.0130   -0.4620 C.2     1  UNL1        0.0040
     10  C          7.1100   -1.1340   -2.1950 C.2     1  UNL1        0.0000
     11  C          9.0970    0.1210   -1.8170 C.2     1  UNL1        0.0000
     12  C          8.2040   -0.4670   -2.6860 C.2     1  UNL1        0.0000
@<TRIPOS>BOND
     1    12    10    2
     2    12    11    1
     3    10     8    1
     4    11     9    2
     5     8     7    2
     6     9     7    1
     7     7     6    1
     8     6     1    1
     9     3     2    2
    10     1     2    1
    11     2     4    1
    12     4     5    1
