@<TRIPOS>MOLECULE
/home/cewinharhar/GITHUB/reincatalyze/data/processed/docking_pred/2023_Apr_20-15:07/b99eeed02ad73e34178363463c07c25b6fbf2bee_ligand_2.pdbqt
 12 12 0 0 0
SMALL
GASTEIGER

@<TRIPOS>ATOM
      1  C          8.1380   -0.5190   -2.2230 C.3     1  UNL1        0.1270
      2  C          8.4160   -1.7960   -2.9220 C.2     1  UNL1        0.3030
      3  O          9.5890   -2.2290   -3.0440 O.2     1  UNL1       -0.2520
      4  O          7.3860   -2.5480   -3.4630 O.3     1  UNL1       -0.4810
      5  H          7.1760   -2.4660   -4.4620 H       1  UNL1        0.2960
      6  C          6.7140   -0.5370   -1.7590 C.3     1  UNL1        0.0470
      7  C          6.5630   -0.6260   -0.3080 C.2     1  UNL1       -0.0470
      8  C          5.8860    0.3480    0.3900 C.2     1  UNL1        0.0040
      9  C          7.1050   -1.7000    0.3590 C.2     1  UNL1        0.0040
     10  C          5.7790    0.1980    1.7740 C.2     1  UNL1        0.0000
     11  C          6.9980   -1.8470    1.7280 C.2     1  UNL1        0.0000
     12  C          6.3230   -0.8750    2.4340 C.2     1  UNL1        0.0000
@<TRIPOS>BOND
     1     5     4    1
     2     4     2    1
     3     3     2    2
     4     2     1    1
     5     1     6    1
     6     6     7    1
     7     7     9    2
     8     7     8    1
     9     9    11    1
    10     8    10    2
    11    11    12    2
    12    10    12    1
