@<TRIPOS>MOLECULE
/home/cewinharhar/GITHUB/reincatalyze/data/processed/docking_pred/2023_Apr_20-15:07/b99eeed02ad73e34178363463c07c25b6fbf2bee_ligand_2.pdbqt
 12 12 0 0 0
SMALL
GASTEIGER

@<TRIPOS>ATOM
      1  C          8.2620   -0.7580   -2.0790 C.3     1  UNL1        0.1270
      2  C          8.4100   -1.9770   -2.9090 C.2     1  UNL1        0.3030
      3  O          9.5350   -2.5040   -3.0960 O.2     1  UNL1       -0.2520
      4  O          7.3080   -2.5690   -3.5040 O.3     1  UNL1       -0.4810
      5  H          6.9540   -2.1940   -4.3880 H       1  UNL1        0.2960
      6  C          6.8320   -0.6550   -1.6460 C.3     1  UNL1        0.0470
      7  C          6.6420   -0.7310   -0.1980 C.2     1  UNL1       -0.0470
      8  C          7.1470   -1.7880    0.5230 C.2     1  UNL1        0.0040
      9  C          5.9510    0.2720    0.4420 C.2     1  UNL1        0.0040
     10  C          6.9290   -1.7940    1.9030 C.2     1  UNL1        0.0000
     11  C          5.7360    0.2640    1.8060 C.2     1  UNL1        0.0000
     12  C          6.2380   -0.7920    2.5350 C.2     1  UNL1        0.0000
@<TRIPOS>BOND
     1     5     4    1
     2     4     2    1
     3     3     2    2
     4     2     1    1
     5     1     6    1
     6     6     7    1
     7     7     9    2
     8     7     8    1
     9     9    11    1
    10     8    10    2
    11    11    12    2
    12    10    12    1
