@<TRIPOS>MOLECULE
/home/cewinharhar/GITHUB/reincatalyze/data/processed/docking_pred/2023_Apr_20-15:07/b99eeed02ad73e34178363463c07c25b6fbf2bee_ligand_2.pdbqt
 12 12 0 0 0
SMALL
GASTEIGER

@<TRIPOS>ATOM
      1  C          8.2800    0.3080   -2.0940 C.3     1  UNL1        0.1270
      2  C          9.4310    0.3570   -1.1620 C.2     1  UNL1        0.3030
      3  O          9.4870   -0.3950   -0.1570 O.2     1  UNL1       -0.2520
      4  O         10.4800    1.2360   -1.3740 O.3     1  UNL1       -0.4810
      5  H         11.3340    1.1420   -0.8170 H       1  UNL1        0.2960
      6  C          7.1970   -0.5130   -1.4630 C.3     1  UNL1        0.0470
      7  C          6.3790    0.2220   -0.5000 C.2     1  UNL1       -0.0470
      8  C          6.1550   -0.2800    0.7610 C.2     1  UNL1        0.0040
      9  C          5.8310    1.4290   -0.8670 C.2     1  UNL1        0.0040
     10  C          5.3640    0.4760    1.6290 C.2     1  UNL1        0.0000
     11  C          5.0490    2.1750   -0.0080 C.2     1  UNL1        0.0000
     12  C          4.8200    1.6790    1.2570 C.2     1  UNL1        0.0000
@<TRIPOS>BOND
     1     1     6    1
     2     1     2    1
     3     6     7    1
     4     4     2    1
     5     4     5    1
     6     2     3    2
     7     9     7    2
     8     9    11    1
     9     7     8    1
    10    11    12    2
    11     8    10    2
    12    12    10    1
