@<TRIPOS>MOLECULE
/home/cewinharhar/GITHUB/reincatalyze/data/processed/docking_pred/2023_Apr_20-15:07/b99eeed02ad73e34178363463c07c25b6fbf2bee_ligand_2.pdbqt
 12 12 0 0 0
SMALL
GASTEIGER

@<TRIPOS>ATOM
      1  C          6.1170   -0.8810    1.8280 C.3     1  UNL1        0.1270
      2  C          5.5820    0.4800    2.0670 C.2     1  UNL1        0.3030
      3  O          6.2800    1.5010    1.8530 O.2     1  UNL1       -0.2520
      4  O          4.2910    0.6620    2.5360 O.3     1  UNL1       -0.4810
      5  H          3.6980    1.3780    2.1060 H       1  UNL1        0.2960
      6  C          7.5640   -0.7590    1.4600 C.3     1  UNL1        0.0470
      7  C          7.8050   -0.6490    0.0220 C.2     1  UNL1       -0.0470
      8  C          8.9040    0.0250   -0.4580 C.2     1  UNL1        0.0040
      9  C          6.9170   -1.2310   -0.8540 C.2     1  UNL1        0.0040
     10  C          9.0700    0.0900   -1.8430 C.2     1  UNL1        0.0000
     11  C          7.0830   -1.1660   -2.2230 C.2     1  UNL1        0.0000
     12  C          8.1810   -0.4920   -2.7120 C.2     1  UNL1        0.0000
@<TRIPOS>BOND
     1    12    11    2
     2    12    10    1
     3    11     9    1
     4    10     8    2
     5     9     7    2
     6     8     7    1
     7     7     6    1
     8     6     1    1
     9     1     2    1
    10     3     2    2
    11     2     4    1
    12     5     4    1
