MODEL 1
REMARK VINA RESULT:      -7.3      0.000      0.000
REMARK SMILES O=C(O)CCc1ccccc1
REMARK SMILES IDX 4 1 2 2 1 3 3 4 5 6 6 7 7 8 11 9 8 10 10 11 9 12
REMARK H PARENT 3 5
REMARK Flexibility Score: inf
ROOT
ATOM      1  C   UNL     1       8.434  -0.600  -2.154  1.00  0.00     0.127 C 
ENDROOT
BRANCH   1   2
ATOM      2  C   UNL     1       8.478  -1.884  -2.892  1.00  0.00     0.303 C 
ATOM      3  O   UNL     1       9.562  -2.492  -3.076  1.00  0.00    -0.252 OA
BRANCH   2   4
ATOM      4  O   UNL     1       7.321  -2.451  -3.402  1.00  0.00    -0.481 OA
ATOM      5  H   UNL     1       6.719  -1.895  -4.016  1.00  0.00     0.296 HD
ENDBRANCH   2   4
ENDBRANCH   1   2
BRANCH   1   6
ATOM      6  C   UNL     1       7.016  -0.114  -2.140  1.00  0.00     0.047 C 
BRANCH   6   7
ATOM      7  C   UNL     1       6.469   0.085  -0.799  1.00  0.00    -0.047 A 
ATOM      8  C   UNL     1       5.833   1.258  -0.466  1.00  0.00     0.004 A 
ATOM      9  C   UNL     1       6.595  -0.919   0.133  1.00  0.00     0.004 A 
ATOM     10  C   UNL     1       5.334   1.379   0.834  1.00  0.00     0.000 A 
ATOM     11  C   UNL     1       6.102  -0.798   1.417  1.00  0.00     0.000 A 
ATOM     12  C   UNL     1       5.464   0.374   1.759  1.00  0.00     0.000 A 
ENDBRANCH   6   7
ENDBRANCH   1   6
TORSDOF 4
ENDMDL
MODEL 2
REMARK VINA RESULT:      -7.3      0.049      1.437
REMARK SMILES O=C(O)CCc1ccccc1
REMARK SMILES IDX 4 1 2 2 1 3 3 4 5 6 6 7 7 8 11 9 8 10 10 11 9 12
REMARK H PARENT 3 5
REMARK Flexibility Score: inf
ROOT
ATOM      1  C   UNL     1       8.432  -0.567  -2.211  1.00  0.00     0.127 C 
ENDROOT
BRANCH   1   2
ATOM      2  C   UNL     1       8.488  -1.865  -2.924  1.00  0.00     0.303 C 
ATOM      3  O   UNL     1       9.576  -2.471  -3.088  1.00  0.00    -0.252 OA
BRANCH   2   4
ATOM      4  O   UNL     1       7.337  -2.446  -3.431  1.00  0.00    -0.481 OA
ATOM      5  H   UNL     1       6.592  -1.847  -3.797  1.00  0.00     0.296 HD
ENDBRANCH   2   4
ENDBRANCH   1   2
BRANCH   1   6
ATOM      6  C   UNL     1       7.003  -0.120  -2.159  1.00  0.00     0.047 C 
BRANCH   6   7
ATOM      7  C   UNL     1       6.479   0.038  -0.803  1.00  0.00    -0.047 A 
ATOM      8  C   UNL     1       6.632  -0.960   0.131  1.00  0.00     0.004 A 
ATOM      9  C   UNL     1       5.828   1.203  -0.466  1.00  0.00     0.004 A 
ATOM     10  C   UNL     1       6.107  -0.740   1.406  1.00  0.00     0.000 A 
ATOM     11  C   UNL     1       5.310   1.418   0.795  1.00  0.00     0.000 A 
ATOM     12  C   UNL     1       5.458   0.423   1.737  1.00  0.00     0.000 A 
ENDBRANCH   6   7
ENDBRANCH   1   6
TORSDOF 4
ENDMDL
MODEL 3
REMARK VINA RESULT:      -6.8      3.366      5.042
REMARK SMILES O=C(O)CCc1ccccc1
REMARK SMILES IDX 4 1 2 2 1 3 3 4 5 6 6 7 7 8 11 9 8 10 10 11 9 12
REMARK H PARENT 3 5
REMARK Flexibility Score: inf
ROOT
ATOM      1  C   UNL     1       5.011   1.776   0.679  1.00  0.00     0.127 C 
ENDROOT
BRANCH   1   2
ATOM      2  C   UNL     1       4.503   1.109   1.900  1.00  0.00     0.303 C 
ATOM      3  O   UNL     1       5.166   0.210   2.475  1.00  0.00    -0.252 OA
BRANCH   2   4
ATOM      4  O   UNL     1       3.277   1.460   2.444  1.00  0.00    -0.481 OA
ATOM      5  H   UNL     1       2.493   0.805   2.375  1.00  0.00     0.296 HD
ENDBRANCH   2   4
ENDBRANCH   1   2
BRANCH   1   6
ATOM      6  C   UNL     1       6.508   1.791   0.739  1.00  0.00     0.047 C 
BRANCH   6   7
ATOM      7  C   UNL     1       7.154   1.046  -0.340  1.00  0.00    -0.047 A 
ATOM      8  C   UNL     1       8.486   1.237  -0.628  1.00  0.00     0.004 A 
ATOM      9  C   UNL     1       6.415   0.144  -1.069  1.00  0.00     0.004 A 
ATOM     10  C   UNL     1       9.037   0.490  -1.671  1.00  0.00     0.000 A 
ATOM     11  C   UNL     1       6.962  -0.594  -2.101  1.00  0.00     0.000 A 
ATOM     12  C   UNL     1       8.295  -0.408  -2.396  1.00  0.00     0.000 A 
ENDBRANCH   6   7
ENDBRANCH   1   6
TORSDOF 4
ENDMDL
MODEL 4
REMARK VINA RESULT:      -6.6      1.960      2.252
REMARK SMILES O=C(O)CCc1ccccc1
REMARK SMILES IDX 4 1 2 2 1 3 3 4 5 6 6 7 7 8 11 9 8 10 10 11 9 12
REMARK H PARENT 3 5
REMARK Flexibility Score: inf
ROOT
ATOM      1  C   UNL     1       8.198   0.322  -2.018  1.00  0.00     0.127 C 
ENDROOT
BRANCH   1   2
ATOM      2  C   UNL     1       9.392   0.372  -1.141  1.00  0.00     0.303 C 
ATOM      3  O   UNL     1       9.506  -0.392  -0.151  1.00  0.00    -0.252 OA
BRANCH   2   4
ATOM      4  O   UNL     1      10.419   1.268  -1.391  1.00  0.00    -0.481 OA
ATOM      5  H   UNL     1      10.301   2.251  -1.129  1.00  0.00     0.296 HD
ENDBRANCH   2   4
ENDBRANCH   1   2
BRANCH   1   6
ATOM      6  C   UNL     1       7.172  -0.554  -1.366  1.00  0.00     0.047 C 
BRANCH   6   7
ATOM      7  C   UNL     1       6.363   0.128  -0.357  1.00  0.00    -0.047 A 
ATOM      8  C   UNL     1       5.810   1.360  -0.614  1.00  0.00     0.004 A 
ATOM      9  C   UNL     1       6.157  -0.480   0.860  1.00  0.00     0.004 A 
ATOM     10  C   UNL     1       5.048   1.952   0.396  1.00  0.00     0.000 A 
ATOM     11  C   UNL     1       5.403   0.107   1.857  1.00  0.00     0.000 A 
ATOM     12  C   UNL     1       4.846   1.343   1.608  1.00  0.00     0.000 A 
ENDBRANCH   6   7
ENDBRANCH   1   6
TORSDOF 4
ENDMDL
MODEL 5
REMARK VINA RESULT:      -6.5      3.696      5.108
REMARK SMILES O=C(O)CCc1ccccc1
REMARK SMILES IDX 4 1 2 2 1 3 3 4 5 6 6 7 7 8 11 9 8 10 10 11 9 12
REMARK H PARENT 3 5
REMARK Flexibility Score: inf
ROOT
ATOM      1  C   UNL     1       5.313   2.836   0.120  1.00  0.00     0.127 C 
ENDROOT
BRANCH   1   2
ATOM      2  C   UNL     1       6.159   3.787   0.878  1.00  0.00     0.303 C 
ATOM      3  O   UNL     1       6.248   3.724   2.130  1.00  0.00    -0.252 OA
BRANCH   2   4
ATOM      4  O   UNL     1       6.878   4.775   0.225  1.00  0.00    -0.481 OA
ATOM      5  H   UNL     1       7.307   4.566  -0.681  1.00  0.00     0.296 HD
ENDBRANCH   2   4
ENDBRANCH   1   2
BRANCH   1   6
ATOM      6  C   UNL     1       5.304   1.528   0.850  1.00  0.00     0.047 C 
BRANCH   6   7
ATOM      7  C   UNL     1       6.063   0.470   0.185  1.00  0.00    -0.047 A 
ATOM      8  C   UNL     1       6.512  -0.623   0.890  1.00  0.00     0.004 A 
ATOM      9  C   UNL     1       6.326   0.577  -1.161  1.00  0.00     0.004 A 
ATOM     10  C   UNL     1       7.231  -1.595   0.190  1.00  0.00     0.000 A 
ATOM     11  C   UNL     1       7.037  -0.384  -1.851  1.00  0.00     0.000 A 
ATOM     12  C   UNL     1       7.490  -1.482  -1.152  1.00  0.00     0.000 A 
ENDBRANCH   6   7
ENDBRANCH   1   6
TORSDOF 4
ENDMDL
