@<TRIPOS>MOLECULE
/home/cewinharhar/GITHUB/reincatalyze/data/processed/docking_pred/2023_Apr_20-15:07/b9a0748b4c4cb53be71f33acfe76cbadf25e0c0f_ligand_2.pdbqt
 12 12 0 0 0
SMALL
GASTEIGER

@<TRIPOS>ATOM
      1  C          5.0110    1.7760    0.6790 C.3     1  UNL1        0.1270
      2  C          4.5030    1.1090    1.9000 C.2     1  UNL1        0.3030
      3  O          5.1660    0.2100    2.4750 O.2     1  UNL1       -0.2520
      4  O          3.2770    1.4600    2.4440 O.3     1  UNL1       -0.4810
      5  H          2.4930    0.8050    2.3750 H       1  UNL1        0.2960
      6  C          6.5080    1.7910    0.7390 C.3     1  UNL1        0.0470
      7  C          7.1540    1.0460   -0.3400 C.2     1  UNL1       -0.0470
      8  C          8.4860    1.2370   -0.6280 C.2     1  UNL1        0.0040
      9  C          6.4150    0.1440   -1.0690 C.2     1  UNL1        0.0040
     10  C          9.0370    0.4900   -1.6710 C.2     1  UNL1        0.0000
     11  C          6.9620   -0.5940   -2.1010 C.2     1  UNL1        0.0000
     12  C          8.2950   -0.4080   -2.3960 C.2     1  UNL1        0.0000
@<TRIPOS>BOND
     1    12    11    2
     2    12    10    1
     3    11     9    1
     4    10     8    2
     5     9     7    2
     6     8     7    1
     7     7     6    1
     8     1     6    1
     9     1     2    1
    10     2     4    1
    11     2     3    2
    12     5     4    1
