@<TRIPOS>MOLECULE
/home/cewinharhar/GITHUB/reincatalyze/data/processed/docking_pred/2023_Apr_20-15:07/b9a0748b4c4cb53be71f33acfe76cbadf25e0c0f_ligand_2.pdbqt
 12 12 0 0 0
SMALL
GASTEIGER

@<TRIPOS>ATOM
      1  C          5.3130    2.8360    0.1200 C.3     1  UNL1        0.1270
      2  C          6.1590    3.7870    0.8780 C.2     1  UNL1        0.3030
      3  O          6.2480    3.7240    2.1300 O.2     1  UNL1       -0.2520
      4  O          6.8780    4.7750    0.2250 O.3     1  UNL1       -0.4810
      5  H          7.3070    4.5660   -0.6810 H       1  UNL1        0.2960
      6  C          5.3040    1.5280    0.8500 C.3     1  UNL1        0.0470
      7  C          6.0630    0.4700    0.1850 C.2     1  UNL1       -0.0470
      8  C          6.5120   -0.6230    0.8900 C.2     1  UNL1        0.0040
      9  C          6.3260    0.5770   -1.1610 C.2     1  UNL1        0.0040
     10  C          7.2310   -1.5950    0.1900 C.2     1  UNL1        0.0000
     11  C          7.0370   -0.3840   -1.8510 C.2     1  UNL1        0.0000
     12  C          7.4900   -1.4820   -1.1520 C.2     1  UNL1        0.0000
@<TRIPOS>BOND
     1    11     9    1
     2    11    12    2
     3     9     7    2
     4    12    10    1
     5     5     4    1
     6     1     6    1
     7     1     2    1
     8     7     6    1
     9     7     8    1
    10    10     8    2
    11     4     2    1
    12     2     3    2
