@<TRIPOS>MOLECULE
/home/cewinharhar/GITHUB/reincatalyze/data/processed/docking_pred/2023_Apr_20-15:07/b9a0748b4c4cb53be71f33acfe76cbadf25e0c0f_ligand_2.pdbqt
 12 12 0 0 0
SMALL
GASTEIGER

@<TRIPOS>ATOM
      1  C          8.4340   -0.6000   -2.1540 C.3     1  UNL1        0.1270
      2  C          8.4780   -1.8840   -2.8920 C.2     1  UNL1        0.3030
      3  O          9.5620   -2.4920   -3.0760 O.2     1  UNL1       -0.2520
      4  O          7.3210   -2.4510   -3.4020 O.3     1  UNL1       -0.4810
      5  H          6.7190   -1.8950   -4.0160 H       1  UNL1        0.2960
      6  C          7.0160   -0.1140   -2.1400 C.3     1  UNL1        0.0470
      7  C          6.4690    0.0850   -0.7990 C.2     1  UNL1       -0.0470
      8  C          5.8330    1.2580   -0.4660 C.2     1  UNL1        0.0040
      9  C          6.5950   -0.9190    0.1330 C.2     1  UNL1        0.0040
     10  C          5.3340    1.3790    0.8340 C.2     1  UNL1        0.0000
     11  C          6.1020   -0.7980    1.4170 C.2     1  UNL1        0.0000
     12  C          5.4640    0.3740    1.7590 C.2     1  UNL1        0.0000
@<TRIPOS>BOND
     1     5     4    1
     2     4     2    1
     3     3     2    2
     4     2     1    1
     5     1     6    1
     6     6     7    1
     7     7     8    2
     8     7     9    1
     9     8    10    1
    10     9    11    2
    11    10    12    2
    12    11    12    1
