@<TRIPOS>MOLECULE
/home/cewinharhar/GITHUB/reincatalyze/data/processed/docking_pred/2023_Apr_20-15:07/b9a0748b4c4cb53be71f33acfe76cbadf25e0c0f_ligand_2.pdbqt
 12 12 0 0 0
SMALL
GASTEIGER

@<TRIPOS>ATOM
      1  C          8.1980    0.3220   -2.0180 C.3     1  UNL1        0.1270
      2  C          9.3920    0.3720   -1.1410 C.2     1  UNL1        0.3030
      3  O          9.5060   -0.3920   -0.1510 O.2     1  UNL1       -0.2520
      4  O         10.4190    1.2680   -1.3910 O.3     1  UNL1       -0.4810
      5  H         10.3010    2.2510   -1.1290 H       1  UNL1        0.2960
      6  C          7.1720   -0.5540   -1.3660 C.3     1  UNL1        0.0470
      7  C          6.3630    0.1280   -0.3570 C.2     1  UNL1       -0.0470
      8  C          5.8100    1.3600   -0.6140 C.2     1  UNL1        0.0040
      9  C          6.1570   -0.4800    0.8600 C.2     1  UNL1        0.0040
     10  C          5.0480    1.9520    0.3960 C.2     1  UNL1        0.0000
     11  C          5.4030    0.1070    1.8570 C.2     1  UNL1        0.0000
     12  C          4.8460    1.3430    1.6080 C.2     1  UNL1        0.0000
@<TRIPOS>BOND
     1     1     6    1
     2     1     2    1
     3     4     2    1
     4     4     5    1
     5     6     7    1
     6     2     3    2
     7     8     7    2
     8     8    10    1
     9     7     9    1
    10    10    12    2
    11     9    11    2
    12    12    11    1
