@<TRIPOS>MOLECULE
/home/cewinharhar/GITHUB/reincatalyze/data/processed/docking_pred/2023_Apr_20-15:07/b9a0748b4c4cb53be71f33acfe76cbadf25e0c0f_ligand_2.pdbqt
 12 12 0 0 0
SMALL
GASTEIGER

@<TRIPOS>ATOM
      1  C          8.4320   -0.5670   -2.2110 C.3     1  UNL1        0.1270
      2  C          8.4880   -1.8650   -2.9240 C.2     1  UNL1        0.3030
      3  O          9.5760   -2.4710   -3.0880 O.2     1  UNL1       -0.2520
      4  O          7.3370   -2.4460   -3.4310 O.3     1  UNL1       -0.4810
      5  H          6.5920   -1.8470   -3.7970 H       1  UNL1        0.2960
      6  C          7.0030   -0.1200   -2.1590 C.3     1  UNL1        0.0470
      7  C          6.4790    0.0380   -0.8030 C.2     1  UNL1       -0.0470
      8  C          6.6320   -0.9600    0.1310 C.2     1  UNL1        0.0040
      9  C          5.8280    1.2030   -0.4660 C.2     1  UNL1        0.0040
     10  C          6.1070   -0.7400    1.4060 C.2     1  UNL1        0.0000
     11  C          5.3100    1.4180    0.7950 C.2     1  UNL1        0.0000
     12  C          5.4580    0.4230    1.7370 C.2     1  UNL1        0.0000
@<TRIPOS>BOND
     1     5     4    1
     2     4     2    1
     3     3     2    2
     4     2     1    1
     5     1     6    1
     6     6     7    1
     7     7     9    2
     8     7     8    1
     9     9    11    1
    10     8    10    2
    11    11    12    2
    12    10    12    1
