MODEL 1
REMARK VINA RESULT:      -7.3      0.000      0.000
REMARK SMILES O=C(O)CCc1ccccc1
REMARK SMILES IDX 4 1 2 2 1 3 3 4 5 6 6 7 7 8 11 9 8 10 10 11 9 12
REMARK H PARENT 3 5
REMARK Flexibility Score: inf
ROOT
ATOM      1  C   UNL     1       8.455  -0.615  -2.175  1.00  0.00     0.127 C 
ENDROOT
BRANCH   1   2
ATOM      2  C   UNL     1       8.487  -1.897  -2.917  1.00  0.00     0.303 C 
ATOM      3  O   UNL     1       9.562  -2.525  -3.083  1.00  0.00    -0.252 OA
BRANCH   2   4
ATOM      4  O   UNL     1       7.328  -2.438  -3.450  1.00  0.00    -0.481 OA
ATOM      5  H   UNL     1       7.141  -2.335  -4.451  1.00  0.00     0.296 HD
ENDBRANCH   2   4
ENDBRANCH   1   2
BRANCH   1   6
ATOM      6  C   UNL     1       7.040  -0.122  -2.149  1.00  0.00     0.047 C 
BRANCH   6   7
ATOM      7  C   UNL     1       6.493   0.044  -0.803  1.00  0.00    -0.047 A 
ATOM      8  C   UNL     1       6.630  -0.949   0.139  1.00  0.00     0.004 A 
ATOM      9  C   UNL     1       5.837   1.210  -0.484  1.00  0.00     0.004 A 
ATOM     10  C   UNL     1       6.083  -0.722   1.404  1.00  0.00     0.000 A 
ATOM     11  C   UNL     1       5.296   1.433   0.767  1.00  0.00     0.000 A 
ATOM     12  C   UNL     1       5.429   0.443   1.716  1.00  0.00     0.000 A 
ENDBRANCH   6   7
ENDBRANCH   1   6
TORSDOF 4
ENDMDL
MODEL 2
REMARK VINA RESULT:      -7.2      0.618      1.068
REMARK SMILES O=C(O)CCc1ccccc1
REMARK SMILES IDX 4 1 2 2 1 3 3 4 5 6 6 7 7 8 11 9 8 10 10 11 9 12
REMARK H PARENT 3 5
REMARK Flexibility Score: inf
ROOT
ATOM      1  C   UNL     1       8.235  -0.917  -1.879  1.00  0.00     0.127 C 
ENDROOT
BRANCH   1   2
ATOM      2  C   UNL     1       8.395  -2.028  -2.847  1.00  0.00     0.303 C 
ATOM      3  O   UNL     1       9.516  -2.554  -3.054  1.00  0.00    -0.252 OA
BRANCH   2   4
ATOM      4  O   UNL     1       7.307  -2.517  -3.553  1.00  0.00    -0.481 OA
ATOM      5  H   UNL     1       6.766  -3.295  -3.164  1.00  0.00     0.296 HD
ENDBRANCH   2   4
ENDBRANCH   1   2
BRANCH   1   6
ATOM      6  C   UNL     1       7.385  -1.401  -0.744  1.00  0.00     0.047 C 
BRANCH   6   7
ATOM      7  C   UNL     1       6.563  -0.359  -0.131  1.00  0.00    -0.047 A 
ATOM      8  C   UNL     1       6.118  -0.485   1.165  1.00  0.00     0.004 A 
ATOM      9  C   UNL     1       6.238   0.758  -0.865  1.00  0.00     0.004 A 
ATOM     10  C   UNL     1       5.338   0.549   1.686  1.00  0.00     0.000 A 
ATOM     11  C   UNL     1       5.466   1.780  -0.348  1.00  0.00     0.000 A 
ATOM     12  C   UNL     1       5.015   1.661   0.949  1.00  0.00     0.000 A 
ENDBRANCH   6   7
ENDBRANCH   1   6
TORSDOF 4
ENDMDL
MODEL 3
REMARK VINA RESULT:      -6.7      3.384      5.083
REMARK SMILES O=C(O)CCc1ccccc1
REMARK SMILES IDX 4 1 2 2 1 3 3 4 5 6 6 7 7 8 11 9 8 10 10 11 9 12
REMARK H PARENT 3 5
REMARK Flexibility Score: inf
ROOT
ATOM      1  C   UNL     1       5.054   1.790   0.727  1.00  0.00     0.127 C 
ENDROOT
BRANCH   1   2
ATOM      2  C   UNL     1       4.493   1.114   1.921  1.00  0.00     0.303 C 
ATOM      3  O   UNL     1       5.118   0.190   2.499  1.00  0.00    -0.252 OA
BRANCH   2   4
ATOM      4  O   UNL     1       3.260   1.483   2.432  1.00  0.00    -0.481 OA
ATOM      5  H   UNL     1       2.543   0.768   2.578  1.00  0.00     0.296 HD
ENDBRANCH   2   4
ENDBRANCH   1   2
BRANCH   1   6
ATOM      6  C   UNL     1       6.549   1.709   0.799  1.00  0.00     0.047 C 
BRANCH   6   7
ATOM      7  C   UNL     1       7.159   0.978  -0.310  1.00  0.00    -0.047 A 
ATOM      8  C   UNL     1       8.459   1.226  -0.685  1.00  0.00     0.004 A 
ATOM      9  C   UNL     1       6.417   0.032  -0.979  1.00  0.00     0.004 A 
ATOM     10  C   UNL     1       8.977   0.489  -1.753  1.00  0.00     0.000 A 
ATOM     11  C   UNL     1       6.931  -0.695  -2.035  1.00  0.00     0.000 A 
ATOM     12  C   UNL     1       8.232  -0.453  -2.417  1.00  0.00     0.000 A 
ENDBRANCH   6   7
ENDBRANCH   1   6
TORSDOF 4
ENDMDL
MODEL 4
REMARK VINA RESULT:      -6.6      1.944      2.302
REMARK SMILES O=C(O)CCc1ccccc1
REMARK SMILES IDX 4 1 2 2 1 3 3 4 5 6 6 7 7 8 11 9 8 10 10 11 9 12
REMARK H PARENT 3 5
REMARK Flexibility Score: inf
ROOT
ATOM      1  C   UNL     1       8.247   0.137  -2.153  1.00  0.00     0.127 C 
ENDROOT
BRANCH   1   2
ATOM      2  C   UNL     1       9.377   0.330  -1.214  1.00  0.00     0.303 C 
ATOM      3  O   UNL     1       9.498  -0.381  -0.186  1.00  0.00    -0.252 OA
BRANCH   2   4
ATOM      4  O   UNL     1      10.335   1.304  -1.446  1.00  0.00    -0.481 OA
ATOM      5  H   UNL     1      11.326   1.050  -1.413  1.00  0.00     0.296 HD
ENDBRANCH   2   4
ENDBRANCH   1   2
BRANCH   1   6
ATOM      6  C   UNL     1       7.166  -0.615  -1.440  1.00  0.00     0.047 C 
BRANCH   6   7
ATOM      7  C   UNL     1       6.367   0.209  -0.534  1.00  0.00    -0.047 A 
ATOM      8  C   UNL     1       6.119  -0.202   0.756  1.00  0.00     0.004 A 
ATOM      9  C   UNL     1       5.865   1.408  -0.983  1.00  0.00     0.004 A 
ATOM     10  C   UNL     1       5.350   0.636   1.566  1.00  0.00     0.000 A 
ATOM     11  C   UNL     1       5.104   2.235  -0.181  1.00  0.00     0.000 A 
ATOM     12  C   UNL     1       4.850   1.831   1.112  1.00  0.00     0.000 A 
ENDBRANCH   6   7
ENDBRANCH   1   6
TORSDOF 4
ENDMDL
MODEL 5
REMARK VINA RESULT:      -6.6      3.680      4.962
REMARK SMILES O=C(O)CCc1ccccc1
REMARK SMILES IDX 4 1 2 2 1 3 3 4 5 6 6 7 7 8 11 9 8 10 10 11 9 12
REMARK H PARENT 3 5
REMARK Flexibility Score: inf
ROOT
ATOM      1  C   UNL     1       5.302   2.845   0.073  1.00  0.00     0.127 C 
ENDROOT
BRANCH   1   2
ATOM      2  C   UNL     1       6.162   3.763   0.857  1.00  0.00     0.303 C 
ATOM      3  O   UNL     1       6.266   3.652   2.103  1.00  0.00    -0.252 OA
BRANCH   2   4
ATOM      4  O   UNL     1       6.877   4.773   0.232  1.00  0.00    -0.481 OA
ATOM      5  H   UNL     1       7.318   5.500   0.802  1.00  0.00     0.296 HD
ENDBRANCH   2   4
ENDBRANCH   1   2
BRANCH   1   6
ATOM      6  C   UNL     1       5.241   1.531   0.790  1.00  0.00     0.047 C 
BRANCH   6   7
ATOM      7  C   UNL     1       6.044   0.478   0.172  1.00  0.00    -0.047 A 
ATOM      8  C   UNL     1       6.494  -0.590   0.913  1.00  0.00     0.004 A 
ATOM      9  C   UNL     1       6.348   0.564  -1.167  1.00  0.00     0.004 A 
ATOM     10  C   UNL     1       7.256  -1.560   0.257  1.00  0.00     0.000 A 
ATOM     11  C   UNL     1       7.102  -0.395  -1.814  1.00  0.00     0.000 A 
ATOM     12  C   UNL     1       7.556  -1.469  -1.079  1.00  0.00     0.000 A 
ENDBRANCH   6   7
ENDBRANCH   1   6
TORSDOF 4
ENDMDL
