@<TRIPOS>MOLECULE
/home/cewinharhar/GITHUB/reincatalyze/data/processed/docking_pred/2023_Apr_20-15:07/ba254a63d1f23417312e0ffefa4719b754a9a4bf_ligand_2.pdbqt
 12 12 0 0 0
SMALL
GASTEIGER

@<TRIPOS>ATOM
      1  C          8.4550   -0.6150   -2.1750 C.3     1  UNL1        0.1270
      2  C          8.4870   -1.8970   -2.9170 C.2     1  UNL1        0.3030
      3  O          9.5620   -2.5250   -3.0830 O.2     1  UNL1       -0.2520
      4  O          7.3280   -2.4380   -3.4500 O.3     1  UNL1       -0.4810
      5  H          7.1410   -2.3350   -4.4510 H       1  UNL1        0.2960
      6  C          7.0400   -0.1220   -2.1490 C.3     1  UNL1        0.0470
      7  C          6.4930    0.0440   -0.8030 C.2     1  UNL1       -0.0470
      8  C          6.6300   -0.9490    0.1390 C.2     1  UNL1        0.0040
      9  C          5.8370    1.2100   -0.4840 C.2     1  UNL1        0.0040
     10  C          6.0830   -0.7220    1.4040 C.2     1  UNL1        0.0000
     11  C          5.2960    1.4330    0.7670 C.2     1  UNL1        0.0000
     12  C          5.4290    0.4430    1.7160 C.2     1  UNL1        0.0000
@<TRIPOS>BOND
     1     5     4    1
     2     4     2    1
     3     3     2    2
     4     2     1    1
     5     1     6    1
     6     6     7    1
     7     7     9    2
     8     7     8    1
     9     9    11    1
    10     8    10    2
    11    11    12    2
    12    10    12    1
