@<TRIPOS>MOLECULE
/home/cewinharhar/GITHUB/reincatalyze/data/processed/docking_pred/2023_Apr_20-15:07/ba254a63d1f23417312e0ffefa4719b754a9a4bf_ligand_2.pdbqt
 12 12 0 0 0
SMALL
GASTEIGER

@<TRIPOS>ATOM
      1  C          5.3020    2.8450    0.0730 C.3     1  UNL1        0.1270
      2  C          6.1620    3.7630    0.8570 C.2     1  UNL1        0.3030
      3  O          6.2660    3.6520    2.1030 O.2     1  UNL1       -0.2520
      4  O          6.8770    4.7730    0.2320 O.3     1  UNL1       -0.4810
      5  H          7.3180    5.5000    0.8020 H       1  UNL1        0.2960
      6  C          5.2410    1.5310    0.7900 C.3     1  UNL1        0.0470
      7  C          6.0440    0.4780    0.1720 C.2     1  UNL1       -0.0470
      8  C          6.4940   -0.5900    0.9130 C.2     1  UNL1        0.0040
      9  C          6.3480    0.5640   -1.1670 C.2     1  UNL1        0.0040
     10  C          7.2560   -1.5600    0.2570 C.2     1  UNL1        0.0000
     11  C          7.1020   -0.3950   -1.8140 C.2     1  UNL1        0.0000
     12  C          7.5560   -1.4690   -1.0790 C.2     1  UNL1        0.0000
@<TRIPOS>BOND
     1    11     9    1
     2    11    12    2
     3     9     7    2
     4    12    10    1
     5     1     6    1
     6     1     2    1
     7     7     6    1
     8     7     8    1
     9     4     5    1
    10     4     2    1
    11    10     8    2
    12     2     3    2
