@<TRIPOS>MOLECULE
/home/cewinharhar/GITHUB/reincatalyze/data/processed/docking_pred/2023_Apr_20-15:07/ba254a63d1f23417312e0ffefa4719b754a9a4bf_ligand_2.pdbqt
 12 12 0 0 0
SMALL
GASTEIGER

@<TRIPOS>ATOM
      1  C          8.2470    0.1370   -2.1530 C.3     1  UNL1        0.1270
      2  C          9.3770    0.3300   -1.2140 C.2     1  UNL1        0.3030
      3  O          9.4980   -0.3810   -0.1860 O.2     1  UNL1       -0.2520
      4  O         10.3350    1.3040   -1.4460 O.3     1  UNL1       -0.4810
      5  H         11.3260    1.0500   -1.4130 H       1  UNL1        0.2960
      6  C          7.1660   -0.6150   -1.4400 C.3     1  UNL1        0.0470
      7  C          6.3670    0.2090   -0.5340 C.2     1  UNL1       -0.0470
      8  C          6.1190   -0.2020    0.7560 C.2     1  UNL1        0.0040
      9  C          5.8650    1.4080   -0.9830 C.2     1  UNL1        0.0040
     10  C          5.3500    0.6360    1.5660 C.2     1  UNL1        0.0000
     11  C          5.1040    2.2350   -0.1810 C.2     1  UNL1        0.0000
     12  C          4.8500    1.8310    1.1120 C.2     1  UNL1        0.0000
@<TRIPOS>BOND
     1     1     6    1
     2     1     2    1
     3     4     5    1
     4     4     2    1
     5     6     7    1
     6     2     3    2
     7     9     7    2
     8     9    11    1
     9     7     8    1
    10    11    12    2
    11     8    10    2
    12    12    10    1
