@<TRIPOS>MOLECULE
/home/cewinharhar/GITHUB/reincatalyze/data/processed/docking_pred/2023_Apr_20-15:07/ba254a63d1f23417312e0ffefa4719b754a9a4bf_ligand_2.pdbqt
 12 12 0 0 0
SMALL
GASTEIGER

@<TRIPOS>ATOM
      1  C          5.0540    1.7900    0.7270 C.3     1  UNL1        0.1270
      2  C          4.4930    1.1140    1.9210 C.2     1  UNL1        0.3030
      3  O          5.1180    0.1900    2.4990 O.2     1  UNL1       -0.2520
      4  O          3.2600    1.4830    2.4320 O.3     1  UNL1       -0.4810
      5  H          2.5430    0.7680    2.5780 H       1  UNL1        0.2960
      6  C          6.5490    1.7090    0.7990 C.3     1  UNL1        0.0470
      7  C          7.1590    0.9780   -0.3100 C.2     1  UNL1       -0.0470
      8  C          8.4590    1.2260   -0.6850 C.2     1  UNL1        0.0040
      9  C          6.4170    0.0320   -0.9790 C.2     1  UNL1        0.0040
     10  C          8.9770    0.4890   -1.7530 C.2     1  UNL1        0.0000
     11  C          6.9310   -0.6950   -2.0350 C.2     1  UNL1        0.0000
     12  C          8.2320   -0.4530   -2.4170 C.2     1  UNL1        0.0000
@<TRIPOS>BOND
     1    12    11    2
     2    12    10    1
     3    11     9    1
     4    10     8    2
     5     9     7    2
     6     8     7    1
     7     7     6    1
     8     1     6    1
     9     1     2    1
    10     2     4    1
    11     2     3    2
    12     4     5    1
