@<TRIPOS>MOLECULE
/home/cewinharhar/GITHUB/reincatalyze/data/processed/docking_pred/2023_Apr_20-15:07/ba254a63d1f23417312e0ffefa4719b754a9a4bf_ligand_2.pdbqt
 12 12 0 0 0
SMALL
GASTEIGER

@<TRIPOS>ATOM
      1  C          8.2350   -0.9170   -1.8790 C.3     1  UNL1        0.1270
      2  C          8.3950   -2.0280   -2.8470 C.2     1  UNL1        0.3030
      3  O          9.5160   -2.5540   -3.0540 O.2     1  UNL1       -0.2520
      4  O          7.3070   -2.5170   -3.5530 O.3     1  UNL1       -0.4810
      5  H          6.7660   -3.2950   -3.1640 H       1  UNL1        0.2960
      6  C          7.3850   -1.4010   -0.7440 C.3     1  UNL1        0.0470
      7  C          6.5630   -0.3590   -0.1310 C.2     1  UNL1       -0.0470
      8  C          6.1180   -0.4850    1.1650 C.2     1  UNL1        0.0040
      9  C          6.2380    0.7580   -0.8650 C.2     1  UNL1        0.0040
     10  C          5.3380    0.5490    1.6860 C.2     1  UNL1        0.0000
     11  C          5.4660    1.7800   -0.3480 C.2     1  UNL1        0.0000
     12  C          5.0150    1.6610    0.9490 C.2     1  UNL1        0.0000
@<TRIPOS>BOND
     1     4     5    1
     2     4     2    1
     3     3     2    2
     4     2     1    1
     5     1     6    1
     6     9    11    1
     7     9     7    2
     8     6     7    1
     9    11    12    2
    10     7     8    1
    11    12    10    1
    12     8    10    2
