@<TRIPOS>MOLECULE
/home/cewinharhar/GITHUB/reincatalyze/data/processed/docking_pred/2023_Apr_20-15:07/bae690ffab80532c90b6f683492bf7de3cce581e_ligand_2.pdbqt
 12 12 0 0 0
SMALL
GASTEIGER

@<TRIPOS>ATOM
      1  C          5.5250    1.4980   -0.4760 C.3     1  UNL1        0.1270
      2  C          5.3780    1.9190    0.9370 C.2     1  UNL1        0.3030
      3  O          5.0750    1.0930    1.8340 O.2     1  UNL1       -0.2520
      4  O          5.5700    3.2400    1.3080 O.3     1  UNL1       -0.4810
      5  H          5.7120    3.4670    2.2960 H       1  UNL1        0.2960
      6  C          6.3360    0.2390   -0.5100 C.3     1  UNL1        0.0470
      7  C          7.5730    0.3480   -1.2830 C.2     1  UNL1       -0.0470
      8  C          7.6070   -0.0100   -2.6100 C.2     1  UNL1        0.0040
      9  C          8.7090    0.8180   -0.6670 C.2     1  UNL1        0.0040
     10  C          8.8220    0.1220   -3.2860 C.2     1  UNL1        0.0000
     11  C          9.9100    0.9480   -1.3360 C.2     1  UNL1        0.0000
     12  C          9.9530    0.5900   -2.6670 C.2     1  UNL1        0.0000
@<TRIPOS>BOND
     1    10    12    2
     2    10     8    1
     3    12    11    1
     4     8     7    2
     5    11     9    2
     6     7     9    1
     7     7     6    1
     8     6     1    1
     9     1     2    1
    10     2     4    1
    11     2     3    2
    12     4     5    1
