@<TRIPOS>MOLECULE
/home/cewinharhar/GITHUB/reincatalyze/data/processed/docking_pred/2023_Apr_20-15:07/bae690ffab80532c90b6f683492bf7de3cce581e_ligand_2.pdbqt
 12 12 0 0 0
SMALL
GASTEIGER

@<TRIPOS>ATOM
      1  C          8.3820   -0.6040   -2.1930 C.3     1  UNL1        0.1270
      2  C          8.4910   -1.8460   -2.9930 C.2     1  UNL1        0.3030
      3  O          9.6100   -2.3440   -3.2730 O.2     1  UNL1       -0.2520
      4  O          7.3570   -2.4940   -3.4570 O.3     1  UNL1       -0.4810
      5  H          7.2370   -2.6350   -4.4630 H       1  UNL1        0.2960
      6  C          6.9300   -0.2620   -2.0500 C.3     1  UNL1        0.0470
      7  C          6.4970   -0.0750   -0.6670 C.2     1  UNL1       -0.0470
      8  C          6.6820   -1.0660    0.2680 C.2     1  UNL1        0.0040
      9  C          5.9000    1.1110   -0.3050 C.2     1  UNL1        0.0040
     10  C          6.2440   -0.8180    1.5710 C.2     1  UNL1        0.0000
     11  C          5.4670    1.3540    0.9830 C.2     1  UNL1        0.0000
     12  C          5.6480    0.3660    1.9260 C.2     1  UNL1        0.0000
@<TRIPOS>BOND
     1     5     4    1
     2     4     2    1
     3     3     2    2
     4     2     1    1
     5     1     6    1
     6     6     7    1
     7     7     9    2
     8     7     8    1
     9     9    11    1
    10     8    10    2
    11    11    12    2
    12    10    12    1
