MODEL 1
REMARK VINA RESULT:      -7.0      0.000      0.000
REMARK SMILES O=C(O)CCc1ccccc1
REMARK SMILES IDX 4 1 2 2 1 3 3 4 5 6 6 7 7 8 11 9 8 10 10 11 9 12
REMARK H PARENT 3 5
REMARK Flexibility Score: inf
ROOT
ATOM      1  C   UNL     1       8.422  -0.706  -2.103  1.00  0.00     0.127 C 
ENDROOT
BRANCH   1   2
ATOM      2  C   UNL     1       8.448  -1.954  -2.902  1.00  0.00     0.303 C 
ATOM      3  O   UNL     1       9.527  -2.553  -3.137  1.00  0.00    -0.252 OA
BRANCH   2   4
ATOM      4  O   UNL     1       7.279  -2.495  -3.413  1.00  0.00    -0.481 OA
ATOM      5  H   UNL     1       7.228  -2.726  -4.409  1.00  0.00     0.296 HD
ENDBRANCH   2   4
ENDBRANCH   1   2
BRANCH   1   6
ATOM      6  C   UNL     1       7.001  -0.240  -2.005  1.00  0.00     0.047 C 
BRANCH   6   7
ATOM      7  C   UNL     1       6.537  -0.033  -0.634  1.00  0.00    -0.047 A 
ATOM      8  C   UNL     1       5.993   1.171  -0.250  1.00  0.00     0.004 A 
ATOM      9  C   UNL     1       6.647  -1.060   0.275  1.00  0.00     0.004 A 
ATOM     10  C   UNL     1       5.570   1.298   1.075  1.00  0.00     0.000 A 
ATOM     11  C   UNL     1       6.229  -0.933   1.584  1.00  0.00     0.000 A 
ATOM     12  C   UNL     1       5.683   0.270   1.977  1.00  0.00     0.000 A 
ENDBRANCH   6   7
ENDBRANCH   1   6
TORSDOF 4
ENDMDL
MODEL 2
REMARK VINA RESULT:      -7.0      0.134      1.441
REMARK SMILES O=C(O)CCc1ccccc1
REMARK SMILES IDX 4 1 2 2 1 3 3 4 5 6 6 7 7 8 11 9 8 10 10 11 9 12
REMARK H PARENT 3 5
REMARK Flexibility Score: inf
ROOT
ATOM      1  C   UNL     1       8.382  -0.604  -2.193  1.00  0.00     0.127 C 
ENDROOT
BRANCH   1   2
ATOM      2  C   UNL     1       8.491  -1.846  -2.993  1.00  0.00     0.303 C 
ATOM      3  O   UNL     1       9.610  -2.344  -3.273  1.00  0.00    -0.252 OA
BRANCH   2   4
ATOM      4  O   UNL     1       7.357  -2.494  -3.457  1.00  0.00    -0.481 OA
ATOM      5  H   UNL     1       7.237  -2.635  -4.463  1.00  0.00     0.296 HD
ENDBRANCH   2   4
ENDBRANCH   1   2
BRANCH   1   6
ATOM      6  C   UNL     1       6.930  -0.262  -2.050  1.00  0.00     0.047 C 
BRANCH   6   7
ATOM      7  C   UNL     1       6.497  -0.075  -0.667  1.00  0.00    -0.047 A 
ATOM      8  C   UNL     1       6.682  -1.066   0.268  1.00  0.00     0.004 A 
ATOM      9  C   UNL     1       5.900   1.111  -0.305  1.00  0.00     0.004 A 
ATOM     10  C   UNL     1       6.244  -0.818   1.571  1.00  0.00     0.000 A 
ATOM     11  C   UNL     1       5.467   1.354   0.983  1.00  0.00     0.000 A 
ATOM     12  C   UNL     1       5.648   0.366   1.926  1.00  0.00     0.000 A 
ENDBRANCH   6   7
ENDBRANCH   1   6
TORSDOF 4
ENDMDL
MODEL 3
REMARK VINA RESULT:      -6.7      0.331      1.004
REMARK SMILES O=C(O)CCc1ccccc1
REMARK SMILES IDX 4 1 2 2 1 3 3 4 5 6 6 7 7 8 11 9 8 10 10 11 9 12
REMARK H PARENT 3 5
REMARK Flexibility Score: inf
ROOT
ATOM      1  C   UNL     1       8.178  -0.259  -2.367  1.00  0.00     0.127 C 
ENDROOT
BRANCH   1   2
ATOM      2  C   UNL     1       8.471  -1.606  -2.912  1.00  0.00     0.303 C 
ATOM      3  O   UNL     1       7.552  -2.435  -3.126  1.00  0.00    -0.252 OA
BRANCH   2   4
ATOM      4  O   UNL     1       9.771  -1.988  -3.201  1.00  0.00    -0.481 OA
ATOM      5  H   UNL     1       9.939  -2.677  -3.939  1.00  0.00     0.296 HD
ENDBRANCH   2   4
ENDBRANCH   1   2
BRANCH   1   6
ATOM      6  C   UNL     1       6.710  -0.177  -2.079  1.00  0.00     0.047 C 
BRANCH   6   7
ATOM      7  C   UNL     1       6.391  -0.015  -0.661  1.00  0.00    -0.047 A 
ATOM      8  C   UNL     1       5.836   1.154  -0.194  1.00  0.00     0.004 A 
ATOM      9  C   UNL     1       6.650  -1.050   0.207  1.00  0.00     0.004 A 
ATOM     10  C   UNL     1       5.556   1.239   1.171  1.00  0.00     0.000 A 
ATOM     11  C   UNL     1       6.373  -0.964   1.557  1.00  0.00     0.000 A 
ATOM     12  C   UNL     1       5.818   0.204   2.034  1.00  0.00     0.000 A 
ENDBRANCH   6   7
ENDBRANCH   1   6
TORSDOF 4
ENDMDL
MODEL 4
REMARK VINA RESULT:      -6.7      3.331      5.145
REMARK SMILES O=C(O)CCc1ccccc1
REMARK SMILES IDX 4 1 2 2 1 3 3 4 5 6 6 7 7 8 11 9 8 10 10 11 9 12
REMARK H PARENT 3 5
REMARK Flexibility Score: inf
ROOT
ATOM      1  C   UNL     1       5.581   1.494  -0.466  1.00  0.00     0.127 C 
ENDROOT
BRANCH   1   2
ATOM      2  C   UNL     1       5.455   1.885   0.958  1.00  0.00     0.303 C 
ATOM      3  O   UNL     1       5.151   1.043   1.839  1.00  0.00    -0.252 OA
BRANCH   2   4
ATOM      4  O   UNL     1       5.669   3.194   1.356  1.00  0.00    -0.481 OA
ATOM      5  H   UNL     1       4.866   3.818   1.479  1.00  0.00     0.296 HD
ENDBRANCH   2   4
ENDBRANCH   1   2
BRANCH   1   6
ATOM      6  C   UNL     1       6.388   0.233  -0.539  1.00  0.00     0.047 C 
BRANCH   6   7
ATOM      7  C   UNL     1       7.633   0.367  -1.293  1.00  0.00    -0.047 A 
ATOM      8  C   UNL     1       8.782   0.810  -0.680  1.00  0.00     0.004 A 
ATOM      9  C   UNL     1       7.647   0.041  -2.629  1.00  0.00     0.004 A 
ATOM     10  C   UNL     1       9.936   0.912  -1.462  1.00  0.00     0.000 A 
ATOM     11  C   UNL     1       8.787   0.143  -3.400  1.00  0.00     0.000 A 
ATOM     12  C   UNL     1       9.943   0.586  -2.795  1.00  0.00     0.000 A 
ENDBRANCH   6   7
ENDBRANCH   1   6
TORSDOF 4
ENDMDL
MODEL 5
REMARK VINA RESULT:      -6.6      3.342      5.137
REMARK SMILES O=C(O)CCc1ccccc1
REMARK SMILES IDX 4 1 2 2 1 3 3 4 5 6 6 7 7 8 11 9 8 10 10 11 9 12
REMARK H PARENT 3 5
REMARK Flexibility Score: inf
ROOT
ATOM      1  C   UNL     1       5.525   1.498  -0.476  1.00  0.00     0.127 C 
ENDROOT
BRANCH   1   2
ATOM      2  C   UNL     1       5.378   1.919   0.937  1.00  0.00     0.303 C 
ATOM      3  O   UNL     1       5.075   1.093   1.834  1.00  0.00    -0.252 OA
BRANCH   2   4
ATOM      4  O   UNL     1       5.570   3.240   1.308  1.00  0.00    -0.481 OA
ATOM      5  H   UNL     1       5.712   3.467   2.296  1.00  0.00     0.296 HD
ENDBRANCH   2   4
ENDBRANCH   1   2
BRANCH   1   6
ATOM      6  C   UNL     1       6.336   0.239  -0.510  1.00  0.00     0.047 C 
BRANCH   6   7
ATOM      7  C   UNL     1       7.573   0.348  -1.283  1.00  0.00    -0.047 A 
ATOM      8  C   UNL     1       7.607  -0.010  -2.610  1.00  0.00     0.004 A 
ATOM      9  C   UNL     1       8.709   0.818  -0.667  1.00  0.00     0.004 A 
ATOM     10  C   UNL     1       8.822   0.122  -3.286  1.00  0.00     0.000 A 
ATOM     11  C   UNL     1       9.910   0.948  -1.336  1.00  0.00     0.000 A 
ATOM     12  C   UNL     1       9.953   0.590  -2.667  1.00  0.00     0.000 A 
ENDBRANCH   6   7
ENDBRANCH   1   6
TORSDOF 4
ENDMDL
