@<TRIPOS>MOLECULE
/home/cewinharhar/GITHUB/reincatalyze/data/processed/docking_pred/2023_Apr_20-15:07/bae690ffab80532c90b6f683492bf7de3cce581e_ligand_2.pdbqt
 12 12 0 0 0
SMALL
GASTEIGER

@<TRIPOS>ATOM
      1  C          8.1780   -0.2590   -2.3670 C.3     1  UNL1        0.1270
      2  C          8.4710   -1.6060   -2.9120 C.2     1  UNL1        0.3030
      3  O          7.5520   -2.4350   -3.1260 O.2     1  UNL1       -0.2520
      4  O          9.7710   -1.9880   -3.2010 O.3     1  UNL1       -0.4810
      5  H          9.9390   -2.6770   -3.9390 H       1  UNL1        0.2960
      6  C          6.7100   -0.1770   -2.0790 C.3     1  UNL1        0.0470
      7  C          6.3910   -0.0150   -0.6610 C.2     1  UNL1       -0.0470
      8  C          5.8360    1.1540   -0.1940 C.2     1  UNL1        0.0040
      9  C          6.6500   -1.0500    0.2070 C.2     1  UNL1        0.0040
     10  C          5.5560    1.2390    1.1710 C.2     1  UNL1        0.0000
     11  C          6.3730   -0.9640    1.5570 C.2     1  UNL1        0.0000
     12  C          5.8180    0.2040    2.0340 C.2     1  UNL1        0.0000
@<TRIPOS>BOND
     1     5     4    1
     2     4     2    1
     3     3     2    2
     4     2     1    1
     5     1     6    1
     6     6     7    1
     7     7     8    2
     8     7     9    1
     9     8    10    1
    10     9    11    2
    11    10    12    2
    12    11    12    1
