@<TRIPOS>MOLECULE
/home/cewinharhar/GITHUB/reincatalyze/data/processed/docking_pred/2023_Apr_20-15:07/bae690ffab80532c90b6f683492bf7de3cce581e_ligand_2.pdbqt
 12 12 0 0 0
SMALL
GASTEIGER

@<TRIPOS>ATOM
      1  C          8.4220   -0.7060   -2.1030 C.3     1  UNL1        0.1270
      2  C          8.4480   -1.9540   -2.9020 C.2     1  UNL1        0.3030
      3  O          9.5270   -2.5530   -3.1370 O.2     1  UNL1       -0.2520
      4  O          7.2790   -2.4950   -3.4130 O.3     1  UNL1       -0.4810
      5  H          7.2280   -2.7260   -4.4090 H       1  UNL1        0.2960
      6  C          7.0010   -0.2400   -2.0050 C.3     1  UNL1        0.0470
      7  C          6.5370   -0.0330   -0.6340 C.2     1  UNL1       -0.0470
      8  C          5.9930    1.1710   -0.2500 C.2     1  UNL1        0.0040
      9  C          6.6470   -1.0600    0.2750 C.2     1  UNL1        0.0040
     10  C          5.5700    1.2980    1.0750 C.2     1  UNL1        0.0000
     11  C          6.2290   -0.9330    1.5840 C.2     1  UNL1        0.0000
     12  C          5.6830    0.2700    1.9770 C.2     1  UNL1        0.0000
@<TRIPOS>BOND
     1     5     4    1
     2     4     2    1
     3     3     2    2
     4     2     1    1
     5     1     6    1
     6     6     7    1
     7     7     8    2
     8     7     9    1
     9     8    10    1
    10     9    11    2
    11    10    12    2
    12    11    12    1
