@<TRIPOS>MOLECULE
/home/cewinharhar/GITHUB/reincatalyze/data/processed/docking_pred/2023_Apr_20-15:07/bae690ffab80532c90b6f683492bf7de3cce581e_ligand_2.pdbqt
 12 12 0 0 0
SMALL
GASTEIGER

@<TRIPOS>ATOM
      1  C          5.5810    1.4940   -0.4660 C.3     1  UNL1        0.1270
      2  C          5.4550    1.8850    0.9580 C.2     1  UNL1        0.3030
      3  O          5.1510    1.0430    1.8390 O.2     1  UNL1       -0.2520
      4  O          5.6690    3.1940    1.3560 O.3     1  UNL1       -0.4810
      5  H          4.8660    3.8180    1.4790 H       1  UNL1        0.2960
      6  C          6.3880    0.2330   -0.5390 C.3     1  UNL1        0.0470
      7  C          7.6330    0.3670   -1.2930 C.2     1  UNL1       -0.0470
      8  C          8.7820    0.8100   -0.6800 C.2     1  UNL1        0.0040
      9  C          7.6470    0.0410   -2.6290 C.2     1  UNL1        0.0040
     10  C          9.9360    0.9120   -1.4620 C.2     1  UNL1        0.0000
     11  C          8.7870    0.1430   -3.4000 C.2     1  UNL1        0.0000
     12  C          9.9430    0.5860   -2.7950 C.2     1  UNL1        0.0000
@<TRIPOS>BOND
     1    11    12    2
     2    11     9    1
     3    12    10    1
     4     9     7    2
     5    10     8    2
     6     7     8    1
     7     7     6    1
     8     6     1    1
     9     1     2    1
    10     2     4    1
    11     2     3    2
    12     4     5    1
