@<TRIPOS>MOLECULE
/home/cewinharhar/GITHUB/reincatalyze/data/processed/docking_pred/2023_Apr_20-15:07/bb8285001221c2ec88d34c7e342a921234d5c761_ligand_2.pdbqt
 12 12 0 0 0
SMALL
GASTEIGER

@<TRIPOS>ATOM
      1  C          8.1820   -1.4780    1.0650 C.3     1  UNL1        0.1270
      2  C          8.4540   -2.7200    0.3040 C.2     1  UNL1        0.3030
      3  O          9.0730   -3.6800    0.8250 O.2     1  UNL1       -0.2520
      4  O          8.0310   -2.8550   -1.0090 O.3     1  UNL1       -0.4810
      5  H          7.3130   -3.5500   -1.2350 H       1  UNL1        0.2960
      6  C          6.6990   -1.3440    1.2350 C.3     1  UNL1        0.0470
      7  C          6.1500   -0.0970    0.7070 C.2     1  UNL1       -0.0470
      8  C          6.4030    0.2910   -0.5880 C.2     1  UNL1        0.0040
      9  C          5.3710    0.6910    1.5220 C.2     1  UNL1        0.0040
     10  C          5.8450    1.4940   -1.0260 C.2     1  UNL1        0.0000
     11  C          4.8200    1.8810    1.0880 C.2     1  UNL1        0.0000
     12  C          5.0690    2.2770   -0.2080 C.2     1  UNL1        0.0000
@<TRIPOS>BOND
     1     5     4    1
     2    10     8    1
     3    10    12    2
     4     4     2    1
     5     8     7    2
     6    12    11    1
     7     2     3    2
     8     2     1    1
     9     7     6    1
    10     7     9    1
    11     1     6    1
    12    11     9    2
