@<TRIPOS>MOLECULE
/home/cewinharhar/GITHUB/reincatalyze/data/processed/docking_pred/2023_Apr_20-15:07/bb8285001221c2ec88d34c7e342a921234d5c761_ligand_2.pdbqt
 12 12 0 0 0
SMALL
GASTEIGER

@<TRIPOS>ATOM
      1  C          8.2350    0.2430   -2.2230 C.3     1  UNL1        0.1270
      2  C          9.3560    0.3480   -1.2600 C.2     1  UNL1        0.3030
      3  O          9.4280   -0.4080   -0.2590 O.2     1  UNL1       -0.2520
      4  O         10.3600    1.2860   -1.4390 O.3     1  UNL1       -0.4810
      5  H         10.2750    2.2020   -0.9900 H       1  UNL1        0.2960
      6  C          7.1190   -0.5120   -1.5660 C.3     1  UNL1        0.0470
      7  C          6.3440    0.2830   -0.6150 C.2     1  UNL1       -0.0470
      8  C          6.1350   -0.1640    0.6690 C.2     1  UNL1        0.0040
      9  C          5.8230    1.4910   -1.0170 C.2     1  UNL1        0.0040
     10  C          5.3860    0.6470    1.5240 C.2     1  UNL1        0.0000
     11  C          5.0820    2.2910   -0.1700 C.2     1  UNL1        0.0000
     12  C          4.8680    1.8510    1.1170 C.2     1  UNL1        0.0000
@<TRIPOS>BOND
     1     1     6    1
     2     1     2    1
     3     6     7    1
     4     4     2    1
     5     4     5    1
     6     2     3    2
     7     9     7    2
     8     9    11    1
     9     7     8    1
    10    11    12    2
    11     8    10    2
    12    12    10    1
