MODEL 1
REMARK VINA RESULT:      -7.3      0.000      0.000
REMARK SMILES O=C(O)CCc1ccccc1
REMARK SMILES IDX 4 1 2 2 1 3 3 4 5 6 6 7 7 8 11 9 8 10 10 11 9 12
REMARK H PARENT 3 5
REMARK Flexibility Score: inf
ROOT
ATOM      1  C   UNL     1       8.430  -0.616  -2.163  1.00  0.00     0.127 C 
ENDROOT
BRANCH   1   2
ATOM      2  C   UNL     1       8.477  -1.894  -2.912  1.00  0.00     0.303 C 
ATOM      3  O   UNL     1       9.561  -2.502  -3.094  1.00  0.00    -0.252 OA
BRANCH   2   4
ATOM      4  O   UNL     1       7.322  -2.454  -3.434  1.00  0.00    -0.481 OA
ATOM      5  H   UNL     1       6.540  -2.664  -2.808  1.00  0.00     0.296 HD
ENDBRANCH   2   4
ENDBRANCH   1   2
BRANCH   1   6
ATOM      6  C   UNL     1       7.011  -0.137  -2.138  1.00  0.00     0.047 C 
BRANCH   6   7
ATOM      7  C   UNL     1       6.471   0.055  -0.793  1.00  0.00    -0.047 A 
ATOM      8  C   UNL     1       5.832   1.224  -0.451  1.00  0.00     0.004 A 
ATOM      9  C   UNL     1       6.606  -0.953   0.134  1.00  0.00     0.004 A 
ATOM     10  C   UNL     1       5.340   1.337   0.851  1.00  0.00     0.000 A 
ATOM     11  C   UNL     1       6.120  -0.839   1.421  1.00  0.00     0.000 A 
ATOM     12  C   UNL     1       5.479   0.330   1.772  1.00  0.00     0.000 A 
ENDBRANCH   6   7
ENDBRANCH   1   6
TORSDOF 4
ENDMDL
MODEL 2
REMARK VINA RESULT:      -7.3      0.058      1.438
REMARK SMILES O=C(O)CCc1ccccc1
REMARK SMILES IDX 4 1 2 2 1 3 3 4 5 6 6 7 7 8 11 9 8 10 10 11 9 12
REMARK H PARENT 3 5
REMARK Flexibility Score: inf
ROOT
ATOM      1  C   UNL     1       8.430  -0.575  -2.233  1.00  0.00     0.127 C 
ENDROOT
BRANCH   1   2
ATOM      2  C   UNL     1       8.479  -1.879  -2.936  1.00  0.00     0.303 C 
ATOM      3  O   UNL     1       9.566  -2.486  -3.106  1.00  0.00    -0.252 OA
BRANCH   2   4
ATOM      4  O   UNL     1       7.324  -2.464  -3.428  1.00  0.00    -0.481 OA
ATOM      5  H   UNL     1       7.133  -3.448  -3.219  1.00  0.00     0.296 HD
ENDBRANCH   2   4
ENDBRANCH   1   2
BRANCH   1   6
ATOM      6  C   UNL     1       7.002  -0.125  -2.175  1.00  0.00     0.047 C 
BRANCH   6   7
ATOM      7  C   UNL     1       6.481   0.027  -0.818  1.00  0.00    -0.047 A 
ATOM      8  C   UNL     1       6.621  -0.981   0.107  1.00  0.00     0.004 A 
ATOM      9  C   UNL     1       5.847   1.198  -0.470  1.00  0.00     0.004 A 
ATOM     10  C   UNL     1       6.101  -0.766   1.385  1.00  0.00     0.000 A 
ATOM     11  C   UNL     1       5.332   1.408   0.794  1.00  0.00     0.000 A 
ATOM     12  C   UNL     1       5.468   0.403   1.726  1.00  0.00     0.000 A 
ENDBRANCH   6   7
ENDBRANCH   1   6
TORSDOF 4
ENDMDL
MODEL 3
REMARK VINA RESULT:      -6.7      3.367      5.042
REMARK SMILES O=C(O)CCc1ccccc1
REMARK SMILES IDX 4 1 2 2 1 3 3 4 5 6 6 7 7 8 11 9 8 10 10 11 9 12
REMARK H PARENT 3 5
REMARK Flexibility Score: inf
ROOT
ATOM      1  C   UNL     1       5.059   1.722   0.643  1.00  0.00     0.127 C 
ENDROOT
BRANCH   1   2
ATOM      2  C   UNL     1       4.555   1.092   1.886  1.00  0.00     0.303 C 
ATOM      3  O   UNL     1       5.231   0.228   2.497  1.00  0.00    -0.252 OA
BRANCH   2   4
ATOM      4  O   UNL     1       3.320   1.441   2.408  1.00  0.00    -0.481 OA
ATOM      5  H   UNL     1       2.988   0.979   3.260  1.00  0.00     0.296 HD
ENDBRANCH   2   4
ENDBRANCH   1   2
BRANCH   1   6
ATOM      6  C   UNL     1       6.556   1.745   0.700  1.00  0.00     0.047 C 
BRANCH   6   7
ATOM      7  C   UNL     1       7.203   0.992  -0.373  1.00  0.00    -0.047 A 
ATOM      8  C   UNL     1       8.542   1.161  -0.642  1.00  0.00     0.004 A 
ATOM      9  C   UNL     1       6.458   0.106  -1.116  1.00  0.00     0.004 A 
ATOM     10  C   UNL     1       9.094   0.408  -1.680  1.00  0.00     0.000 A 
ATOM     11  C   UNL     1       7.005  -0.637  -2.143  1.00  0.00     0.000 A 
ATOM     12  C   UNL     1       8.346  -0.474  -2.419  1.00  0.00     0.000 A 
ENDBRANCH   6   7
ENDBRANCH   1   6
TORSDOF 4
ENDMDL
MODEL 4
REMARK VINA RESULT:      -6.7      1.927      2.665
REMARK SMILES O=C(O)CCc1ccccc1
REMARK SMILES IDX 4 1 2 2 1 3 3 4 5 6 6 7 7 8 11 9 8 10 10 11 9 12
REMARK H PARENT 3 5
REMARK Flexibility Score: inf
ROOT
ATOM      1  C   UNL     1       8.235   0.243  -2.223  1.00  0.00     0.127 C 
ENDROOT
BRANCH   1   2
ATOM      2  C   UNL     1       9.356   0.348  -1.260  1.00  0.00     0.303 C 
ATOM      3  O   UNL     1       9.428  -0.408  -0.259  1.00  0.00    -0.252 OA
BRANCH   2   4
ATOM      4  O   UNL     1      10.360   1.286  -1.439  1.00  0.00    -0.481 OA
ATOM      5  H   UNL     1      10.275   2.202  -0.990  1.00  0.00     0.296 HD
ENDBRANCH   2   4
ENDBRANCH   1   2
BRANCH   1   6
ATOM      6  C   UNL     1       7.119  -0.512  -1.566  1.00  0.00     0.047 C 
BRANCH   6   7
ATOM      7  C   UNL     1       6.344   0.283  -0.615  1.00  0.00    -0.047 A 
ATOM      8  C   UNL     1       6.135  -0.164   0.669  1.00  0.00     0.004 A 
ATOM      9  C   UNL     1       5.823   1.491  -1.017  1.00  0.00     0.004 A 
ATOM     10  C   UNL     1       5.386   0.647   1.524  1.00  0.00     0.000 A 
ATOM     11  C   UNL     1       5.082   2.291  -0.170  1.00  0.00     0.000 A 
ATOM     12  C   UNL     1       4.868   1.851   1.117  1.00  0.00     0.000 A 
ENDBRANCH   6   7
ENDBRANCH   1   6
TORSDOF 4
ENDMDL
MODEL 5
REMARK VINA RESULT:      -6.5      1.871      2.850
REMARK SMILES O=C(O)CCc1ccccc1
REMARK SMILES IDX 4 1 2 2 1 3 3 4 5 6 6 7 7 8 11 9 8 10 10 11 9 12
REMARK H PARENT 3 5
REMARK Flexibility Score: inf
ROOT
ATOM      1  C   UNL     1       8.182  -1.478   1.065  1.00  0.00     0.127 C 
ENDROOT
BRANCH   1   2
ATOM      2  C   UNL     1       8.454  -2.720   0.304  1.00  0.00     0.303 C 
ATOM      3  O   UNL     1       9.073  -3.680   0.825  1.00  0.00    -0.252 OA
BRANCH   2   4
ATOM      4  O   UNL     1       8.031  -2.855  -1.009  1.00  0.00    -0.481 OA
ATOM      5  H   UNL     1       7.313  -3.550  -1.235  1.00  0.00     0.296 HD
ENDBRANCH   2   4
ENDBRANCH   1   2
BRANCH   1   6
ATOM      6  C   UNL     1       6.699  -1.344   1.235  1.00  0.00     0.047 C 
BRANCH   6   7
ATOM      7  C   UNL     1       6.150  -0.097   0.707  1.00  0.00    -0.047 A 
ATOM      8  C   UNL     1       6.403   0.291  -0.588  1.00  0.00     0.004 A 
ATOM      9  C   UNL     1       5.371   0.691   1.522  1.00  0.00     0.004 A 
ATOM     10  C   UNL     1       5.845   1.494  -1.026  1.00  0.00     0.000 A 
ATOM     11  C   UNL     1       4.820   1.881   1.088  1.00  0.00     0.000 A 
ATOM     12  C   UNL     1       5.069   2.277  -0.208  1.00  0.00     0.000 A 
ENDBRANCH   6   7
ENDBRANCH   1   6
TORSDOF 4
ENDMDL
