@<TRIPOS>MOLECULE
/home/cewinharhar/GITHUB/reincatalyze/data/processed/docking_pred/2023_Apr_20-15:07/bb8285001221c2ec88d34c7e342a921234d5c761_ligand_2.pdbqt
 12 12 0 0 0
SMALL
GASTEIGER

@<TRIPOS>ATOM
      1  C          8.4300   -0.6160   -2.1630 C.3     1  UNL1        0.1270
      2  C          8.4770   -1.8940   -2.9120 C.2     1  UNL1        0.3030
      3  O          9.5610   -2.5020   -3.0940 O.2     1  UNL1       -0.2520
      4  O          7.3220   -2.4540   -3.4340 O.3     1  UNL1       -0.4810
      5  H          6.5400   -2.6640   -2.8080 H       1  UNL1        0.2960
      6  C          7.0110   -0.1370   -2.1380 C.3     1  UNL1        0.0470
      7  C          6.4710    0.0550   -0.7930 C.2     1  UNL1       -0.0470
      8  C          5.8320    1.2240   -0.4510 C.2     1  UNL1        0.0040
      9  C          6.6060   -0.9530    0.1340 C.2     1  UNL1        0.0040
     10  C          5.3400    1.3370    0.8510 C.2     1  UNL1        0.0000
     11  C          6.1200   -0.8390    1.4210 C.2     1  UNL1        0.0000
     12  C          5.4790    0.3300    1.7720 C.2     1  UNL1        0.0000
@<TRIPOS>BOND
     1     4     2    1
     2     4     5    1
     3     3     2    2
     4     2     1    1
     5     1     6    1
     6     6     7    1
     7     7     8    2
     8     7     9    1
     9     8    10    1
    10     9    11    2
    11    10    12    2
    12    11    12    1
