@<TRIPOS>MOLECULE
/home/cewinharhar/GITHUB/reincatalyze/data/processed/docking_pred/2023_Apr_20-15:07/bb8285001221c2ec88d34c7e342a921234d5c761_ligand_2.pdbqt
 12 12 0 0 0
SMALL
GASTEIGER

@<TRIPOS>ATOM
      1  C          8.4300   -0.5750   -2.2330 C.3     1  UNL1        0.1270
      2  C          8.4790   -1.8790   -2.9360 C.2     1  UNL1        0.3030
      3  O          9.5660   -2.4860   -3.1060 O.2     1  UNL1       -0.2520
      4  O          7.3240   -2.4640   -3.4280 O.3     1  UNL1       -0.4810
      5  H          7.1330   -3.4480   -3.2190 H       1  UNL1        0.2960
      6  C          7.0020   -0.1250   -2.1750 C.3     1  UNL1        0.0470
      7  C          6.4810    0.0270   -0.8180 C.2     1  UNL1       -0.0470
      8  C          6.6210   -0.9810    0.1070 C.2     1  UNL1        0.0040
      9  C          5.8470    1.1980   -0.4700 C.2     1  UNL1        0.0040
     10  C          6.1010   -0.7660    1.3850 C.2     1  UNL1        0.0000
     11  C          5.3320    1.4080    0.7940 C.2     1  UNL1        0.0000
     12  C          5.4680    0.4030    1.7260 C.2     1  UNL1        0.0000
@<TRIPOS>BOND
     1     4     5    1
     2     4     2    1
     3     3     2    2
     4     2     1    1
     5     1     6    1
     6     6     7    1
     7     7     9    2
     8     7     8    1
     9     9    11    1
    10     8    10    2
    11    11    12    2
    12    10    12    1
