@<TRIPOS>MOLECULE
/home/cewinharhar/GITHUB/reincatalyze/data/processed/docking_pred/2023_Apr_20-15:07/bb8285001221c2ec88d34c7e342a921234d5c761_ligand_2.pdbqt
 12 12 0 0 0
SMALL
GASTEIGER

@<TRIPOS>ATOM
      1  C          5.0590    1.7220    0.6430 C.3     1  UNL1        0.1270
      2  C          4.5550    1.0920    1.8860 C.2     1  UNL1        0.3030
      3  O          5.2310    0.2280    2.4970 O.2     1  UNL1       -0.2520
      4  O          3.3200    1.4410    2.4080 O.3     1  UNL1       -0.4810
      5  H          2.9880    0.9790    3.2600 H       1  UNL1        0.2960
      6  C          6.5560    1.7450    0.7000 C.3     1  UNL1        0.0470
      7  C          7.2030    0.9920   -0.3730 C.2     1  UNL1       -0.0470
      8  C          8.5420    1.1610   -0.6420 C.2     1  UNL1        0.0040
      9  C          6.4580    0.1060   -1.1160 C.2     1  UNL1        0.0040
     10  C          9.0940    0.4080   -1.6800 C.2     1  UNL1        0.0000
     11  C          7.0050   -0.6370   -2.1430 C.2     1  UNL1        0.0000
     12  C          8.3460   -0.4740   -2.4190 C.2     1  UNL1        0.0000
@<TRIPOS>BOND
     1    12    11    2
     2    12    10    1
     3    11     9    1
     4    10     8    2
     5     9     7    2
     6     8     7    1
     7     7     6    1
     8     1     6    1
     9     1     2    1
    10     2     4    1
    11     2     3    2
    12     4     5    1
