@<TRIPOS>MOLECULE
/home/cewinharhar/GITHUB/reincatalyze/data/processed/docking_pred/2023_Apr_20-15:07/bdfc35a41e3d78d3bf59a6b88613069133e00868_ligand_2.pdbqt
 12 12 0 0 0
SMALL
GASTEIGER

@<TRIPOS>ATOM
      1  C          5.3620    2.8490    0.0540 C.3     1  UNL1        0.1270
      2  C          6.1770    3.7910    0.8580 C.2     1  UNL1        0.3030
      3  O          6.2010    3.7240    2.1120 O.2     1  UNL1       -0.2520
      4  O          6.9360    4.7740    0.2450 O.3     1  UNL1       -0.4810
      5  H          6.6260    5.7490    0.2920 H       1  UNL1        0.2960
      6  C          5.0340    1.6630    0.9080 C.3     1  UNL1        0.0470
      7  C          5.8680    0.4910    0.6430 C.2     1  UNL1       -0.0470
      8  C          6.1270   -0.4260    1.6340 C.2     1  UNL1        0.0040
      9  C          6.3930    0.3120   -0.6160 C.2     1  UNL1        0.0040
     10  C          6.9310   -1.5220    1.3100 C.2     1  UNL1        0.0000
     11  C          7.1870   -0.7720   -0.9350 C.2     1  UNL1        0.0000
     12  C          7.4520   -1.6950    0.0530 C.2     1  UNL1        0.0000
@<TRIPOS>BOND
     1    11     9    1
     2    11    12    2
     3     9     7    2
     4    12    10    1
     5     1     2    1
     6     1     6    1
     7     4     5    1
     8     4     2    1
     9     7     6    1
    10     7     8    1
    11     2     3    2
    12    10     8    2
