@<TRIPOS>MOLECULE
/home/cewinharhar/GITHUB/reincatalyze/data/processed/docking_pred/2023_Apr_20-15:07/bdfc35a41e3d78d3bf59a6b88613069133e00868_ligand_2.pdbqt
 12 12 0 0 0
SMALL
GASTEIGER

@<TRIPOS>ATOM
      1  C          8.4200   -0.5140   -2.2910 C.3     1  UNL1        0.1270
      2  C          8.4870   -1.8370   -2.9570 C.2     1  UNL1        0.3030
      3  O          9.5780   -2.4440   -3.0900 O.2     1  UNL1       -0.2520
      4  O          7.3420   -2.4410   -3.4520 O.3     1  UNL1       -0.4810
      5  H          6.8010   -1.9670   -4.1810 H       1  UNL1        0.2960
      6  C          6.9820   -0.0980   -2.2140 C.3     1  UNL1        0.0470
      7  C          6.4780    0.0500   -0.8500 C.2     1  UNL1       -0.0470
      8  C          6.6260   -0.9630    0.0680 C.2     1  UNL1        0.0040
      9  C          5.8530    1.2210   -0.4890 C.2     1  UNL1        0.0040
     10  C          6.1210   -0.7520    1.3530 C.2     1  UNL1        0.0000
     11  C          5.3540    1.4280    0.7820 C.2     1  UNL1        0.0000
     12  C          5.4970    0.4170    1.7080 C.2     1  UNL1        0.0000
@<TRIPOS>BOND
     1     5     4    1
     2     4     2    1
     3     3     2    2
     4     2     1    1
     5     1     6    1
     6     6     7    1
     7     7     9    2
     8     7     8    1
     9     9    11    1
    10     8    10    2
    11    11    12    2
    12    10    12    1
