@<TRIPOS>MOLECULE
/home/cewinharhar/GITHUB/reincatalyze/data/processed/docking_pred/2023_Apr_20-15:07/bdfc35a41e3d78d3bf59a6b88613069133e00868_ligand_2.pdbqt
 12 12 0 0 0
SMALL
GASTEIGER

@<TRIPOS>ATOM
      1  C          8.4080   -0.6070   -2.1300 C.3     1  UNL1        0.1270
      2  C          8.3870   -1.8770   -2.8940 C.2     1  UNL1        0.3030
      3  O          7.3030   -2.4110   -3.2390 O.2     1  UNL1       -0.2520
      4  O          9.5660   -2.5120   -3.2490 O.3     1  UNL1       -0.4810
      5  H          9.6580   -3.5200   -3.0940 H       1  UNL1        0.2960
      6  C          7.0170   -0.0530   -2.1000 C.3     1  UNL1        0.0470
      7  C          6.4660    0.0980   -0.7540 C.2     1  UNL1       -0.0470
      8  C          5.8320    1.2590   -0.3790 C.2     1  UNL1        0.0040
      9  C          6.5860   -0.9410    0.1400 C.2     1  UNL1        0.0040
     10  C          5.3290    1.3330    0.9220 C.2     1  UNL1        0.0000
     11  C          6.0880   -0.8670    1.4260 C.2     1  UNL1        0.0000
     12  C          5.4530    0.2940    1.8100 C.2     1  UNL1        0.0000
@<TRIPOS>BOND
     1     4     5    1
     2     4     2    1
     3     3     2    2
     4     2     1    1
     5     1     6    1
     6     6     7    1
     7     7     8    2
     8     7     9    1
     9     8    10    1
    10     9    11    2
    11    10    12    2
    12    11    12    1
