@<TRIPOS>MOLECULE
/home/cewinharhar/GITHUB/reincatalyze/data/processed/docking_pred/2023_Apr_20-15:07/bdfc35a41e3d78d3bf59a6b88613069133e00868_ligand_2.pdbqt
 12 12 0 0 0
SMALL
GASTEIGER

@<TRIPOS>ATOM
      1  C          8.1810    0.2750   -2.0890 C.3     1  UNL1        0.1270
      2  C          9.3630    0.3840   -1.2020 C.2     1  UNL1        0.3030
      3  O          9.4940   -0.3610   -0.1990 O.2     1  UNL1       -0.2520
      4  O         10.3580    1.3140   -1.4550 O.3     1  UNL1       -0.4810
      5  H         10.8930    1.7010   -0.6730 H       1  UNL1        0.2960
      6  C          7.1580   -0.5830   -1.4080 C.3     1  UNL1        0.0470
      7  C          6.3690    0.1210   -0.3990 C.2     1  UNL1       -0.0470
      8  C          5.8060    1.3450   -0.6740 C.2     1  UNL1        0.0040
      9  C          6.1900   -0.4570    0.8360 C.2     1  UNL1        0.0040
     10  C          5.0640    1.9600    0.3370 C.2     1  UNL1        0.0000
     11  C          5.4560    0.1510    1.8350 C.2     1  UNL1        0.0000
     12  C          4.8900    1.3790    1.5680 C.2     1  UNL1        0.0000
@<TRIPOS>BOND
     1     1     6    1
     2     1     2    1
     3     4     2    1
     4     4     5    1
     5     6     7    1
     6     2     3    2
     7     8     7    2
     8     8    10    1
     9     7     9    1
    10    10    12    2
    11     9    11    2
    12    12    11    1
