MODEL 1
REMARK VINA RESULT:      -7.3      0.000      0.000
REMARK SMILES O=C(O)CCc1ccccc1
REMARK SMILES IDX 4 1 2 2 1 3 3 4 5 6 6 7 7 8 11 9 8 10 10 11 9 12
REMARK H PARENT 3 5
REMARK Flexibility Score: inf
ROOT
ATOM      1  C   UNL     1       8.420  -0.514  -2.291  1.00  0.00     0.127 C 
ENDROOT
BRANCH   1   2
ATOM      2  C   UNL     1       8.487  -1.837  -2.957  1.00  0.00     0.303 C 
ATOM      3  O   UNL     1       9.578  -2.444  -3.090  1.00  0.00    -0.252 OA
BRANCH   2   4
ATOM      4  O   UNL     1       7.342  -2.441  -3.452  1.00  0.00    -0.481 OA
ATOM      5  H   UNL     1       6.801  -1.967  -4.181  1.00  0.00     0.296 HD
ENDBRANCH   2   4
ENDBRANCH   1   2
BRANCH   1   6
ATOM      6  C   UNL     1       6.982  -0.098  -2.214  1.00  0.00     0.047 C 
BRANCH   6   7
ATOM      7  C   UNL     1       6.478   0.050  -0.850  1.00  0.00    -0.047 A 
ATOM      8  C   UNL     1       6.626  -0.963   0.068  1.00  0.00     0.004 A 
ATOM      9  C   UNL     1       5.853   1.221  -0.489  1.00  0.00     0.004 A 
ATOM     10  C   UNL     1       6.121  -0.752   1.353  1.00  0.00     0.000 A 
ATOM     11  C   UNL     1       5.354   1.428   0.782  1.00  0.00     0.000 A 
ATOM     12  C   UNL     1       5.497   0.417   1.708  1.00  0.00     0.000 A 
ENDBRANCH   6   7
ENDBRANCH   1   6
TORSDOF 4
ENDMDL
MODEL 2
REMARK VINA RESULT:      -7.2      0.152      1.733
REMARK SMILES O=C(O)CCc1ccccc1
REMARK SMILES IDX 4 1 2 2 1 3 3 4 5 6 6 7 7 8 11 9 8 10 10 11 9 12
REMARK H PARENT 3 5
REMARK Flexibility Score: inf
ROOT
ATOM      1  C   UNL     1       8.408  -0.607  -2.130  1.00  0.00     0.127 C 
ENDROOT
BRANCH   1   2
ATOM      2  C   UNL     1       8.387  -1.877  -2.894  1.00  0.00     0.303 C 
ATOM      3  O   UNL     1       7.303  -2.411  -3.239  1.00  0.00    -0.252 OA
BRANCH   2   4
ATOM      4  O   UNL     1       9.566  -2.512  -3.249  1.00  0.00    -0.481 OA
ATOM      5  H   UNL     1       9.658  -3.520  -3.094  1.00  0.00     0.296 HD
ENDBRANCH   2   4
ENDBRANCH   1   2
BRANCH   1   6
ATOM      6  C   UNL     1       7.017  -0.053  -2.100  1.00  0.00     0.047 C 
BRANCH   6   7
ATOM      7  C   UNL     1       6.466   0.098  -0.754  1.00  0.00    -0.047 A 
ATOM      8  C   UNL     1       5.832   1.259  -0.379  1.00  0.00     0.004 A 
ATOM      9  C   UNL     1       6.586  -0.941   0.140  1.00  0.00     0.004 A 
ATOM     10  C   UNL     1       5.329   1.333   0.922  1.00  0.00     0.000 A 
ATOM     11  C   UNL     1       6.088  -0.867   1.426  1.00  0.00     0.000 A 
ATOM     12  C   UNL     1       5.453   0.294   1.810  1.00  0.00     0.000 A 
ENDBRANCH   6   7
ENDBRANCH   1   6
TORSDOF 4
ENDMDL
MODEL 3
REMARK VINA RESULT:      -6.7      3.387      5.048
REMARK SMILES O=C(O)CCc1ccccc1
REMARK SMILES IDX 4 1 2 2 1 3 3 4 5 6 6 7 7 8 11 9 8 10 10 11 9 12
REMARK H PARENT 3 5
REMARK Flexibility Score: inf
ROOT
ATOM      1  C   UNL     1       5.033   1.770   0.730  1.00  0.00     0.127 C 
ENDROOT
BRANCH   1   2
ATOM      2  C   UNL     1       4.486   1.094   1.931  1.00  0.00     0.303 C 
ATOM      3  O   UNL     1       5.121   0.176   2.506  1.00  0.00    -0.252 OA
BRANCH   2   4
ATOM      4  O   UNL     1       3.256   1.459   2.453  1.00  0.00    -0.481 OA
ATOM      5  H   UNL     1       2.905   0.984   3.288  1.00  0.00     0.296 HD
ENDBRANCH   2   4
ENDBRANCH   1   2
BRANCH   1   6
ATOM      6  C   UNL     1       6.528   1.693   0.786  1.00  0.00     0.047 C 
BRANCH   6   7
ATOM      7  C   UNL     1       7.126   0.942  -0.317  1.00  0.00    -0.047 A 
ATOM      8  C   UNL     1       6.406  -0.022  -0.984  1.00  0.00     0.004 A 
ATOM      9  C   UNL     1       8.423   1.211  -0.687  1.00  0.00     0.004 A 
ATOM     10  C   UNL     1       7.040  -0.699  -2.028  1.00  0.00     0.000 A 
ATOM     11  C   UNL     1       9.049   0.541  -1.719  1.00  0.00     0.000 A 
ATOM     12  C   UNL     1       8.335  -0.427  -2.391  1.00  0.00     0.000 A 
ENDBRANCH   6   7
ENDBRANCH   1   6
TORSDOF 4
ENDMDL
MODEL 4
REMARK VINA RESULT:      -6.6      1.942      2.617
REMARK SMILES O=C(O)CCc1ccccc1
REMARK SMILES IDX 4 1 2 2 1 3 3 4 5 6 6 7 7 8 11 9 8 10 10 11 9 12
REMARK H PARENT 3 5
REMARK Flexibility Score: inf
ROOT
ATOM      1  C   UNL     1       8.181   0.275  -2.089  1.00  0.00     0.127 C 
ENDROOT
BRANCH   1   2
ATOM      2  C   UNL     1       9.363   0.384  -1.202  1.00  0.00     0.303 C 
ATOM      3  O   UNL     1       9.494  -0.361  -0.199  1.00  0.00    -0.252 OA
BRANCH   2   4
ATOM      4  O   UNL     1      10.358   1.314  -1.455  1.00  0.00    -0.481 OA
ATOM      5  H   UNL     1      10.893   1.701  -0.673  1.00  0.00     0.296 HD
ENDBRANCH   2   4
ENDBRANCH   1   2
BRANCH   1   6
ATOM      6  C   UNL     1       7.158  -0.583  -1.408  1.00  0.00     0.047 C 
BRANCH   6   7
ATOM      7  C   UNL     1       6.369   0.121  -0.399  1.00  0.00    -0.047 A 
ATOM      8  C   UNL     1       5.806   1.345  -0.674  1.00  0.00     0.004 A 
ATOM      9  C   UNL     1       6.190  -0.457   0.836  1.00  0.00     0.004 A 
ATOM     10  C   UNL     1       5.064   1.960   0.337  1.00  0.00     0.000 A 
ATOM     11  C   UNL     1       5.456   0.151   1.835  1.00  0.00     0.000 A 
ATOM     12  C   UNL     1       4.890   1.379   1.568  1.00  0.00     0.000 A 
ENDBRANCH   6   7
ENDBRANCH   1   6
TORSDOF 4
ENDMDL
