@<TRIPOS>MOLECULE
/home/cewinharhar/GITHUB/reincatalyze/data/processed/docking_pred/2023_Apr_20-15:07/bdfc35a41e3d78d3bf59a6b88613069133e00868_ligand_2.pdbqt
 12 12 0 0 0
SMALL
GASTEIGER

@<TRIPOS>ATOM
      1  C          5.0330    1.7700    0.7300 C.3     1  UNL1        0.1270
      2  C          4.4860    1.0940    1.9310 C.2     1  UNL1        0.3030
      3  O          5.1210    0.1760    2.5060 O.2     1  UNL1       -0.2520
      4  O          3.2560    1.4590    2.4530 O.3     1  UNL1       -0.4810
      5  H          2.9050    0.9840    3.2880 H       1  UNL1        0.2960
      6  C          6.5280    1.6930    0.7860 C.3     1  UNL1        0.0470
      7  C          7.1260    0.9420   -0.3170 C.2     1  UNL1       -0.0470
      8  C          6.4060   -0.0220   -0.9840 C.2     1  UNL1        0.0040
      9  C          8.4230    1.2110   -0.6870 C.2     1  UNL1        0.0040
     10  C          7.0400   -0.6990   -2.0280 C.2     1  UNL1        0.0000
     11  C          9.0490    0.5410   -1.7190 C.2     1  UNL1        0.0000
     12  C          8.3350   -0.4270   -2.3910 C.2     1  UNL1        0.0000
@<TRIPOS>BOND
     1    12    10    2
     2    12    11    1
     3    10     8    1
     4    11     9    2
     5     8     7    2
     6     9     7    1
     7     7     6    1
     8     1     6    1
     9     1     2    1
    10     2     4    1
    11     2     3    2
    12     4     5    1
