MODEL 1
REMARK VINA RESULT:      -7.3      0.000      0.000
REMARK SMILES O=C(O)CCc1ccccc1
REMARK SMILES IDX 4 1 2 2 1 3 3 4 5 6 6 7 7 8 11 9 8 10 10 11 9 12
REMARK H PARENT 3 5
REMARK Flexibility Score: inf
ROOT
ATOM      1  C   UNL     1       8.394  -0.627  -2.105  1.00  0.00     0.127 C 
ENDROOT
BRANCH   1   2
ATOM      2  C   UNL     1       8.367  -1.888  -2.882  1.00  0.00     0.303 C 
ATOM      3  O   UNL     1       7.282  -2.402  -3.250  1.00  0.00    -0.252 OA
BRANCH   2   4
ATOM      4  O   UNL     1       9.543  -2.537  -3.223  1.00  0.00    -0.481 OA
ATOM      5  H   UNL     1      10.439  -2.072  -3.055  1.00  0.00     0.296 HD
ENDBRANCH   2   4
ENDBRANCH   1   2
BRANCH   1   6
ATOM      6  C   UNL     1       7.008  -0.057  -2.083  1.00  0.00     0.047 C 
BRANCH   6   7
ATOM      7  C   UNL     1       6.454   0.107  -0.740  1.00  0.00    -0.047 A 
ATOM      8  C   UNL     1       5.801   1.264  -0.385  1.00  0.00     0.004 A 
ATOM      9  C   UNL     1       6.590  -0.915   0.172  1.00  0.00     0.004 A 
ATOM     10  C   UNL     1       5.296   1.351   0.914  1.00  0.00     0.000 A 
ATOM     11  C   UNL     1       6.090  -0.827   1.456  1.00  0.00     0.000 A 
ATOM     12  C   UNL     1       5.436   0.330   1.820  1.00  0.00     0.000 A 
ENDBRANCH   6   7
ENDBRANCH   1   6
TORSDOF 4
ENDMDL
MODEL 2
REMARK VINA RESULT:      -7.3      0.134      1.441
REMARK SMILES O=C(O)CCc1ccccc1
REMARK SMILES IDX 4 1 2 2 1 3 3 4 5 6 6 7 7 8 11 9 8 10 10 11 9 12
REMARK H PARENT 3 5
REMARK Flexibility Score: inf
ROOT
ATOM      1  C   UNL     1       8.470  -0.689  -2.022  1.00  0.00     0.127 C 
ENDROOT
BRANCH   1   2
ATOM      2  C   UNL     1       8.401  -1.914  -2.852  1.00  0.00     0.303 C 
ATOM      3  O   UNL     1       7.298  -2.399  -3.208  1.00  0.00    -0.252 OA
BRANCH   2   4
ATOM      4  O   UNL     1       9.557  -2.562  -3.259  1.00  0.00    -0.481 OA
ATOM      5  H   UNL     1      10.011  -3.223  -2.622  1.00  0.00     0.296 HD
ENDBRANCH   2   4
ENDBRANCH   1   2
BRANCH   1   6
ATOM      6  C   UNL     1       7.126  -0.026  -2.049  1.00  0.00     0.047 C 
BRANCH   6   7
ATOM      7  C   UNL     1       6.512   0.128  -0.732  1.00  0.00    -0.047 A 
ATOM      8  C   UNL     1       6.648  -0.850   0.226  1.00  0.00     0.004 A 
ATOM      9  C   UNL     1       5.795   1.269  -0.455  1.00  0.00     0.004 A 
ATOM     10  C   UNL     1       6.036  -0.635   1.463  1.00  0.00     0.000 A 
ATOM     11  C   UNL     1       5.190   1.479   0.769  1.00  0.00     0.000 A 
ATOM     12  C   UNL     1       5.320   0.504   1.733  1.00  0.00     0.000 A 
ENDBRANCH   6   7
ENDBRANCH   1   6
TORSDOF 4
ENDMDL
MODEL 3
REMARK VINA RESULT:      -6.8      3.313      5.143
REMARK SMILES O=C(O)CCc1ccccc1
REMARK SMILES IDX 4 1 2 2 1 3 3 4 5 6 6 7 7 8 11 9 8 10 10 11 9 12
REMARK H PARENT 3 5
REMARK Flexibility Score: inf
ROOT
ATOM      1  C   UNL     1       4.997   1.801   0.704  1.00  0.00     0.127 C 
ENDROOT
BRANCH   1   2
ATOM      2  C   UNL     1       4.494   1.116   1.918  1.00  0.00     0.303 C 
ATOM      3  O   UNL     1       5.168   0.221   2.487  1.00  0.00    -0.252 OA
BRANCH   2   4
ATOM      4  O   UNL     1       3.262   1.445   2.461  1.00  0.00    -0.481 OA
ATOM      5  H   UNL     1       2.568   0.707   2.612  1.00  0.00     0.296 HD
ENDBRANCH   2   4
ENDBRANCH   1   2
BRANCH   1   6
ATOM      6  C   UNL     1       6.495   1.795   0.747  1.00  0.00     0.047 C 
BRANCH   6   7
ATOM      7  C   UNL     1       7.117   1.039  -0.338  1.00  0.00    -0.047 A 
ATOM      8  C   UNL     1       6.382   0.149  -1.087  1.00  0.00     0.004 A 
ATOM      9  C   UNL     1       8.453   1.226  -0.607  1.00  0.00     0.004 A 
ATOM     10  C   UNL     1       7.042  -0.539  -2.108  1.00  0.00     0.000 A 
ATOM     11  C   UNL     1       9.104   0.545  -1.616  1.00  0.00     0.000 A 
ATOM     12  C   UNL     1       8.375  -0.348  -2.371  1.00  0.00     0.000 A 
ENDBRANCH   6   7
ENDBRANCH   1   6
TORSDOF 4
ENDMDL
MODEL 4
REMARK VINA RESULT:      -6.7      1.922      2.574
REMARK SMILES O=C(O)CCc1ccccc1
REMARK SMILES IDX 4 1 2 2 1 3 3 4 5 6 6 7 7 8 11 9 8 10 10 11 9 12
REMARK H PARENT 3 5
REMARK Flexibility Score: inf
ROOT
ATOM      1  C   UNL     1       8.181   0.253  -2.120  1.00  0.00     0.127 C 
ENDROOT
BRANCH   1   2
ATOM      2  C   UNL     1       9.353   0.363  -1.219  1.00  0.00     0.303 C 
ATOM      3  O   UNL     1       9.477  -0.385  -0.219  1.00  0.00    -0.252 OA
BRANCH   2   4
ATOM      4  O   UNL     1      10.346   1.299  -1.458  1.00  0.00    -0.481 OA
ATOM      5  H   UNL     1      11.249   1.204  -0.984  1.00  0.00     0.296 HD
ENDBRANCH   2   4
ENDBRANCH   1   2
BRANCH   1   6
ATOM      6  C   UNL     1       7.143  -0.588  -1.441  1.00  0.00     0.047 C 
BRANCH   6   7
ATOM      7  C   UNL     1       6.358   0.129  -0.438  1.00  0.00    -0.047 A 
ATOM      8  C   UNL     1       6.161  -0.404   0.814  1.00  0.00     0.004 A 
ATOM      9  C   UNL     1       5.816   1.353  -0.759  1.00  0.00     0.004 A 
ATOM     10  C   UNL     1       5.401   0.337   1.722  1.00  0.00     0.000 A 
ATOM     11  C   UNL     1       5.065   2.084   0.139  1.00  0.00     0.000 A 
ATOM     12  C   UNL     1       4.862   1.556   1.396  1.00  0.00     0.000 A 
ENDBRANCH   6   7
ENDBRANCH   1   6
TORSDOF 4
ENDMDL
MODEL 5
REMARK VINA RESULT:      -6.7      3.784      5.002
REMARK SMILES O=C(O)CCc1ccccc1
REMARK SMILES IDX 4 1 2 2 1 3 3 4 5 6 6 7 7 8 11 9 8 10 10 11 9 12
REMARK H PARENT 3 5
REMARK Flexibility Score: inf
ROOT
ATOM      1  C   UNL     1       5.384   2.916   0.022  1.00  0.00     0.127 C 
ENDROOT
BRANCH   1   2
ATOM      2  C   UNL     1       6.195   3.888   0.793  1.00  0.00     0.303 C 
ATOM      3  O   UNL     1       6.870   4.775   0.216  1.00  0.00    -0.252 OA
BRANCH   2   4
ATOM      4  O   UNL     1       6.229   3.843   2.178  1.00  0.00    -0.481 OA
ATOM      5  H   UNL     1       5.956   4.672   2.713  1.00  0.00     0.296 HD
ENDBRANCH   2   4
ENDBRANCH   1   2
BRANCH   1   6
ATOM      6  C   UNL     1       4.898   1.857   0.964  1.00  0.00     0.047 C 
BRANCH   6   7
ATOM      7  C   UNL     1       5.682   0.623   0.927  1.00  0.00    -0.047 A 
ATOM      8  C   UNL     1       5.777  -0.183   2.037  1.00  0.00     0.004 A 
ATOM      9  C   UNL     1       6.326   0.272  -0.237  1.00  0.00     0.004 A 
ATOM     10  C   UNL     1       6.542  -1.347   1.929  1.00  0.00     0.000 A 
ATOM     11  C   UNL     1       7.082  -0.879  -0.342  1.00  0.00     0.000 A 
ATOM     12  C   UNL     1       7.183  -1.692   0.766  1.00  0.00     0.000 A 
ENDBRANCH   6   7
ENDBRANCH   1   6
TORSDOF 4
ENDMDL
