@<TRIPOS>MOLECULE
/home/cewinharhar/GITHUB/reincatalyze/data/processed/docking_pred/2023_Apr_20-15:07/be159ddb300952c005bf82764a5ce22912cca304_ligand_2.pdbqt
 12 12 0 0 0
SMALL
GASTEIGER

@<TRIPOS>ATOM
      1  C          8.1810    0.2530   -2.1200 C.3     1  UNL1        0.1270
      2  C          9.3530    0.3630   -1.2190 C.2     1  UNL1        0.3030
      3  O          9.4770   -0.3850   -0.2190 O.2     1  UNL1       -0.2520
      4  O         10.3460    1.2990   -1.4580 O.3     1  UNL1       -0.4810
      5  H         11.2490    1.2040   -0.9840 H       1  UNL1        0.2960
      6  C          7.1430   -0.5880   -1.4410 C.3     1  UNL1        0.0470
      7  C          6.3580    0.1290   -0.4380 C.2     1  UNL1       -0.0470
      8  C          6.1610   -0.4040    0.8140 C.2     1  UNL1        0.0040
      9  C          5.8160    1.3530   -0.7590 C.2     1  UNL1        0.0040
     10  C          5.4010    0.3370    1.7220 C.2     1  UNL1        0.0000
     11  C          5.0650    2.0840    0.1390 C.2     1  UNL1        0.0000
     12  C          4.8620    1.5560    1.3960 C.2     1  UNL1        0.0000
@<TRIPOS>BOND
     1     1     6    1
     2     1     2    1
     3     4     2    1
     4     4     5    1
     5     6     7    1
     6     2     3    2
     7     9     7    2
     8     9    11    1
     9     7     8    1
    10    11    12    2
    11     8    10    2
    12    12    10    1
