@<TRIPOS>MOLECULE
/home/cewinharhar/GITHUB/reincatalyze/data/processed/docking_pred/2023_Apr_20-15:07/be159ddb300952c005bf82764a5ce22912cca304_ligand_2.pdbqt
 12 12 0 0 0
SMALL
GASTEIGER

@<TRIPOS>ATOM
      1  C          8.4700   -0.6890   -2.0220 C.3     1  UNL1        0.1270
      2  C          8.4010   -1.9140   -2.8520 C.2     1  UNL1        0.3030
      3  O          7.2980   -2.3990   -3.2080 O.2     1  UNL1       -0.2520
      4  O          9.5570   -2.5620   -3.2590 O.3     1  UNL1       -0.4810
      5  H         10.0110   -3.2230   -2.6220 H       1  UNL1        0.2960
      6  C          7.1260   -0.0260   -2.0490 C.3     1  UNL1        0.0470
      7  C          6.5120    0.1280   -0.7320 C.2     1  UNL1       -0.0470
      8  C          6.6480   -0.8500    0.2260 C.2     1  UNL1        0.0040
      9  C          5.7950    1.2690   -0.4550 C.2     1  UNL1        0.0040
     10  C          6.0360   -0.6350    1.4630 C.2     1  UNL1        0.0000
     11  C          5.1900    1.4790    0.7690 C.2     1  UNL1        0.0000
     12  C          5.3200    0.5040    1.7330 C.2     1  UNL1        0.0000
@<TRIPOS>BOND
     1     4     2    1
     2     4     5    1
     3     3     2    2
     4     2     1    1
     5     6     1    1
     6     6     7    1
     7     7     9    2
     8     7     8    1
     9     9    11    1
    10     8    10    2
    11    11    12    2
    12    10    12    1
