@<TRIPOS>MOLECULE
/home/cewinharhar/GITHUB/reincatalyze/data/processed/docking_pred/2023_Apr_20-15:07/be159ddb300952c005bf82764a5ce22912cca304_ligand_2.pdbqt
 12 12 0 0 0
SMALL
GASTEIGER

@<TRIPOS>ATOM
      1  C          4.9970    1.8010    0.7040 C.3     1  UNL1        0.1270
      2  C          4.4940    1.1160    1.9180 C.2     1  UNL1        0.3030
      3  O          5.1680    0.2210    2.4870 O.2     1  UNL1       -0.2520
      4  O          3.2620    1.4450    2.4610 O.3     1  UNL1       -0.4810
      5  H          2.5680    0.7070    2.6120 H       1  UNL1        0.2960
      6  C          6.4950    1.7950    0.7470 C.3     1  UNL1        0.0470
      7  C          7.1170    1.0390   -0.3380 C.2     1  UNL1       -0.0470
      8  C          6.3820    0.1490   -1.0870 C.2     1  UNL1        0.0040
      9  C          8.4530    1.2260   -0.6070 C.2     1  UNL1        0.0040
     10  C          7.0420   -0.5390   -2.1080 C.2     1  UNL1        0.0000
     11  C          9.1040    0.5450   -1.6160 C.2     1  UNL1        0.0000
     12  C          8.3750   -0.3480   -2.3710 C.2     1  UNL1        0.0000
@<TRIPOS>BOND
     1    12    10    2
     2    12    11    1
     3    10     8    1
     4    11     9    2
     5     8     7    2
     6     9     7    1
     7     7     6    1
     8     1     6    1
     9     1     2    1
    10     2     4    1
    11     2     3    2
    12     4     5    1
