@<TRIPOS>MOLECULE
/home/cewinharhar/GITHUB/reincatalyze/data/processed/docking_pred/2023_Apr_20-15:07/be159ddb300952c005bf82764a5ce22912cca304_ligand_2.pdbqt
 12 12 0 0 0
SMALL
GASTEIGER

@<TRIPOS>ATOM
      1  C          5.3840    2.9160    0.0220 C.3     1  UNL1        0.1270
      2  C          6.1950    3.8880    0.7930 C.2     1  UNL1        0.3030
      3  O          6.8700    4.7750    0.2160 O.2     1  UNL1       -0.2520
      4  O          6.2290    3.8430    2.1780 O.3     1  UNL1       -0.4810
      5  H          5.9560    4.6720    2.7130 H       1  UNL1        0.2960
      6  C          4.8980    1.8570    0.9640 C.3     1  UNL1        0.0470
      7  C          5.6820    0.6230    0.9270 C.2     1  UNL1       -0.0470
      8  C          5.7770   -0.1830    2.0370 C.2     1  UNL1        0.0040
      9  C          6.3260    0.2720   -0.2370 C.2     1  UNL1        0.0040
     10  C          6.5420   -1.3470    1.9290 C.2     1  UNL1        0.0000
     11  C          7.0820   -0.8790   -0.3420 C.2     1  UNL1        0.0000
     12  C          7.1830   -1.6920    0.7660 C.2     1  UNL1        0.0000
@<TRIPOS>BOND
     1    11     9    1
     2    11    12    2
     3     9     7    2
     4     1     2    1
     5     1     6    1
     6     3     2    2
     7    12    10    1
     8     2     4    1
     9     7     6    1
    10     7     8    1
    11    10     8    2
    12     4     5    1
