@<TRIPOS>MOLECULE
/home/cewinharhar/GITHUB/reincatalyze/data/processed/docking_pred/2023_Apr_20-15:07/bfaa3bc067c86e8b5ef89a85d12e30cfe25fe09e_ligand_2.pdbqt
 12 12 0 0 0
SMALL
GASTEIGER

@<TRIPOS>ATOM
      1  C          8.2550    0.1450   -2.1580 C.3     1  UNL1        0.1270
      2  C          9.3850    0.3200   -1.2140 C.2     1  UNL1        0.3030
      3  O          9.4850   -0.3880   -0.1810 O.2     1  UNL1       -0.2520
      4  O         10.3630    1.2730   -1.4460 O.3     1  UNL1       -0.4810
      5  H         11.2600    1.1990   -0.9590 H       1  UNL1        0.2960
      6  C          7.1690   -0.6110   -1.4560 C.3     1  UNL1        0.0470
      7  C          6.3780    0.2020   -0.5340 C.2     1  UNL1       -0.0470
      8  C          6.1540   -0.2150    0.7570 C.2     1  UNL1        0.0040
      9  C          5.8570    1.3980   -0.9720 C.2     1  UNL1        0.0040
     10  C          5.3900    0.6130    1.5830 C.2     1  UNL1        0.0000
     11  C          5.1020    2.2150   -0.1540 C.2     1  UNL1        0.0000
     12  C          4.8730    1.8040    1.1410 C.2     1  UNL1        0.0000
@<TRIPOS>BOND
     1     1     6    1
     2     1     2    1
     3     6     7    1
     4     4     2    1
     5     4     5    1
     6     2     3    2
     7     9     7    2
     8     9    11    1
     9     7     8    1
    10    11    12    2
    11     8    10    2
    12    12    10    1
