@<TRIPOS>MOLECULE
/home/cewinharhar/GITHUB/reincatalyze/data/processed/docking_pred/2023_Apr_20-15:07/bfaa3bc067c86e8b5ef89a85d12e30cfe25fe09e_ligand_2.pdbqt
 12 12 0 0 0
SMALL
GASTEIGER

@<TRIPOS>ATOM
      1  C          5.3800    2.8010    0.0280 C.3     1  UNL1        0.1270
      2  C          6.1780    3.7460    0.8430 C.2     1  UNL1        0.3030
      3  O          6.2330    3.6430    2.0930 O.2     1  UNL1       -0.2520
      4  O          6.8890    4.7750    0.2440 O.3     1  UNL1       -0.4810
      5  H          7.5580    5.3120    0.8020 H       1  UNL1        0.2960
      6  C          5.2750    1.5070    0.7760 C.3     1  UNL1        0.0470
      7  C          6.0780    0.4250    0.2100 C.2     1  UNL1       -0.0470
      8  C          6.5260   -0.6070    1.0010 C.2     1  UNL1        0.0040
      9  C          6.3840    0.4470   -1.1320 C.2     1  UNL1        0.0040
     10  C          7.2870   -1.6080    0.3920 C.2     1  UNL1        0.0000
     11  C          7.1370   -0.5420   -1.7320 C.2     1  UNL1        0.0000
     12  C          7.5900   -1.5800   -0.9460 C.2     1  UNL1        0.0000
@<TRIPOS>BOND
     1    11     9    1
     2    11    12    2
     3     9     7    2
     4    12    10    1
     5     1     6    1
     6     1     2    1
     7     7     6    1
     8     7     8    1
     9     4     5    1
    10     4     2    1
    11    10     8    2
    12     2     3    2
