@<TRIPOS>MOLECULE
/home/cewinharhar/GITHUB/reincatalyze/data/processed/docking_pred/2023_Apr_20-15:07/bfaa3bc067c86e8b5ef89a85d12e30cfe25fe09e_ligand_2.pdbqt
 12 12 0 0 0
SMALL
GASTEIGER

@<TRIPOS>ATOM
      1  C          8.4290   -0.6970   -2.0290 C.3     1  UNL1        0.1270
      2  C          8.3770   -1.9220   -2.8610 C.2     1  UNL1        0.3030
      3  O          7.2820   -2.4040   -3.2420 O.2     1  UNL1       -0.2520
      4  O          9.5410   -2.5710   -3.2430 O.3     1  UNL1       -0.4810
      5  H          9.5030   -3.5640   -3.4900 H       1  UNL1        0.2960
      6  C          7.0750   -0.0570   -2.0480 C.3     1  UNL1        0.0470
      7  C          6.4780    0.1130   -0.7250 C.2     1  UNL1       -0.0470
      8  C          5.8010    1.2660   -0.4000 C.2     1  UNL1        0.0040
      9  C          6.5980   -0.8990    0.2000 C.2     1  UNL1        0.0040
     10  C          5.2560    1.3590    0.8820 C.2     1  UNL1        0.0000
     11  C          6.0590   -0.8050    1.4680 C.2     1  UNL1        0.0000
     12  C          5.3800    0.3470    1.8010 C.2     1  UNL1        0.0000
@<TRIPOS>BOND
     1     5     4    1
     2     4     2    1
     3     3     2    2
     4     2     1    1
     5     6     1    1
     6     6     7    1
     7     7     8    2
     8     7     9    1
     9     8    10    1
    10     9    11    2
    11    10    12    2
    12    11    12    1
