@<TRIPOS>MOLECULE
/home/cewinharhar/GITHUB/reincatalyze/data/processed/docking_pred/2023_Apr_20-15:07/bfaa3bc067c86e8b5ef89a85d12e30cfe25fe09e_ligand_2.pdbqt
 12 12 0 0 0
SMALL
GASTEIGER

@<TRIPOS>ATOM
      1  C          5.0050    1.8190    0.6970 C.3     1  UNL1        0.1270
      2  C          4.4920    1.1370    1.9080 C.2     1  UNL1        0.3030
      3  O          5.1570    0.2380    2.4800 O.2     1  UNL1       -0.2520
      4  O          3.2590    1.4730    2.4440 O.3     1  UNL1       -0.4810
      5  H          3.0360    2.4590    2.6080 H       1  UNL1        0.2960
      6  C          6.5030    1.7960    0.7430 C.3     1  UNL1        0.0470
      7  C          7.1200    1.0420   -0.3470 C.2     1  UNL1       -0.0470
      8  C          6.3800    0.1590   -1.0990 C.2     1  UNL1        0.0040
      9  C          8.4560    1.2270   -0.6180 C.2     1  UNL1        0.0040
     10  C          7.0350   -0.5260   -2.1250 C.2     1  UNL1        0.0000
     11  C          9.1020    0.5480   -1.6330 C.2     1  UNL1        0.0000
     12  C          8.3680   -0.3390   -2.3900 C.2     1  UNL1        0.0000
@<TRIPOS>BOND
     1    12    10    2
     2    12    11    1
     3    10     8    1
     4    11     9    2
     5     8     7    2
     6     9     7    1
     7     7     6    1
     8     1     6    1
     9     1     2    1
    10     2     4    1
    11     2     3    2
    12     4     5    1
