@<TRIPOS>MOLECULE
/home/cewinharhar/GITHUB/reincatalyze/data/processed/docking_pred/2023_Apr_20-15:07/bfaa3bc067c86e8b5ef89a85d12e30cfe25fe09e_ligand_2.pdbqt
 12 12 0 0 0
SMALL
GASTEIGER

@<TRIPOS>ATOM
      1  C          8.4380   -0.6060   -2.1750 C.3     1  UNL1        0.1270
      2  C          8.4780   -1.8890   -2.9170 C.2     1  UNL1        0.3030
      3  O          9.5580   -2.5060   -3.0930 O.2     1  UNL1       -0.2520
      4  O          7.3210   -2.4430   -3.4390 O.3     1  UNL1       -0.4810
      5  H          6.8950   -3.2480   -2.9710 H       1  UNL1        0.2960
      6  C          7.0190   -0.1270   -2.1390 C.3     1  UNL1        0.0470
      7  C          6.4810    0.0370   -0.7900 C.2     1  UNL1       -0.0470
      8  C          6.6100   -0.9640    0.1450 C.2     1  UNL1        0.0040
      9  C          5.8430    1.2100   -0.4600 C.2     1  UNL1        0.0040
     10  C          6.0730   -0.7380    1.4150 C.2     1  UNL1        0.0000
     11  C          5.3130    1.4320    0.7960 C.2     1  UNL1        0.0000
     12  C          5.4360    0.4340    1.7380 C.2     1  UNL1        0.0000
@<TRIPOS>BOND
     1     4     5    1
     2     4     2    1
     3     3     2    2
     4     2     1    1
     5     1     6    1
     6     6     7    1
     7     7     9    2
     8     7     8    1
     9     9    11    1
    10     8    10    2
    11    11    12    2
    12    10    12    1
