MODEL 1
REMARK VINA RESULT:      -7.4      0.000      0.000
REMARK SMILES O=C(O)CCc1ccccc1
REMARK SMILES IDX 4 1 2 2 1 3 3 4 5 6 6 7 7 8 11 9 8 10 10 11 9 12
REMARK H PARENT 3 5
REMARK Flexibility Score: inf
ROOT
ATOM      1  C   UNL     1       8.438  -0.606  -2.175  1.00  0.00     0.127 C 
ENDROOT
BRANCH   1   2
ATOM      2  C   UNL     1       8.478  -1.889  -2.917  1.00  0.00     0.303 C 
ATOM      3  O   UNL     1       9.558  -2.506  -3.093  1.00  0.00    -0.252 OA
BRANCH   2   4
ATOM      4  O   UNL     1       7.321  -2.443  -3.439  1.00  0.00    -0.481 OA
ATOM      5  H   UNL     1       6.895  -3.248  -2.971  1.00  0.00     0.296 HD
ENDBRANCH   2   4
ENDBRANCH   1   2
BRANCH   1   6
ATOM      6  C   UNL     1       7.019  -0.127  -2.139  1.00  0.00     0.047 C 
BRANCH   6   7
ATOM      7  C   UNL     1       6.481   0.037  -0.790  1.00  0.00    -0.047 A 
ATOM      8  C   UNL     1       6.610  -0.964   0.145  1.00  0.00     0.004 A 
ATOM      9  C   UNL     1       5.843   1.210  -0.460  1.00  0.00     0.004 A 
ATOM     10  C   UNL     1       6.073  -0.738   1.415  1.00  0.00     0.000 A 
ATOM     11  C   UNL     1       5.313   1.432   0.796  1.00  0.00     0.000 A 
ATOM     12  C   UNL     1       5.436   0.434   1.738  1.00  0.00     0.000 A 
ENDBRANCH   6   7
ENDBRANCH   1   6
TORSDOF 4
ENDMDL
MODEL 2
REMARK VINA RESULT:      -7.3      0.132      1.732
REMARK SMILES O=C(O)CCc1ccccc1
REMARK SMILES IDX 4 1 2 2 1 3 3 4 5 6 6 7 7 8 11 9 8 10 10 11 9 12
REMARK H PARENT 3 5
REMARK Flexibility Score: inf
ROOT
ATOM      1  C   UNL     1       8.429  -0.697  -2.029  1.00  0.00     0.127 C 
ENDROOT
BRANCH   1   2
ATOM      2  C   UNL     1       8.377  -1.922  -2.861  1.00  0.00     0.303 C 
ATOM      3  O   UNL     1       7.282  -2.404  -3.242  1.00  0.00    -0.252 OA
BRANCH   2   4
ATOM      4  O   UNL     1       9.541  -2.571  -3.243  1.00  0.00    -0.481 OA
ATOM      5  H   UNL     1       9.503  -3.564  -3.490  1.00  0.00     0.296 HD
ENDBRANCH   2   4
ENDBRANCH   1   2
BRANCH   1   6
ATOM      6  C   UNL     1       7.075  -0.057  -2.048  1.00  0.00     0.047 C 
BRANCH   6   7
ATOM      7  C   UNL     1       6.478   0.113  -0.725  1.00  0.00    -0.047 A 
ATOM      8  C   UNL     1       5.801   1.266  -0.400  1.00  0.00     0.004 A 
ATOM      9  C   UNL     1       6.598  -0.899   0.200  1.00  0.00     0.004 A 
ATOM     10  C   UNL     1       5.256   1.359   0.882  1.00  0.00     0.000 A 
ATOM     11  C   UNL     1       6.059  -0.805   1.468  1.00  0.00     0.000 A 
ATOM     12  C   UNL     1       5.380   0.347   1.801  1.00  0.00     0.000 A 
ENDBRANCH   6   7
ENDBRANCH   1   6
TORSDOF 4
ENDMDL
MODEL 3
REMARK VINA RESULT:      -6.8      3.385      5.072
REMARK SMILES O=C(O)CCc1ccccc1
REMARK SMILES IDX 4 1 2 2 1 3 3 4 5 6 6 7 7 8 11 9 8 10 10 11 9 12
REMARK H PARENT 3 5
REMARK Flexibility Score: inf
ROOT
ATOM      1  C   UNL     1       5.005   1.819   0.697  1.00  0.00     0.127 C 
ENDROOT
BRANCH   1   2
ATOM      2  C   UNL     1       4.492   1.137   1.908  1.00  0.00     0.303 C 
ATOM      3  O   UNL     1       5.157   0.238   2.480  1.00  0.00    -0.252 OA
BRANCH   2   4
ATOM      4  O   UNL     1       3.259   1.473   2.444  1.00  0.00    -0.481 OA
ATOM      5  H   UNL     1       3.036   2.459   2.608  1.00  0.00     0.296 HD
ENDBRANCH   2   4
ENDBRANCH   1   2
BRANCH   1   6
ATOM      6  C   UNL     1       6.503   1.796   0.743  1.00  0.00     0.047 C 
BRANCH   6   7
ATOM      7  C   UNL     1       7.120   1.042  -0.347  1.00  0.00    -0.047 A 
ATOM      8  C   UNL     1       6.380   0.159  -1.099  1.00  0.00     0.004 A 
ATOM      9  C   UNL     1       8.456   1.227  -0.618  1.00  0.00     0.004 A 
ATOM     10  C   UNL     1       7.035  -0.526  -2.125  1.00  0.00     0.000 A 
ATOM     11  C   UNL     1       9.102   0.548  -1.633  1.00  0.00     0.000 A 
ATOM     12  C   UNL     1       8.368  -0.339  -2.390  1.00  0.00     0.000 A 
ENDBRANCH   6   7
ENDBRANCH   1   6
TORSDOF 4
ENDMDL
MODEL 4
REMARK VINA RESULT:      -6.7      1.939      2.294
REMARK SMILES O=C(O)CCc1ccccc1
REMARK SMILES IDX 4 1 2 2 1 3 3 4 5 6 6 7 7 8 11 9 8 10 10 11 9 12
REMARK H PARENT 3 5
REMARK Flexibility Score: inf
ROOT
ATOM      1  C   UNL     1       8.255   0.145  -2.158  1.00  0.00     0.127 C 
ENDROOT
BRANCH   1   2
ATOM      2  C   UNL     1       9.385   0.320  -1.214  1.00  0.00     0.303 C 
ATOM      3  O   UNL     1       9.485  -0.388  -0.181  1.00  0.00    -0.252 OA
BRANCH   2   4
ATOM      4  O   UNL     1      10.363   1.273  -1.446  1.00  0.00    -0.481 OA
ATOM      5  H   UNL     1      11.260   1.199  -0.959  1.00  0.00     0.296 HD
ENDBRANCH   2   4
ENDBRANCH   1   2
BRANCH   1   6
ATOM      6  C   UNL     1       7.169  -0.611  -1.456  1.00  0.00     0.047 C 
BRANCH   6   7
ATOM      7  C   UNL     1       6.378   0.202  -0.534  1.00  0.00    -0.047 A 
ATOM      8  C   UNL     1       6.154  -0.215   0.757  1.00  0.00     0.004 A 
ATOM      9  C   UNL     1       5.857   1.398  -0.972  1.00  0.00     0.004 A 
ATOM     10  C   UNL     1       5.390   0.613   1.583  1.00  0.00     0.000 A 
ATOM     11  C   UNL     1       5.102   2.215  -0.154  1.00  0.00     0.000 A 
ATOM     12  C   UNL     1       4.873   1.804   1.141  1.00  0.00     0.000 A 
ENDBRANCH   6   7
ENDBRANCH   1   6
TORSDOF 4
ENDMDL
MODEL 5
REMARK VINA RESULT:      -6.5      3.679      4.946
REMARK SMILES O=C(O)CCc1ccccc1
REMARK SMILES IDX 4 1 2 2 1 3 3 4 5 6 6 7 7 8 11 9 8 10 10 11 9 12
REMARK H PARENT 3 5
REMARK Flexibility Score: inf
ROOT
ATOM      1  C   UNL     1       5.380   2.801   0.028  1.00  0.00     0.127 C 
ENDROOT
BRANCH   1   2
ATOM      2  C   UNL     1       6.178   3.746   0.843  1.00  0.00     0.303 C 
ATOM      3  O   UNL     1       6.233   3.643   2.093  1.00  0.00    -0.252 OA
BRANCH   2   4
ATOM      4  O   UNL     1       6.889   4.775   0.244  1.00  0.00    -0.481 OA
ATOM      5  H   UNL     1       7.558   5.312   0.802  1.00  0.00     0.296 HD
ENDBRANCH   2   4
ENDBRANCH   1   2
BRANCH   1   6
ATOM      6  C   UNL     1       5.275   1.507   0.776  1.00  0.00     0.047 C 
BRANCH   6   7
ATOM      7  C   UNL     1       6.078   0.425   0.210  1.00  0.00    -0.047 A 
ATOM      8  C   UNL     1       6.526  -0.607   1.001  1.00  0.00     0.004 A 
ATOM      9  C   UNL     1       6.384   0.447  -1.132  1.00  0.00     0.004 A 
ATOM     10  C   UNL     1       7.287  -1.608   0.392  1.00  0.00     0.000 A 
ATOM     11  C   UNL     1       7.137  -0.542  -1.732  1.00  0.00     0.000 A 
ATOM     12  C   UNL     1       7.590  -1.580  -0.946  1.00  0.00     0.000 A 
ENDBRANCH   6   7
ENDBRANCH   1   6
TORSDOF 4
ENDMDL
