@<TRIPOS>MOLECULE
/home/cewinharhar/GITHUB/reincatalyze/data/processed/docking_pred/2023_Apr_20-15:07/c2b16f598521213e119e3a09a49f7e8c9c89cc3b_ligand_2.pdbqt
 12 12 0 0 0
SMALL
GASTEIGER

@<TRIPOS>ATOM
      1  C          8.4440   -0.6000   -2.1890 C.3     1  UNL1        0.1270
      2  C          8.4770   -1.8880   -2.9190 C.2     1  UNL1        0.3030
      3  O          9.5580   -2.4990   -3.1120 O.2     1  UNL1       -0.2520
      4  O          7.3130   -2.4560   -3.4120 O.3     1  UNL1       -0.4810
      5  H          6.9890   -3.3480   -3.0280 H       1  UNL1        0.2960
      6  C          7.0250   -0.1200   -2.1450 C.3     1  UNL1        0.0470
      7  C          6.4890    0.0280   -0.7920 C.2     1  UNL1       -0.0470
      8  C          6.6360   -0.9760    0.1360 C.2     1  UNL1        0.0040
      9  C          5.8350    1.1900   -0.4530 C.2     1  UNL1        0.0040
     10  C          6.1000   -0.7660    1.4090 C.2     1  UNL1        0.0000
     11  C          5.3060    1.3960    0.8050 C.2     1  UNL1        0.0000
     12  C          5.4470    0.3950    1.7410 C.2     1  UNL1        0.0000
@<TRIPOS>BOND
     1     4     5    1
     2     4     2    1
     3     3     2    2
     4     2     1    1
     5     1     6    1
     6     6     7    1
     7     7     9    2
     8     7     8    1
     9     9    11    1
    10     8    10    2
    11    11    12    2
    12    10    12    1
