MODEL 1
REMARK VINA RESULT:      -7.4      0.000      0.000
REMARK SMILES O=C(O)CCc1ccccc1
REMARK SMILES IDX 4 1 2 2 1 3 3 4 5 6 6 7 7 8 11 9 8 10 10 11 9 12
REMARK H PARENT 3 5
REMARK Flexibility Score: inf
ROOT
ATOM      1  C   UNL     1       8.444  -0.600  -2.189  1.00  0.00     0.127 C 
ENDROOT
BRANCH   1   2
ATOM      2  C   UNL     1       8.477  -1.888  -2.919  1.00  0.00     0.303 C 
ATOM      3  O   UNL     1       9.558  -2.499  -3.112  1.00  0.00    -0.252 OA
BRANCH   2   4
ATOM      4  O   UNL     1       7.313  -2.456  -3.412  1.00  0.00    -0.481 OA
ATOM      5  H   UNL     1       6.989  -3.348  -3.028  1.00  0.00     0.296 HD
ENDBRANCH   2   4
ENDBRANCH   1   2
BRANCH   1   6
ATOM      6  C   UNL     1       7.025  -0.120  -2.145  1.00  0.00     0.047 C 
BRANCH   6   7
ATOM      7  C   UNL     1       6.489   0.028  -0.792  1.00  0.00    -0.047 A 
ATOM      8  C   UNL     1       6.636  -0.976   0.136  1.00  0.00     0.004 A 
ATOM      9  C   UNL     1       5.835   1.190  -0.453  1.00  0.00     0.004 A 
ATOM     10  C   UNL     1       6.100  -0.766   1.409  1.00  0.00     0.000 A 
ATOM     11  C   UNL     1       5.306   1.396   0.805  1.00  0.00     0.000 A 
ATOM     12  C   UNL     1       5.447   0.395   1.741  1.00  0.00     0.000 A 
ENDBRANCH   6   7
ENDBRANCH   1   6
TORSDOF 4
ENDMDL
MODEL 2
REMARK VINA RESULT:      -7.3      0.090      1.438
REMARK SMILES O=C(O)CCc1ccccc1
REMARK SMILES IDX 4 1 2 2 1 3 3 4 5 6 6 7 7 8 11 9 8 10 10 11 9 12
REMARK H PARENT 3 5
REMARK Flexibility Score: inf
ROOT
ATOM      1  C   UNL     1       8.432  -0.569  -2.238  1.00  0.00     0.127 C 
ENDROOT
BRANCH   1   2
ATOM      2  C   UNL     1       8.481  -1.883  -2.921  1.00  0.00     0.303 C 
ATOM      3  O   UNL     1       9.567  -2.494  -3.081  1.00  0.00    -0.252 OA
BRANCH   2   4
ATOM      4  O   UNL     1       7.325  -2.476  -3.404  1.00  0.00    -0.481 OA
ATOM      5  H   UNL     1       7.343  -3.463  -3.672  1.00  0.00     0.296 HD
ENDBRANCH   2   4
ENDBRANCH   1   2
BRANCH   1   6
ATOM      6  C   UNL     1       7.003  -0.124  -2.175  1.00  0.00     0.047 C 
BRANCH   6   7
ATOM      7  C   UNL     1       6.496   0.055  -0.816  1.00  0.00    -0.047 A 
ATOM      8  C   UNL     1       5.915   1.242  -0.432  1.00  0.00     0.004 A 
ATOM      9  C   UNL     1       6.602  -0.982   0.082  1.00  0.00     0.004 A 
ATOM     10  C   UNL     1       5.452   1.342   0.882  1.00  0.00     0.000 A 
ATOM     11  C   UNL     1       6.144  -0.881   1.381  1.00  0.00     0.000 A 
ATOM     12  C   UNL     1       5.562   0.305   1.774  1.00  0.00     0.000 A 
ENDBRANCH   6   7
ENDBRANCH   1   6
TORSDOF 4
ENDMDL
MODEL 3
REMARK VINA RESULT:      -6.9      1.010      1.611
REMARK SMILES O=C(O)CCc1ccccc1
REMARK SMILES IDX 4 1 2 2 1 3 3 4 5 6 6 7 7 8 11 9 8 10 10 11 9 12
REMARK H PARENT 3 5
REMARK Flexibility Score: inf
ROOT
ATOM      1  C   UNL     1       7.326  -1.379  -2.102  1.00  0.00     0.127 C 
ENDROOT
BRANCH   1   2
ATOM      2  C   UNL     1       8.763  -1.390  -2.463  1.00  0.00     0.303 C 
ATOM      3  O   UNL     1       9.253  -2.315  -3.157  1.00  0.00    -0.252 OA
BRANCH   2   4
ATOM      4  O   UNL     1       9.608  -0.375  -2.043  1.00  0.00    -0.481 OA
ATOM      5  H   UNL     1      10.172  -0.510  -1.200  1.00  0.00     0.296 HD
ENDBRANCH   2   4
ENDBRANCH   1   2
BRANCH   1   6
ATOM      6  C   UNL     1       7.215  -1.422  -0.609  1.00  0.00     0.047 C 
BRANCH   6   7
ATOM      7  C   UNL     1       6.436  -0.324  -0.039  1.00  0.00    -0.047 A 
ATOM      8  C   UNL     1       5.970  -0.390   1.254  1.00  0.00     0.004 A 
ATOM      9  C   UNL     1       6.175   0.785  -0.810  1.00  0.00     0.004 A 
ATOM     10  C   UNL     1       5.234   0.696   1.733  1.00  0.00     0.000 A 
ATOM     11  C   UNL     1       5.446   1.857  -0.335  1.00  0.00     0.000 A 
ATOM     12  C   UNL     1       4.975   1.799   0.959  1.00  0.00     0.000 A 
ENDBRANCH   6   7
ENDBRANCH   1   6
TORSDOF 4
ENDMDL
MODEL 4
REMARK VINA RESULT:      -6.8      3.377      5.077
REMARK SMILES O=C(O)CCc1ccccc1
REMARK SMILES IDX 4 1 2 2 1 3 3 4 5 6 6 7 7 8 11 9 8 10 10 11 9 12
REMARK H PARENT 3 5
REMARK Flexibility Score: inf
ROOT
ATOM      1  C   UNL     1       4.994   1.770   0.702  1.00  0.00     0.127 C 
ENDROOT
BRANCH   1   2
ATOM      2  C   UNL     1       4.481   1.095   1.917  1.00  0.00     0.303 C 
ATOM      3  O   UNL     1       5.138   0.185   2.482  1.00  0.00    -0.252 OA
BRANCH   2   4
ATOM      4  O   UNL     1       3.259   1.450   2.465  1.00  0.00    -0.481 OA
ATOM      5  H   UNL     1       3.227   2.165   3.196  1.00  0.00     0.296 HD
ENDBRANCH   2   4
ENDBRANCH   1   2
BRANCH   1   6
ATOM      6  C   UNL     1       6.491   1.786   0.768  1.00  0.00     0.047 C 
BRANCH   6   7
ATOM      7  C   UNL     1       7.142   1.057  -0.319  1.00  0.00    -0.047 A 
ATOM      8  C   UNL     1       8.474   1.255  -0.599  1.00  0.00     0.004 A 
ATOM      9  C   UNL     1       6.407   0.165  -1.064  1.00  0.00     0.004 A 
ATOM     10  C   UNL     1       9.031   0.524  -1.651  1.00  0.00     0.000 A 
ATOM     11  C   UNL     1       6.958  -0.557  -2.104  1.00  0.00     0.000 A 
ATOM     12  C   UNL     1       8.292  -0.364  -2.391  1.00  0.00     0.000 A 
ENDBRANCH   6   7
ENDBRANCH   1   6
TORSDOF 4
ENDMDL
MODEL 5
REMARK VINA RESULT:      -6.5      3.714      5.118
REMARK SMILES O=C(O)CCc1ccccc1
REMARK SMILES IDX 4 1 2 2 1 3 3 4 5 6 6 7 7 8 11 9 8 10 10 11 9 12
REMARK H PARENT 3 5
REMARK Flexibility Score: inf
ROOT
ATOM      1  C   UNL     1       5.323   2.906   0.136  1.00  0.00     0.127 C 
ENDROOT
BRANCH   1   2
ATOM      2  C   UNL     1       6.217   3.832   0.872  1.00  0.00     0.303 C 
ATOM      3  O   UNL     1       6.848   4.739   0.275  1.00  0.00    -0.252 OA
BRANCH   2   4
ATOM      4  O   UNL     1       6.380   3.720   2.243  1.00  0.00    -0.481 OA
ATOM      5  H   UNL     1       6.223   2.815   2.694  1.00  0.00     0.296 HD
ENDBRANCH   2   4
ENDBRANCH   1   2
BRANCH   1   6
ATOM      6  C   UNL     1       5.343   1.580   0.832  1.00  0.00     0.047 C 
BRANCH   6   7
ATOM      7  C   UNL     1       6.088   0.544   0.118  1.00  0.00    -0.047 A 
ATOM      8  C   UNL     1       6.308   0.644  -1.237  1.00  0.00     0.004 A 
ATOM      9  C   UNL     1       6.572  -0.537   0.816  1.00  0.00     0.004 A 
ATOM     10  C   UNL     1       7.028  -0.381  -1.853  1.00  0.00     0.000 A 
ATOM     11  C   UNL     1       7.284  -1.550   0.205  1.00  0.00     0.000 A 
ATOM     12  C   UNL     1       7.508  -1.458  -1.152  1.00  0.00     0.000 A 
ENDBRANCH   6   7
ENDBRANCH   1   6
TORSDOF 4
ENDMDL
