@<TRIPOS>MOLECULE
/home/cewinharhar/GITHUB/reincatalyze/data/processed/docking_pred/2023_Apr_20-15:07/c2b16f598521213e119e3a09a49f7e8c9c89cc3b_ligand_2.pdbqt
 12 12 0 0 0
SMALL
GASTEIGER

@<TRIPOS>ATOM
      1  C          4.9940    1.7700    0.7020 C.3     1  UNL1        0.1270
      2  C          4.4810    1.0950    1.9170 C.2     1  UNL1        0.3030
      3  O          5.1380    0.1850    2.4820 O.2     1  UNL1       -0.2520
      4  O          3.2590    1.4500    2.4650 O.3     1  UNL1       -0.4810
      5  H          3.2270    2.1650    3.1960 H       1  UNL1        0.2960
      6  C          6.4910    1.7860    0.7680 C.3     1  UNL1        0.0470
      7  C          7.1420    1.0570   -0.3190 C.2     1  UNL1       -0.0470
      8  C          8.4740    1.2550   -0.5990 C.2     1  UNL1        0.0040
      9  C          6.4070    0.1650   -1.0640 C.2     1  UNL1        0.0040
     10  C          9.0310    0.5240   -1.6510 C.2     1  UNL1        0.0000
     11  C          6.9580   -0.5570   -2.1040 C.2     1  UNL1        0.0000
     12  C          8.2920   -0.3640   -2.3910 C.2     1  UNL1        0.0000
@<TRIPOS>BOND
     1    12    11    2
     2    12    10    1
     3    11     9    1
     4    10     8    2
     5     9     7    2
     6     8     7    1
     7     7     6    1
     8     1     6    1
     9     1     2    1
    10     2     4    1
    11     2     3    2
    12     4     5    1
