@<TRIPOS>MOLECULE
/home/cewinharhar/GITHUB/reincatalyze/data/processed/docking_pred/2023_Apr_20-15:07/c2b16f598521213e119e3a09a49f7e8c9c89cc3b_ligand_2.pdbqt
 12 12 0 0 0
SMALL
GASTEIGER

@<TRIPOS>ATOM
      1  C          7.3260   -1.3790   -2.1020 C.3     1  UNL1        0.1270
      2  C          8.7630   -1.3900   -2.4630 C.2     1  UNL1        0.3030
      3  O          9.2530   -2.3150   -3.1570 O.2     1  UNL1       -0.2520
      4  O          9.6080   -0.3750   -2.0430 O.3     1  UNL1       -0.4810
      5  H         10.1720   -0.5100   -1.2000 H       1  UNL1        0.2960
      6  C          7.2150   -1.4220   -0.6090 C.3     1  UNL1        0.0470
      7  C          6.4360   -0.3240   -0.0390 C.2     1  UNL1       -0.0470
      8  C          5.9700   -0.3900    1.2540 C.2     1  UNL1        0.0040
      9  C          6.1750    0.7850   -0.8100 C.2     1  UNL1        0.0040
     10  C          5.2340    0.6960    1.7330 C.2     1  UNL1        0.0000
     11  C          5.4460    1.8570   -0.3350 C.2     1  UNL1        0.0000
     12  C          4.9750    1.7990    0.9590 C.2     1  UNL1        0.0000
@<TRIPOS>BOND
     1     3     2    2
     2     2     1    1
     3     2     4    1
     4     1     6    1
     5     4     5    1
     6     9    11    1
     7     9     7    2
     8     6     7    1
     9    11    12    2
    10     7     8    1
    11    12    10    1
    12     8    10    2
