@<TRIPOS>MOLECULE
/home/cewinharhar/GITHUB/reincatalyze/data/processed/docking_pred/2023_Apr_20-15:07/c2b16f598521213e119e3a09a49f7e8c9c89cc3b_ligand_2.pdbqt
 12 12 0 0 0
SMALL
GASTEIGER

@<TRIPOS>ATOM
      1  C          5.3230    2.9060    0.1360 C.3     1  UNL1        0.1270
      2  C          6.2170    3.8320    0.8720 C.2     1  UNL1        0.3030
      3  O          6.8480    4.7390    0.2750 O.2     1  UNL1       -0.2520
      4  O          6.3800    3.7200    2.2430 O.3     1  UNL1       -0.4810
      5  H          6.2230    2.8150    2.6940 H       1  UNL1        0.2960
      6  C          5.3430    1.5800    0.8320 C.3     1  UNL1        0.0470
      7  C          6.0880    0.5440    0.1180 C.2     1  UNL1       -0.0470
      8  C          6.3080    0.6440   -1.2370 C.2     1  UNL1        0.0040
      9  C          6.5720   -0.5370    0.8160 C.2     1  UNL1        0.0040
     10  C          7.0280   -0.3810   -1.8530 C.2     1  UNL1        0.0000
     11  C          7.2840   -1.5500    0.2050 C.2     1  UNL1        0.0000
     12  C          7.5080   -1.4580   -1.1520 C.2     1  UNL1        0.0000
@<TRIPOS>BOND
     1    10     8    1
     2    10    12    2
     3     8     7    2
     4    12    11    1
     5     7     9    1
     6     7     6    1
     7     1     6    1
     8     1     2    1
     9    11     9    2
    10     3     2    2
    11     2     4    1
    12     4     5    1
