@<TRIPOS>MOLECULE
/home/cewinharhar/GITHUB/reincatalyze/data/processed/docking_pred/2023_Apr_20-15:07/c2b16f598521213e119e3a09a49f7e8c9c89cc3b_ligand_2.pdbqt
 12 12 0 0 0
SMALL
GASTEIGER

@<TRIPOS>ATOM
      1  C          8.4320   -0.5690   -2.2380 C.3     1  UNL1        0.1270
      2  C          8.4810   -1.8830   -2.9210 C.2     1  UNL1        0.3030
      3  O          9.5670   -2.4940   -3.0810 O.2     1  UNL1       -0.2520
      4  O          7.3250   -2.4760   -3.4040 O.3     1  UNL1       -0.4810
      5  H          7.3430   -3.4630   -3.6720 H       1  UNL1        0.2960
      6  C          7.0030   -0.1240   -2.1750 C.3     1  UNL1        0.0470
      7  C          6.4960    0.0550   -0.8160 C.2     1  UNL1       -0.0470
      8  C          5.9150    1.2420   -0.4320 C.2     1  UNL1        0.0040
      9  C          6.6020   -0.9820    0.0820 C.2     1  UNL1        0.0040
     10  C          5.4520    1.3420    0.8820 C.2     1  UNL1        0.0000
     11  C          6.1440   -0.8810    1.3810 C.2     1  UNL1        0.0000
     12  C          5.5620    0.3050    1.7740 C.2     1  UNL1        0.0000
@<TRIPOS>BOND
     1     5     4    1
     2     4     2    1
     3     3     2    2
     4     2     1    1
     5     1     6    1
     6     6     7    1
     7     7     8    2
     8     7     9    1
     9     8    10    1
    10     9    11    2
    11    10    12    2
    12    11    12    1
