@<TRIPOS>MOLECULE
/home/cewinharhar/GITHUB/reincatalyze/data/processed/docking_pred/2023_Apr_20-15:07/c584487daa348165e33ca71579c90fd99cb4babd_ligand_2.pdbqt
 12 12 0 0 0
SMALL
GASTEIGER

@<TRIPOS>ATOM
      1  C          8.4700   -0.7040   -2.0390 C.3     1  UNL1        0.1270
      2  C          8.4820   -1.9360   -2.8620 C.2     1  UNL1        0.3030
      3  O          9.5500   -2.5560   -3.0910 O.2     1  UNL1       -0.2520
      4  O          7.3100   -2.4380   -3.4050 O.3     1  UNL1       -0.4810
      5  H          6.8160   -1.8960   -4.1190 H       1  UNL1        0.2960
      6  C          7.0830   -0.1390   -2.0560 C.3     1  UNL1        0.0470
      7  C          6.4940    0.0340   -0.7290 C.2     1  UNL1       -0.0470
      8  C          6.5950   -0.9570    0.2200 C.2     1  UNL1        0.0040
      9  C          5.8370    1.2060   -0.4330 C.2     1  UNL1        0.0040
     10  C          6.0110   -0.7230    1.4660 C.2     1  UNL1        0.0000
     11  C          5.2590    1.4350    0.8000 C.2     1  UNL1        0.0000
     12  C          5.3550    0.4470    1.7550 C.2     1  UNL1        0.0000
@<TRIPOS>BOND
     1     5     4    1
     2     4     2    1
     3     3     2    2
     4     2     1    1
     5     6     1    1
     6     6     7    1
     7     7     9    2
     8     7     8    1
     9     9    11    1
    10     8    10    2
    11    11    12    2
    12    10    12    1
