@<TRIPOS>MOLECULE
/home/cewinharhar/GITHUB/reincatalyze/data/processed/docking_pred/2023_Apr_20-15:07/c584487daa348165e33ca71579c90fd99cb4babd_ligand_2.pdbqt
 12 12 0 0 0
SMALL
GASTEIGER

@<TRIPOS>ATOM
      1  C          8.2470    0.1290   -2.1470 C.3     1  UNL1        0.1270
      2  C          9.3780    0.3220   -1.2100 C.2     1  UNL1        0.3030
      3  O          9.4950   -0.3830   -0.1770 O.2     1  UNL1       -0.2520
      4  O         10.3400    1.2910   -1.4480 O.3     1  UNL1       -0.4810
      5  H         10.0870    2.2790   -1.3640 H       1  UNL1        0.2960
      6  C          7.1630   -0.6180   -1.4310 C.3     1  UNL1        0.0470
      7  C          6.3690    0.2100   -0.5250 C.2     1  UNL1       -0.0470
      8  C          6.1330   -0.1900    0.7690 C.2     1  UNL1        0.0040
      9  C          5.8570    1.4030   -0.9820 C.2     1  UNL1        0.0040
     10  C          5.3660    0.6510    1.5780 C.2     1  UNL1        0.0000
     11  C          5.0990    2.2330   -0.1810 C.2     1  UNL1        0.0000
     12  C          4.8570    1.8390    1.1180 C.2     1  UNL1        0.0000
@<TRIPOS>BOND
     1     1     6    1
     2     1     2    1
     3     4     5    1
     4     4     2    1
     5     6     7    1
     6     2     3    2
     7     9     7    2
     8     9    11    1
     9     7     8    1
    10    11    12    2
    11     8    10    2
    12    12    10    1
