MODEL 1
REMARK VINA RESULT:      -7.4      0.000      0.000
REMARK SMILES O=C(O)CCc1ccccc1
REMARK SMILES IDX 4 1 2 2 1 3 3 4 5 6 6 7 7 8 11 9 8 10 10 11 9 12
REMARK H PARENT 3 5
REMARK Flexibility Score: inf
ROOT
ATOM      1  C   UNL     1       8.436  -0.626  -2.125  1.00  0.00     0.127 C 
ENDROOT
BRANCH   1   2
ATOM      2  C   UNL     1       8.473  -1.899  -2.881  1.00  0.00     0.303 C 
ATOM      3  O   UNL     1       9.553  -2.514  -3.067  1.00  0.00    -0.252 OA
BRANCH   2   4
ATOM      4  O   UNL     1       7.314  -2.448  -3.406  1.00  0.00    -0.481 OA
ATOM      5  H   UNL     1       6.577  -2.765  -2.769  1.00  0.00     0.296 HD
ENDBRANCH   2   4
ENDBRANCH   1   2
BRANCH   1   6
ATOM      6  C   UNL     1       7.025  -0.120  -2.123  1.00  0.00     0.047 C 
BRANCH   6   7
ATOM      7  C   UNL     1       6.470   0.090  -0.787  1.00  0.00    -0.047 A 
ATOM      8  C   UNL     1       5.836   1.268  -0.467  1.00  0.00     0.004 A 
ATOM      9  C   UNL     1       6.587  -0.907   0.153  1.00  0.00     0.004 A 
ATOM     10  C   UNL     1       5.329   1.400   0.828  1.00  0.00     0.000 A 
ATOM     11  C   UNL     1       6.086  -0.775   1.433  1.00  0.00     0.000 A 
ATOM     12  C   UNL     1       5.449   0.402   1.762  1.00  0.00     0.000 A 
ENDBRANCH   6   7
ENDBRANCH   1   6
TORSDOF 4
ENDMDL
MODEL 2
REMARK VINA RESULT:      -7.3      0.082      1.439
REMARK SMILES O=C(O)CCc1ccccc1
REMARK SMILES IDX 4 1 2 2 1 3 3 4 5 6 6 7 7 8 11 9 8 10 10 11 9 12
REMARK H PARENT 3 5
REMARK Flexibility Score: inf
ROOT
ATOM      1  C   UNL     1       8.470  -0.704  -2.039  1.00  0.00     0.127 C 
ENDROOT
BRANCH   1   2
ATOM      2  C   UNL     1       8.482  -1.936  -2.862  1.00  0.00     0.303 C 
ATOM      3  O   UNL     1       9.550  -2.556  -3.091  1.00  0.00    -0.252 OA
BRANCH   2   4
ATOM      4  O   UNL     1       7.310  -2.438  -3.405  1.00  0.00    -0.481 OA
ATOM      5  H   UNL     1       6.816  -1.896  -4.119  1.00  0.00     0.296 HD
ENDBRANCH   2   4
ENDBRANCH   1   2
BRANCH   1   6
ATOM      6  C   UNL     1       7.083  -0.139  -2.056  1.00  0.00     0.047 C 
BRANCH   6   7
ATOM      7  C   UNL     1       6.494   0.034  -0.729  1.00  0.00    -0.047 A 
ATOM      8  C   UNL     1       6.595  -0.957   0.220  1.00  0.00     0.004 A 
ATOM      9  C   UNL     1       5.837   1.206  -0.433  1.00  0.00     0.004 A 
ATOM     10  C   UNL     1       6.011  -0.723   1.466  1.00  0.00     0.000 A 
ATOM     11  C   UNL     1       5.259   1.435   0.800  1.00  0.00     0.000 A 
ATOM     12  C   UNL     1       5.355   0.447   1.755  1.00  0.00     0.000 A 
ENDBRANCH   6   7
ENDBRANCH   1   6
TORSDOF 4
ENDMDL
MODEL 3
REMARK VINA RESULT:      -6.7      3.339      5.013
REMARK SMILES O=C(O)CCc1ccccc1
REMARK SMILES IDX 4 1 2 2 1 3 3 4 5 6 6 7 7 8 11 9 8 10 10 11 9 12
REMARK H PARENT 3 5
REMARK Flexibility Score: inf
ROOT
ATOM      1  C   UNL     1       5.062   1.739   0.710  1.00  0.00     0.127 C 
ENDROOT
BRANCH   1   2
ATOM      2  C   UNL     1       4.584   1.042   1.928  1.00  0.00     0.303 C 
ATOM      3  O   UNL     1       5.283   0.163   2.491  1.00  0.00    -0.252 OA
BRANCH   2   4
ATOM      4  O   UNL     1       3.349   1.341   2.479  1.00  0.00    -0.481 OA
ATOM      5  H   UNL     1       2.724   0.578   2.753  1.00  0.00     0.296 HD
ENDBRANCH   2   4
ENDBRANCH   1   2
BRANCH   1   6
ATOM      6  C   UNL     1       6.560   1.761   0.738  1.00  0.00     0.047 C 
BRANCH   6   7
ATOM      7  C   UNL     1       7.185   1.007  -0.347  1.00  0.00    -0.047 A 
ATOM      8  C   UNL     1       8.505   1.211  -0.676  1.00  0.00     0.004 A 
ATOM      9  C   UNL     1       6.438   0.082  -1.040  1.00  0.00     0.004 A 
ATOM     10  C   UNL     1       9.037   0.455  -1.723  1.00  0.00     0.000 A 
ATOM     11  C   UNL     1       6.965  -0.665  -2.074  1.00  0.00     0.000 A 
ATOM     12  C   UNL     1       8.287  -0.465  -2.411  1.00  0.00     0.000 A 
ENDBRANCH   6   7
ENDBRANCH   1   6
TORSDOF 4
ENDMDL
MODEL 4
REMARK VINA RESULT:      -6.7      1.937      2.652
REMARK SMILES O=C(O)CCc1ccccc1
REMARK SMILES IDX 4 1 2 2 1 3 3 4 5 6 6 7 7 8 11 9 8 10 10 11 9 12
REMARK H PARENT 3 5
REMARK Flexibility Score: inf
ROOT
ATOM      1  C   UNL     1       8.247   0.129  -2.147  1.00  0.00     0.127 C 
ENDROOT
BRANCH   1   2
ATOM      2  C   UNL     1       9.378   0.322  -1.210  1.00  0.00     0.303 C 
ATOM      3  O   UNL     1       9.495  -0.383  -0.177  1.00  0.00    -0.252 OA
BRANCH   2   4
ATOM      4  O   UNL     1      10.340   1.291  -1.448  1.00  0.00    -0.481 OA
ATOM      5  H   UNL     1      10.087   2.279  -1.364  1.00  0.00     0.296 HD
ENDBRANCH   2   4
ENDBRANCH   1   2
BRANCH   1   6
ATOM      6  C   UNL     1       7.163  -0.618  -1.431  1.00  0.00     0.047 C 
BRANCH   6   7
ATOM      7  C   UNL     1       6.369   0.210  -0.525  1.00  0.00    -0.047 A 
ATOM      8  C   UNL     1       6.133  -0.190   0.769  1.00  0.00     0.004 A 
ATOM      9  C   UNL     1       5.857   1.403  -0.982  1.00  0.00     0.004 A 
ATOM     10  C   UNL     1       5.366   0.651   1.578  1.00  0.00     0.000 A 
ATOM     11  C   UNL     1       5.099   2.233  -0.181  1.00  0.00     0.000 A 
ATOM     12  C   UNL     1       4.857   1.839   1.118  1.00  0.00     0.000 A 
ENDBRANCH   6   7
ENDBRANCH   1   6
TORSDOF 4
ENDMDL
MODEL 5
REMARK VINA RESULT:      -6.5      1.892      2.836
REMARK SMILES O=C(O)CCc1ccccc1
REMARK SMILES IDX 4 1 2 2 1 3 3 4 5 6 6 7 7 8 11 9 8 10 10 11 9 12
REMARK H PARENT 3 5
REMARK Flexibility Score: inf
ROOT
ATOM      1  C   UNL     1       8.179  -1.647   1.200  1.00  0.00     0.127 C 
ENDROOT
BRANCH   1   2
ATOM      2  C   UNL     1       8.507  -2.839   0.383  1.00  0.00     0.303 C 
ATOM      3  O   UNL     1       9.181  -3.787   0.856  1.00  0.00    -0.252 OA
BRANCH   2   4
ATOM      4  O   UNL     1       8.076  -2.940  -0.930  1.00  0.00    -0.481 OA
ATOM      5  H   UNL     1       8.674  -3.403  -1.619  1.00  0.00     0.296 HD
ENDBRANCH   2   4
ENDBRANCH   1   2
BRANCH   1   6
ATOM      6  C   UNL     1       6.688  -1.534   1.292  1.00  0.00     0.047 C 
BRANCH   6   7
ATOM      7  C   UNL     1       6.157  -0.262   0.805  1.00  0.00    -0.047 A 
ATOM      8  C   UNL     1       5.412   0.550   1.628  1.00  0.00     0.004 A 
ATOM      9  C   UNL     1       6.411   0.119  -0.492  1.00  0.00     0.004 A 
ATOM     10  C   UNL     1       4.937   1.751   1.096  1.00  0.00     0.000 A 
ATOM     11  C   UNL     1       5.941   1.306  -1.017  1.00  0.00     0.000 A 
ATOM     12  C   UNL     1       5.193   2.126  -0.199  1.00  0.00     0.000 A 
ENDBRANCH   6   7
ENDBRANCH   1   6
TORSDOF 4
ENDMDL
