@<TRIPOS>MOLECULE
/home/cewinharhar/GITHUB/reincatalyze/data/processed/docking_pred/2023_Apr_20-15:07/c584487daa348165e33ca71579c90fd99cb4babd_ligand_2.pdbqt
 12 12 0 0 0
SMALL
GASTEIGER

@<TRIPOS>ATOM
      1  C          5.0620    1.7390    0.7100 C.3     1  UNL1        0.1270
      2  C          4.5840    1.0420    1.9280 C.2     1  UNL1        0.3030
      3  O          5.2830    0.1630    2.4910 O.2     1  UNL1       -0.2520
      4  O          3.3490    1.3410    2.4790 O.3     1  UNL1       -0.4810
      5  H          2.7240    0.5780    2.7530 H       1  UNL1        0.2960
      6  C          6.5600    1.7610    0.7380 C.3     1  UNL1        0.0470
      7  C          7.1850    1.0070   -0.3470 C.2     1  UNL1       -0.0470
      8  C          8.5050    1.2110   -0.6760 C.2     1  UNL1        0.0040
      9  C          6.4380    0.0820   -1.0400 C.2     1  UNL1        0.0040
     10  C          9.0370    0.4550   -1.7230 C.2     1  UNL1        0.0000
     11  C          6.9650   -0.6650   -2.0740 C.2     1  UNL1        0.0000
     12  C          8.2870   -0.4650   -2.4110 C.2     1  UNL1        0.0000
@<TRIPOS>BOND
     1    12    11    2
     2    12    10    1
     3    11     9    1
     4    10     8    2
     5     9     7    2
     6     8     7    1
     7     7     6    1
     8     1     6    1
     9     1     2    1
    10     2     4    1
    11     2     3    2
    12     4     5    1
