@<TRIPOS>MOLECULE
/home/cewinharhar/GITHUB/reincatalyze/data/processed/docking_pred/2023_Apr_20-15:07/c584487daa348165e33ca71579c90fd99cb4babd_ligand_2.pdbqt
 12 12 0 0 0
SMALL
GASTEIGER

@<TRIPOS>ATOM
      1  C          8.1790   -1.6470    1.2000 C.3     1  UNL1        0.1270
      2  C          8.5070   -2.8390    0.3830 C.2     1  UNL1        0.3030
      3  O          9.1810   -3.7870    0.8560 O.2     1  UNL1       -0.2520
      4  O          8.0760   -2.9400   -0.9300 O.3     1  UNL1       -0.4810
      5  H          8.6740   -3.4030   -1.6190 H       1  UNL1        0.2960
      6  C          6.6880   -1.5340    1.2920 C.3     1  UNL1        0.0470
      7  C          6.1570   -0.2620    0.8050 C.2     1  UNL1       -0.0470
      8  C          5.4120    0.5500    1.6280 C.2     1  UNL1        0.0040
      9  C          6.4110    0.1190   -0.4920 C.2     1  UNL1        0.0040
     10  C          4.9370    1.7510    1.0960 C.2     1  UNL1        0.0000
     11  C          5.9410    1.3060   -1.0170 C.2     1  UNL1        0.0000
     12  C          5.1930    2.1260   -0.1990 C.2     1  UNL1        0.0000
@<TRIPOS>BOND
     1     5     4    1
     2    11     9    1
     3    11    12    2
     4     4     2    1
     5     9     7    2
     6    12    10    1
     7     2     3    2
     8     2     1    1
     9     7     6    1
    10     7     8    1
    11    10     8    2
    12     1     6    1
