@<TRIPOS>MOLECULE
/home/cewinharhar/GITHUB/reincatalyze/data/processed/docking_pred/2023_Apr_20-15:07/c5f7f675b3df69e676e62d17e40489667b0e6a6f_ligand_2.pdbqt
 12 12 0 0 0
SMALL
GASTEIGER

@<TRIPOS>ATOM
      1  C          4.9810    1.7620    0.6740 C.3     1  UNL1        0.1270
      2  C          4.4800    1.1050    1.9040 C.2     1  UNL1        0.3030
      3  O          5.1450    0.2080    2.4800 O.2     1  UNL1       -0.2520
      4  O          3.2590    1.4620    2.4530 O.3     1  UNL1       -0.4810
      5  H          2.7270    0.7690    2.9860 H       1  UNL1        0.2960
      6  C          6.4780    1.7750    0.7240 C.3     1  UNL1        0.0470
      7  C          7.1150    1.0110   -0.3470 C.2     1  UNL1       -0.0470
      8  C          6.4030    0.0760   -1.0640 C.2     1  UNL1        0.0040
      9  C          8.4410    1.2370   -0.6370 C.2     1  UNL1        0.0040
     10  C          7.0750   -0.6160   -2.0740 C.2     1  UNL1        0.0000
     11  C          9.1040    0.5520   -1.6360 C.2     1  UNL1        0.0000
     12  C          8.3980   -0.3870   -2.3580 C.2     1  UNL1        0.0000
@<TRIPOS>BOND
     1    12    10    2
     2    12    11    1
     3    10     8    1
     4    11     9    2
     5     8     7    2
     6     9     7    1
     7     7     6    1
     8     1     6    1
     9     1     2    1
    10     2     4    1
    11     2     3    2
    12     4     5    1
