MODEL 1
REMARK VINA RESULT:      -7.3      0.000      0.000
REMARK SMILES O=C(O)CCc1ccccc1
REMARK SMILES IDX 4 1 2 2 1 3 3 4 5 6 6 7 7 8 11 9 8 10 10 11 9 12
REMARK H PARENT 3 5
REMARK Flexibility Score: inf
ROOT
ATOM      1  C   UNL     1       8.437  -0.758  -2.001  1.00  0.00     0.127 C 
ENDROOT
BRANCH   1   2
ATOM      2  C   UNL     1       8.475  -1.953  -2.876  1.00  0.00     0.303 C 
ATOM      3  O   UNL     1       9.555  -2.543  -3.124  1.00  0.00    -0.252 OA
BRANCH   2   4
ATOM      4  O   UNL     1       7.315  -2.453  -3.445  1.00  0.00    -0.481 OA
ATOM      5  H   UNL     1       6.408  -2.160  -3.073  1.00  0.00     0.296 HD
ENDBRANCH   2   4
ENDBRANCH   1   2
BRANCH   1   6
ATOM      6  C   UNL     1       7.055  -0.181  -2.051  1.00  0.00     0.047 C 
BRANCH   6   7
ATOM      7  C   UNL     1       6.463   0.058  -0.736  1.00  0.00    -0.047 A 
ATOM      8  C   UNL     1       5.805   1.236  -0.465  1.00  0.00     0.004 A 
ATOM      9  C   UNL     1       6.567  -0.912   0.234  1.00  0.00     0.004 A 
ATOM     10  C   UNL     1       5.263   1.396   0.812  1.00  0.00     0.000 A 
ATOM     11  C   UNL     1       6.031  -0.751   1.496  1.00  0.00     0.000 A 
ATOM     12  C   UNL     1       5.371   0.426   1.776  1.00  0.00     0.000 A 
ENDBRANCH   6   7
ENDBRANCH   1   6
TORSDOF 4
ENDMDL
MODEL 2
REMARK VINA RESULT:      -7.3      0.132      1.441
REMARK SMILES O=C(O)CCc1ccccc1
REMARK SMILES IDX 4 1 2 2 1 3 3 4 5 6 6 7 7 8 11 9 8 10 10 11 9 12
REMARK H PARENT 3 5
REMARK Flexibility Score: inf
ROOT
ATOM      1  C   UNL     1       8.434  -0.559  -2.219  1.00  0.00     0.127 C 
ENDROOT
BRANCH   1   2
ATOM      2  C   UNL     1       8.468  -1.866  -2.919  1.00  0.00     0.303 C 
ATOM      3  O   UNL     1       9.547  -2.484  -3.091  1.00  0.00    -0.252 OA
BRANCH   2   4
ATOM      4  O   UNL     1       7.305  -2.442  -3.403  1.00  0.00    -0.481 OA
ATOM      5  H   UNL     1       7.138  -3.440  -3.248  1.00  0.00     0.296 HD
ENDBRANCH   2   4
ENDBRANCH   1   2
BRANCH   1   6
ATOM      6  C   UNL     1       7.010  -0.095  -2.158  1.00  0.00     0.047 C 
BRANCH   6   7
ATOM      7  C   UNL     1       6.489   0.045  -0.800  1.00  0.00    -0.047 A 
ATOM      8  C   UNL     1       6.616  -0.977   0.112  1.00  0.00     0.004 A 
ATOM      9  C   UNL     1       5.866   1.218  -0.438  1.00  0.00     0.004 A 
ATOM     10  C   UNL     1       6.095  -0.773   1.392  1.00  0.00     0.000 A 
ATOM     11  C   UNL     1       5.352   1.417   0.828  1.00  0.00     0.000 A 
ATOM     12  C   UNL     1       5.475   0.398   1.747  1.00  0.00     0.000 A 
ENDBRANCH   6   7
ENDBRANCH   1   6
TORSDOF 4
ENDMDL
MODEL 3
REMARK VINA RESULT:      -6.8      3.388      5.103
REMARK SMILES O=C(O)CCc1ccccc1
REMARK SMILES IDX 4 1 2 2 1 3 3 4 5 6 6 7 7 8 11 9 8 10 10 11 9 12
REMARK H PARENT 3 5
REMARK Flexibility Score: inf
ROOT
ATOM      1  C   UNL     1       4.981   1.762   0.674  1.00  0.00     0.127 C 
ENDROOT
BRANCH   1   2
ATOM      2  C   UNL     1       4.480   1.105   1.904  1.00  0.00     0.303 C 
ATOM      3  O   UNL     1       5.145   0.208   2.480  1.00  0.00    -0.252 OA
BRANCH   2   4
ATOM      4  O   UNL     1       3.259   1.462   2.453  1.00  0.00    -0.481 OA
ATOM      5  H   UNL     1       2.727   0.769   2.986  1.00  0.00     0.296 HD
ENDBRANCH   2   4
ENDBRANCH   1   2
BRANCH   1   6
ATOM      6  C   UNL     1       6.478   1.775   0.724  1.00  0.00     0.047 C 
BRANCH   6   7
ATOM      7  C   UNL     1       7.115   1.011  -0.347  1.00  0.00    -0.047 A 
ATOM      8  C   UNL     1       6.403   0.076  -1.064  1.00  0.00     0.004 A 
ATOM      9  C   UNL     1       8.441   1.237  -0.637  1.00  0.00     0.004 A 
ATOM     10  C   UNL     1       7.075  -0.616  -2.074  1.00  0.00     0.000 A 
ATOM     11  C   UNL     1       9.104   0.552  -1.636  1.00  0.00     0.000 A 
ATOM     12  C   UNL     1       8.398  -0.387  -2.358  1.00  0.00     0.000 A 
ENDBRANCH   6   7
ENDBRANCH   1   6
TORSDOF 4
ENDMDL
MODEL 4
REMARK VINA RESULT:      -6.7      3.827      4.949
REMARK SMILES O=C(O)CCc1ccccc1
REMARK SMILES IDX 4 1 2 2 1 3 3 4 5 6 6 7 7 8 11 9 8 10 10 11 9 12
REMARK H PARENT 3 5
REMARK Flexibility Score: inf
ROOT
ATOM      1  C   UNL     1       5.446   2.895   0.031  1.00  0.00     0.127 C 
ENDROOT
BRANCH   1   2
ATOM      2  C   UNL     1       6.248   3.859   0.822  1.00  0.00     0.303 C 
ATOM      3  O   UNL     1       6.902   4.774   0.263  1.00  0.00    -0.252 OA
BRANCH   2   4
ATOM      4  O   UNL     1       6.299   3.775   2.204  1.00  0.00    -0.481 OA
ATOM      5  H   UNL     1       6.041   2.896   2.662  1.00  0.00     0.296 HD
ENDBRANCH   2   4
ENDBRANCH   1   2
BRANCH   1   6
ATOM      6  C   UNL     1       4.950   1.826   0.956  1.00  0.00     0.047 C 
BRANCH   6   7
ATOM      7  C   UNL     1       5.741   0.597   0.922  1.00  0.00    -0.047 A 
ATOM      8  C   UNL     1       6.413   0.223  -0.219  1.00  0.00     0.004 A 
ATOM      9  C   UNL     1       5.811  -0.188   2.050  1.00  0.00     0.004 A 
ATOM     10  C   UNL     1       7.150  -0.962  -0.179  1.00  0.00     0.000 A 
ATOM     11  C   UNL     1       6.540  -1.360   2.088  1.00  0.00     0.000 A 
ATOM     12  C   UNL     1       7.215  -1.741   0.949  1.00  0.00     0.000 A 
ENDBRANCH   6   7
ENDBRANCH   1   6
TORSDOF 4
ENDMDL
MODEL 5
REMARK VINA RESULT:      -6.7      3.809      5.006
REMARK SMILES O=C(O)CCc1ccccc1
REMARK SMILES IDX 4 1 2 2 1 3 3 4 5 6 6 7 7 8 11 9 8 10 10 11 9 12
REMARK H PARENT 3 5
REMARK Flexibility Score: inf
ROOT
ATOM      1  C   UNL     1       5.441   2.893  -0.010  1.00  0.00     0.127 C 
ENDROOT
BRANCH   1   2
ATOM      2  C   UNL     1       6.244   3.828   0.812  1.00  0.00     0.303 C 
ATOM      3  O   UNL     1       6.880   4.775   0.287  1.00  0.00    -0.252 OA
BRANCH   2   4
ATOM      4  O   UNL     1       6.313   3.683   2.188  1.00  0.00    -0.481 OA
ATOM      5  H   UNL     1       5.525   3.990   2.765  1.00  0.00     0.296 HD
ENDBRANCH   2   4
ENDBRANCH   1   2
BRANCH   1   6
ATOM      6  C   UNL     1       4.908   1.816   0.885  1.00  0.00     0.047 C 
BRANCH   6   7
ATOM      7  C   UNL     1       5.699   0.587   0.873  1.00  0.00    -0.047 A 
ATOM      8  C   UNL     1       5.797  -0.197   1.999  1.00  0.00     0.004 A 
ATOM      9  C   UNL     1       6.348   0.217  -0.282  1.00  0.00     0.004 A 
ATOM     10  C   UNL     1       6.568  -1.359   1.915  1.00  0.00     0.000 A 
ATOM     11  C   UNL     1       7.110  -0.931  -0.363  1.00  0.00     0.000 A 
ATOM     12  C   UNL     1       7.214  -1.722   0.760  1.00  0.00     0.000 A 
ENDBRANCH   6   7
ENDBRANCH   1   6
TORSDOF 4
ENDMDL
