@<TRIPOS>MOLECULE
/home/cewinharhar/GITHUB/reincatalyze/data/processed/docking_pred/2023_Apr_20-15:07/c5f7f675b3df69e676e62d17e40489667b0e6a6f_ligand_2.pdbqt
 12 12 0 0 0
SMALL
GASTEIGER

@<TRIPOS>ATOM
      1  C          8.4340   -0.5590   -2.2190 C.3     1  UNL1        0.1270
      2  C          8.4680   -1.8660   -2.9190 C.2     1  UNL1        0.3030
      3  O          9.5470   -2.4840   -3.0910 O.2     1  UNL1       -0.2520
      4  O          7.3050   -2.4420   -3.4030 O.3     1  UNL1       -0.4810
      5  H          7.1380   -3.4400   -3.2480 H       1  UNL1        0.2960
      6  C          7.0100   -0.0950   -2.1580 C.3     1  UNL1        0.0470
      7  C          6.4890    0.0450   -0.8000 C.2     1  UNL1       -0.0470
      8  C          6.6160   -0.9770    0.1120 C.2     1  UNL1        0.0040
      9  C          5.8660    1.2180   -0.4380 C.2     1  UNL1        0.0040
     10  C          6.0950   -0.7730    1.3920 C.2     1  UNL1        0.0000
     11  C          5.3520    1.4170    0.8280 C.2     1  UNL1        0.0000
     12  C          5.4750    0.3980    1.7470 C.2     1  UNL1        0.0000
@<TRIPOS>BOND
     1     4     5    1
     2     4     2    1
     3     3     2    2
     4     2     1    1
     5     1     6    1
     6     6     7    1
     7     7     9    2
     8     7     8    1
     9     9    11    1
    10     8    10    2
    11    11    12    2
    12    10    12    1
