@<TRIPOS>MOLECULE
/home/cewinharhar/GITHUB/reincatalyze/data/processed/docking_pred/2023_Apr_20-15:07/c5f7f675b3df69e676e62d17e40489667b0e6a6f_ligand_2.pdbqt
 12 12 0 0 0
SMALL
GASTEIGER

@<TRIPOS>ATOM
      1  C          8.4370   -0.7580   -2.0010 C.3     1  UNL1        0.1270
      2  C          8.4750   -1.9530   -2.8760 C.2     1  UNL1        0.3030
      3  O          9.5550   -2.5430   -3.1240 O.2     1  UNL1       -0.2520
      4  O          7.3150   -2.4530   -3.4450 O.3     1  UNL1       -0.4810
      5  H          6.4080   -2.1600   -3.0730 H       1  UNL1        0.2960
      6  C          7.0550   -0.1810   -2.0510 C.3     1  UNL1        0.0470
      7  C          6.4630    0.0580   -0.7360 C.2     1  UNL1       -0.0470
      8  C          5.8050    1.2360   -0.4650 C.2     1  UNL1        0.0040
      9  C          6.5670   -0.9120    0.2340 C.2     1  UNL1        0.0040
     10  C          5.2630    1.3960    0.8120 C.2     1  UNL1        0.0000
     11  C          6.0310   -0.7510    1.4960 C.2     1  UNL1        0.0000
     12  C          5.3710    0.4260    1.7760 C.2     1  UNL1        0.0000
@<TRIPOS>BOND
     1     4     5    1
     2     4     2    1
     3     3     2    2
     4     2     1    1
     5     6     1    1
     6     6     7    1
     7     7     8    2
     8     7     9    1
     9     8    10    1
    10     9    11    2
    11    10    12    2
    12    11    12    1
