@<TRIPOS>MOLECULE
/home/cewinharhar/GITHUB/reincatalyze/data/processed/docking_pred/2023_Apr_20-15:07/c5f7f675b3df69e676e62d17e40489667b0e6a6f_ligand_2.pdbqt
 12 12 0 0 0
SMALL
GASTEIGER

@<TRIPOS>ATOM
      1  C          5.4410    2.8930   -0.0100 C.3     1  UNL1        0.1270
      2  C          6.2440    3.8280    0.8120 C.2     1  UNL1        0.3030
      3  O          6.8800    4.7750    0.2870 O.2     1  UNL1       -0.2520
      4  O          6.3130    3.6830    2.1880 O.3     1  UNL1       -0.4810
      5  H          5.5250    3.9900    2.7650 H       1  UNL1        0.2960
      6  C          4.9080    1.8160    0.8850 C.3     1  UNL1        0.0470
      7  C          5.6990    0.5870    0.8730 C.2     1  UNL1       -0.0470
      8  C          5.7970   -0.1970    1.9990 C.2     1  UNL1        0.0040
      9  C          6.3480    0.2170   -0.2820 C.2     1  UNL1        0.0040
     10  C          6.5680   -1.3590    1.9150 C.2     1  UNL1        0.0000
     11  C          7.1100   -0.9310   -0.3630 C.2     1  UNL1        0.0000
     12  C          7.2140   -1.7220    0.7600 C.2     1  UNL1        0.0000
@<TRIPOS>BOND
     1    11     9    1
     2    11    12    2
     3     9     7    2
     4     1     2    1
     5     1     6    1
     6     3     2    2
     7    12    10    1
     8     2     4    1
     9     7     6    1
    10     7     8    1
    11    10     8    2
    12     4     5    1
