@<TRIPOS>MOLECULE
/home/cewinharhar/GITHUB/reincatalyze/data/processed/docking_pred/2023_Apr_20-15:07/c5f7f675b3df69e676e62d17e40489667b0e6a6f_ligand_2.pdbqt
 12 12 0 0 0
SMALL
GASTEIGER

@<TRIPOS>ATOM
      1  C          5.4460    2.8950    0.0310 C.3     1  UNL1        0.1270
      2  C          6.2480    3.8590    0.8220 C.2     1  UNL1        0.3030
      3  O          6.9020    4.7740    0.2630 O.2     1  UNL1       -0.2520
      4  O          6.2990    3.7750    2.2040 O.3     1  UNL1       -0.4810
      5  H          6.0410    2.8960    2.6620 H       1  UNL1        0.2960
      6  C          4.9500    1.8260    0.9560 C.3     1  UNL1        0.0470
      7  C          5.7410    0.5970    0.9220 C.2     1  UNL1       -0.0470
      8  C          6.4130    0.2230   -0.2190 C.2     1  UNL1        0.0040
      9  C          5.8110   -0.1880    2.0500 C.2     1  UNL1        0.0040
     10  C          7.1500   -0.9620   -0.1790 C.2     1  UNL1        0.0000
     11  C          6.5400   -1.3600    2.0880 C.2     1  UNL1        0.0000
     12  C          7.2150   -1.7410    0.9490 C.2     1  UNL1        0.0000
@<TRIPOS>BOND
     1     8    10    1
     2     8     7    2
     3    10    12    2
     4     1     2    1
     5     1     6    1
     6     3     2    2
     7     2     4    1
     8     7     6    1
     9     7     9    1
    10    12    11    1
    11     9    11    2
    12     4     5    1
