@<TRIPOS>MOLECULE
/home/cewinharhar/GITHUB/reincatalyze/data/processed/docking_pred/2023_Apr_20-15:07/c61eb663c2c3330cf201d691d278f59eb7eebd68_ligand_2.pdbqt
 12 12 0 0 0
SMALL
GASTEIGER

@<TRIPOS>ATOM
      1  C          8.1830    0.2670   -2.0720 C.3     1  UNL1        0.1270
      2  C          9.3620    0.3630   -1.1800 C.2     1  UNL1        0.3030
      3  O          9.4870   -0.3900   -0.1830 O.2     1  UNL1       -0.2520
      4  O         10.3620    1.2920   -1.4220 O.3     1  UNL1       -0.4810
      5  H         10.9030    1.6610   -0.6350 H       1  UNL1        0.2960
      6  C          7.1520   -0.5880   -1.4000 C.3     1  UNL1        0.0470
      7  C          6.3620    0.1170   -0.3920 C.2     1  UNL1       -0.0470
      8  C          5.8190    1.3520   -0.6610 C.2     1  UNL1        0.0040
      9  C          6.1620   -0.4700    0.8360 C.2     1  UNL1        0.0040
     10  C          5.0750    1.9670    0.3490 C.2     1  UNL1        0.0000
     11  C          5.4260    0.1390    1.8330 C.2     1  UNL1        0.0000
     12  C          4.8800    1.3770    1.5720 C.2     1  UNL1        0.0000
@<TRIPOS>BOND
     1     1     6    1
     2     1     2    1
     3     4     2    1
     4     4     5    1
     5     6     7    1
     6     2     3    2
     7     8     7    2
     8     8    10    1
     9     7     9    1
    10    10    12    2
    11     9    11    2
    12    12    11    1
