@<TRIPOS>MOLECULE
/home/cewinharhar/GITHUB/reincatalyze/data/processed/docking_pred/2023_Apr_20-15:07/c61eb663c2c3330cf201d691d278f59eb7eebd68_ligand_2.pdbqt
 12 12 0 0 0
SMALL
GASTEIGER

@<TRIPOS>ATOM
      1  C          8.3930   -0.6370   -2.1010 C.3     1  UNL1        0.1270
      2  C          8.3670   -1.8900   -2.8910 C.2     1  UNL1        0.3030
      3  O          7.2830   -2.4100   -3.2520 O.2     1  UNL1       -0.2520
      4  O          9.5450   -2.5240   -3.2550 O.3     1  UNL1       -0.4810
      5  H         10.1120   -2.1330   -4.0120 H       1  UNL1        0.2960
      6  C          7.0070   -0.0670   -2.0770 C.3     1  UNL1        0.0470
      7  C          6.4520    0.0900   -0.7340 C.2     1  UNL1       -0.0470
      8  C          5.8140    1.2520   -0.3680 C.2     1  UNL1        0.0040
      9  C          6.5720   -0.9430    0.1670 C.2     1  UNL1        0.0040
     10  C          5.3070    1.3320    0.9310 C.2     1  UNL1        0.0000
     11  C          6.0710   -0.8620    1.4510 C.2     1  UNL1        0.0000
     12  C          5.4310    0.3000    1.8260 C.2     1  UNL1        0.0000
@<TRIPOS>BOND
     1     5     4    1
     2     4     2    1
     3     3     2    2
     4     2     1    1
     5     1     6    1
     6     6     7    1
     7     7     8    2
     8     7     9    1
     9     8    10    1
    10     9    11    2
    11    10    12    2
    12    11    12    1
