@<TRIPOS>MOLECULE
/home/cewinharhar/GITHUB/reincatalyze/data/processed/docking_pred/2023_Apr_20-15:07/c61eb663c2c3330cf201d691d278f59eb7eebd68_ligand_2.pdbqt
 12 12 0 0 0
SMALL
GASTEIGER

@<TRIPOS>ATOM
      1  C          5.3330    2.9450    0.0530 C.3     1  UNL1        0.1270
      2  C          6.2060    3.8620    0.8230 C.2     1  UNL1        0.3030
      3  O          6.8770    4.7550    0.2500 O.2     1  UNL1       -0.2520
      4  O          6.3070    3.7560    2.2010 O.3     1  UNL1       -0.4810
      5  H          5.4580    3.6260    2.7570 H       1  UNL1        0.2960
      6  C          5.2420    1.6470    0.7950 C.3     1  UNL1        0.0470
      7  C          6.0280    0.5660    0.2020 C.2     1  UNL1       -0.0470
      8  C          6.3300    0.5720   -1.1400 C.2     1  UNL1        0.0040
      9  C          6.4680   -0.4620    1.0030 C.2     1  UNL1        0.0040
     10  C          7.0860   -0.4920   -1.6390 C.2     1  UNL1        0.0000
     11  C          7.2150   -1.5130    0.5080 C.2     1  UNL1        0.0000
     12  C          7.5210   -1.5150   -0.8350 C.2     1  UNL1        0.0000
@<TRIPOS>BOND
     1    10     8    1
     2    10    12    2
     3     8     7    2
     4    12    11    1
     5     1     6    1
     6     1     2    1
     7     7     6    1
     8     7     9    1
     9     3     2    2
    10    11     9    2
    11     2     4    1
    12     4     5    1
