MODEL 1
REMARK VINA RESULT:      -7.3      0.000      0.000
REMARK SMILES O=C(O)CCc1ccccc1
REMARK SMILES IDX 4 1 2 2 1 3 3 4 5 6 6 7 7 8 11 9 8 10 10 11 9 12
REMARK H PARENT 3 5
REMARK Flexibility Score: inf
ROOT
ATOM      1  C   UNL     1       8.430  -0.561  -2.225  1.00  0.00     0.127 C 
ENDROOT
BRANCH   1   2
ATOM      2  C   UNL     1       8.482  -1.867  -2.923  1.00  0.00     0.303 C 
ATOM      3  O   UNL     1       9.569  -2.476  -3.085  1.00  0.00    -0.252 OA
BRANCH   2   4
ATOM      4  O   UNL     1       7.329  -2.454  -3.419  1.00  0.00    -0.481 OA
ATOM      5  H   UNL     1       6.825  -1.999  -4.185  1.00  0.00     0.296 HD
ENDBRANCH   2   4
ENDBRANCH   1   2
BRANCH   1   6
ATOM      6  C   UNL     1       7.000  -0.118  -2.161  1.00  0.00     0.047 C 
BRANCH   6   7
ATOM      7  C   UNL     1       6.483   0.031  -0.802  1.00  0.00    -0.047 A 
ATOM      8  C   UNL     1       6.635  -0.976   0.123  1.00  0.00     0.004 A 
ATOM      9  C   UNL     1       5.842   1.196  -0.452  1.00  0.00     0.004 A 
ATOM     10  C   UNL     1       6.118  -0.765   1.403  1.00  0.00     0.000 A 
ATOM     11  C   UNL     1       5.331   1.404   0.814  1.00  0.00     0.000 A 
ATOM     12  C   UNL     1       5.478   0.399   1.746  1.00  0.00     0.000 A 
ENDBRANCH   6   7
ENDBRANCH   1   6
TORSDOF 4
ENDMDL
MODEL 2
REMARK VINA RESULT:      -7.3      0.131      1.732
REMARK SMILES O=C(O)CCc1ccccc1
REMARK SMILES IDX 4 1 2 2 1 3 3 4 5 6 6 7 7 8 11 9 8 10 10 11 9 12
REMARK H PARENT 3 5
REMARK Flexibility Score: inf
ROOT
ATOM      1  C   UNL     1       8.393  -0.637  -2.101  1.00  0.00     0.127 C 
ENDROOT
BRANCH   1   2
ATOM      2  C   UNL     1       8.367  -1.890  -2.891  1.00  0.00     0.303 C 
ATOM      3  O   UNL     1       7.283  -2.410  -3.252  1.00  0.00    -0.252 OA
BRANCH   2   4
ATOM      4  O   UNL     1       9.545  -2.524  -3.255  1.00  0.00    -0.481 OA
ATOM      5  H   UNL     1      10.112  -2.133  -4.012  1.00  0.00     0.296 HD
ENDBRANCH   2   4
ENDBRANCH   1   2
BRANCH   1   6
ATOM      6  C   UNL     1       7.007  -0.067  -2.077  1.00  0.00     0.047 C 
BRANCH   6   7
ATOM      7  C   UNL     1       6.452   0.090  -0.734  1.00  0.00    -0.047 A 
ATOM      8  C   UNL     1       5.814   1.252  -0.368  1.00  0.00     0.004 A 
ATOM      9  C   UNL     1       6.572  -0.943   0.167  1.00  0.00     0.004 A 
ATOM     10  C   UNL     1       5.307   1.332   0.931  1.00  0.00     0.000 A 
ATOM     11  C   UNL     1       6.071  -0.862   1.451  1.00  0.00     0.000 A 
ATOM     12  C   UNL     1       5.431   0.300   1.826  1.00  0.00     0.000 A 
ENDBRANCH   6   7
ENDBRANCH   1   6
TORSDOF 4
ENDMDL
MODEL 3
REMARK VINA RESULT:      -6.8      3.374      5.068
REMARK SMILES O=C(O)CCc1ccccc1
REMARK SMILES IDX 4 1 2 2 1 3 3 4 5 6 6 7 7 8 11 9 8 10 10 11 9 12
REMARK H PARENT 3 5
REMARK Flexibility Score: inf
ROOT
ATOM      1  C   UNL     1       5.028   1.776   0.690  1.00  0.00     0.127 C 
ENDROOT
BRANCH   1   2
ATOM      2  C   UNL     1       4.504   1.106   1.904  1.00  0.00     0.303 C 
ATOM      3  O   UNL     1       5.156   0.201   2.481  1.00  0.00    -0.252 OA
BRANCH   2   4
ATOM      4  O   UNL     1       3.275   1.462   2.437  1.00  0.00    -0.481 OA
ATOM      5  H   UNL     1       2.603   0.730   2.679  1.00  0.00     0.296 HD
ENDBRANCH   2   4
ENDBRANCH   1   2
BRANCH   1   6
ATOM      6  C   UNL     1       6.524   1.765   0.756  1.00  0.00     0.047 C 
BRANCH   6   7
ATOM      7  C   UNL     1       7.162   1.027  -0.333  1.00  0.00    -0.047 A 
ATOM      8  C   UNL     1       8.484   1.240  -0.648  1.00  0.00     0.004 A 
ATOM      9  C   UNL     1       6.424   0.109  -1.044  1.00  0.00     0.004 A 
ATOM     10  C   UNL     1       9.028   0.499  -1.699  1.00  0.00     0.000 A 
ATOM     11  C   UNL     1       6.963  -0.623  -2.083  1.00  0.00     0.000 A 
ATOM     12  C   UNL     1       8.287  -0.415  -2.405  1.00  0.00     0.000 A 
ENDBRANCH   6   7
ENDBRANCH   1   6
TORSDOF 4
ENDMDL
MODEL 4
REMARK VINA RESULT:      -6.7      1.941      2.619
REMARK SMILES O=C(O)CCc1ccccc1
REMARK SMILES IDX 4 1 2 2 1 3 3 4 5 6 6 7 7 8 11 9 8 10 10 11 9 12
REMARK H PARENT 3 5
REMARK Flexibility Score: inf
ROOT
ATOM      1  C   UNL     1       8.183   0.267  -2.072  1.00  0.00     0.127 C 
ENDROOT
BRANCH   1   2
ATOM      2  C   UNL     1       9.362   0.363  -1.180  1.00  0.00     0.303 C 
ATOM      3  O   UNL     1       9.487  -0.390  -0.183  1.00  0.00    -0.252 OA
BRANCH   2   4
ATOM      4  O   UNL     1      10.362   1.292  -1.422  1.00  0.00    -0.481 OA
ATOM      5  H   UNL     1      10.903   1.661  -0.635  1.00  0.00     0.296 HD
ENDBRANCH   2   4
ENDBRANCH   1   2
BRANCH   1   6
ATOM      6  C   UNL     1       7.152  -0.588  -1.400  1.00  0.00     0.047 C 
BRANCH   6   7
ATOM      7  C   UNL     1       6.362   0.117  -0.392  1.00  0.00    -0.047 A 
ATOM      8  C   UNL     1       5.819   1.352  -0.661  1.00  0.00     0.004 A 
ATOM      9  C   UNL     1       6.162  -0.470   0.836  1.00  0.00     0.004 A 
ATOM     10  C   UNL     1       5.075   1.967   0.349  1.00  0.00     0.000 A 
ATOM     11  C   UNL     1       5.426   0.139   1.833  1.00  0.00     0.000 A 
ATOM     12  C   UNL     1       4.880   1.377   1.572  1.00  0.00     0.000 A 
ENDBRANCH   6   7
ENDBRANCH   1   6
TORSDOF 4
ENDMDL
MODEL 5
REMARK VINA RESULT:      -6.6      3.711      5.078
REMARK SMILES O=C(O)CCc1ccccc1
REMARK SMILES IDX 4 1 2 2 1 3 3 4 5 6 6 7 7 8 11 9 8 10 10 11 9 12
REMARK H PARENT 3 5
REMARK Flexibility Score: inf
ROOT
ATOM      1  C   UNL     1       5.333   2.945   0.053  1.00  0.00     0.127 C 
ENDROOT
BRANCH   1   2
ATOM      2  C   UNL     1       6.206   3.862   0.823  1.00  0.00     0.303 C 
ATOM      3  O   UNL     1       6.877   4.755   0.250  1.00  0.00    -0.252 OA
BRANCH   2   4
ATOM      4  O   UNL     1       6.307   3.756   2.201  1.00  0.00    -0.481 OA
ATOM      5  H   UNL     1       5.458   3.626   2.757  1.00  0.00     0.296 HD
ENDBRANCH   2   4
ENDBRANCH   1   2
BRANCH   1   6
ATOM      6  C   UNL     1       5.242   1.647   0.795  1.00  0.00     0.047 C 
BRANCH   6   7
ATOM      7  C   UNL     1       6.028   0.566   0.202  1.00  0.00    -0.047 A 
ATOM      8  C   UNL     1       6.330   0.572  -1.140  1.00  0.00     0.004 A 
ATOM      9  C   UNL     1       6.468  -0.462   1.003  1.00  0.00     0.004 A 
ATOM     10  C   UNL     1       7.086  -0.492  -1.639  1.00  0.00     0.000 A 
ATOM     11  C   UNL     1       7.215  -1.513   0.508  1.00  0.00     0.000 A 
ATOM     12  C   UNL     1       7.521  -1.515  -0.835  1.00  0.00     0.000 A 
ENDBRANCH   6   7
ENDBRANCH   1   6
TORSDOF 4
ENDMDL
