@<TRIPOS>MOLECULE
/home/cewinharhar/GITHUB/reincatalyze/data/processed/docking_pred/2023_Apr_20-15:07/c61eb663c2c3330cf201d691d278f59eb7eebd68_ligand_2.pdbqt
 12 12 0 0 0
SMALL
GASTEIGER

@<TRIPOS>ATOM
      1  C          5.0280    1.7760    0.6900 C.3     1  UNL1        0.1270
      2  C          4.5040    1.1060    1.9040 C.2     1  UNL1        0.3030
      3  O          5.1560    0.2010    2.4810 O.2     1  UNL1       -0.2520
      4  O          3.2750    1.4620    2.4370 O.3     1  UNL1       -0.4810
      5  H          2.6030    0.7300    2.6790 H       1  UNL1        0.2960
      6  C          6.5240    1.7650    0.7560 C.3     1  UNL1        0.0470
      7  C          7.1620    1.0270   -0.3330 C.2     1  UNL1       -0.0470
      8  C          8.4840    1.2400   -0.6480 C.2     1  UNL1        0.0040
      9  C          6.4240    0.1090   -1.0440 C.2     1  UNL1        0.0040
     10  C          9.0280    0.4990   -1.6990 C.2     1  UNL1        0.0000
     11  C          6.9630   -0.6230   -2.0830 C.2     1  UNL1        0.0000
     12  C          8.2870   -0.4150   -2.4050 C.2     1  UNL1        0.0000
@<TRIPOS>BOND
     1    12    11    2
     2    12    10    1
     3    11     9    1
     4    10     8    2
     5     9     7    2
     6     8     7    1
     7     7     6    1
     8     1     6    1
     9     1     2    1
    10     2     4    1
    11     2     3    2
    12     4     5    1
