@<TRIPOS>MOLECULE
/home/cewinharhar/GITHUB/reincatalyze/data/processed/docking_pred/2023_Apr_20-15:07/c61eb663c2c3330cf201d691d278f59eb7eebd68_ligand_2.pdbqt
 12 12 0 0 0
SMALL
GASTEIGER

@<TRIPOS>ATOM
      1  C          8.4300   -0.5610   -2.2250 C.3     1  UNL1        0.1270
      2  C          8.4820   -1.8670   -2.9230 C.2     1  UNL1        0.3030
      3  O          9.5690   -2.4760   -3.0850 O.2     1  UNL1       -0.2520
      4  O          7.3290   -2.4540   -3.4190 O.3     1  UNL1       -0.4810
      5  H          6.8250   -1.9990   -4.1850 H       1  UNL1        0.2960
      6  C          7.0000   -0.1180   -2.1610 C.3     1  UNL1        0.0470
      7  C          6.4830    0.0310   -0.8020 C.2     1  UNL1       -0.0470
      8  C          6.6350   -0.9760    0.1230 C.2     1  UNL1        0.0040
      9  C          5.8420    1.1960   -0.4520 C.2     1  UNL1        0.0040
     10  C          6.1180   -0.7650    1.4030 C.2     1  UNL1        0.0000
     11  C          5.3310    1.4040    0.8140 C.2     1  UNL1        0.0000
     12  C          5.4780    0.3990    1.7460 C.2     1  UNL1        0.0000
@<TRIPOS>BOND
     1     5     4    1
     2     4     2    1
     3     3     2    2
     4     2     1    1
     5     1     6    1
     6     6     7    1
     7     7     9    2
     8     7     8    1
     9     9    11    1
    10     8    10    2
    11    11    12    2
    12    10    12    1
