@<TRIPOS>MOLECULE
/home/cewinharhar/GITHUB/reincatalyze/data/processed/docking_pred/2023_Apr_20-15:07/c8a10dea28a77dd5a54e6b3bff917c6d12aef46d_ligand_2.pdbqt
 12 12 0 0 0
SMALL
GASTEIGER

@<TRIPOS>ATOM
      1  C          5.0340    1.7410    0.6700 C.3     1  UNL1        0.1270
      2  C          4.5730    1.0680    1.9070 C.2     1  UNL1        0.3030
      3  O          3.4560    1.3340    2.4150 O.2     1  UNL1       -0.2520
      4  O          5.3660    0.1240    2.5400 O.3     1  UNL1       -0.4810
      5  H          4.9530   -0.4780    3.2570 H       1  UNL1        0.2960
      6  C          6.5310    1.7990    0.6950 C.3     1  UNL1        0.0470
      7  C          7.1740    1.0330   -0.3710 C.2     1  UNL1       -0.0470
      8  C          8.5040    1.2190   -0.6670 C.2     1  UNL1        0.0040
      9  C          6.4320    0.1170   -1.0810 C.2     1  UNL1        0.0040
     10  C          9.0530    0.4520   -1.6980 C.2     1  UNL1        0.0000
     11  C          6.9760   -0.6400   -2.1000 C.2     1  UNL1        0.0000
     12  C          8.3080   -0.4600   -2.4020 C.2     1  UNL1        0.0000
@<TRIPOS>BOND
     1    12    11    2
     2    12    10    1
     3    11     9    1
     4    10     8    2
     5     9     7    2
     6     8     7    1
     7     7     6    1
     8     1     6    1
     9     1     2    1
    10     2     3    2
    11     2     4    1
    12     4     5    1
