@<TRIPOS>MOLECULE
/home/cewinharhar/GITHUB/reincatalyze/data/processed/docking_pred/2023_Apr_20-15:07/c8a10dea28a77dd5a54e6b3bff917c6d12aef46d_ligand_2.pdbqt
 12 12 0 0 0
SMALL
GASTEIGER

@<TRIPOS>ATOM
      1  C          8.2950    0.3740   -1.9580 C.3     1  UNL1        0.1270
      2  C          9.4740    0.4040   -1.0600 C.2     1  UNL1        0.3030
      3  O          9.5570   -0.3630   -0.0700 O.2     1  UNL1       -0.2520
      4  O         10.5190    1.2840   -1.2910 O.3     1  UNL1       -0.4810
      5  H         11.2640    1.3700   -0.5940 H       1  UNL1        0.2960
      6  C          7.2550   -0.5110   -1.3410 C.3     1  UNL1        0.0470
      7  C          6.4110    0.1620   -0.3550 C.2     1  UNL1       -0.0470
      8  C          5.8540    1.3900   -0.6270 C.2     1  UNL1        0.0040
      9  C          6.1760   -0.4480    0.8550 C.2     1  UNL1        0.0040
     10  C          5.0570    1.9730    0.3600 C.2     1  UNL1        0.0000
     11  C          5.3890    0.1310    1.8310 C.2     1  UNL1        0.0000
     12  C          4.8270    1.3610    1.5660 C.2     1  UNL1        0.0000
@<TRIPOS>BOND
     1     1     6    1
     2     1     2    1
     3     6     7    1
     4     4     2    1
     5     4     5    1
     6     2     3    2
     7     8     7    2
     8     8    10    1
     9     7     9    1
    10    10    12    2
    11     9    11    2
    12    12    11    1
