MODEL 1
REMARK VINA RESULT:      -7.3      0.000      0.000
REMARK SMILES O=C(O)CCc1ccccc1
REMARK SMILES IDX 4 1 2 2 1 3 3 4 5 6 6 7 7 8 11 9 8 10 10 11 9 12
REMARK H PARENT 3 5
REMARK Flexibility Score: inf
ROOT
ATOM      1  C   UNL     1       8.405  -0.542  -2.223  1.00  0.00     0.127 C 
ENDROOT
BRANCH   1   2
ATOM      2  C   UNL     1       8.451  -1.857  -2.904  1.00  0.00     0.303 C 
ATOM      3  O   UNL     1       9.530  -2.487  -3.029  1.00  0.00    -0.252 OA
BRANCH   2   4
ATOM      4  O   UNL     1       7.300  -2.429  -3.423  1.00  0.00    -0.481 OA
ATOM      5  H   UNL     1       6.688  -1.867  -4.021  1.00  0.00     0.296 HD
ENDBRANCH   2   4
ENDBRANCH   1   2
BRANCH   1   6
ATOM      6  C   UNL     1       6.976  -0.094  -2.160  1.00  0.00     0.047 C 
BRANCH   6   7
ATOM      7  C   UNL     1       6.459   0.056  -0.801  1.00  0.00    -0.047 A 
ATOM      8  C   UNL     1       6.594  -0.957   0.119  1.00  0.00     0.004 A 
ATOM      9  C   UNL     1       5.833   1.229  -0.447  1.00  0.00     0.004 A 
ATOM     10  C   UNL     1       6.078  -0.744   1.399  1.00  0.00     0.000 A 
ATOM     11  C   UNL     1       5.323   1.438   0.819  1.00  0.00     0.000 A 
ATOM     12  C   UNL     1       5.453   0.427   1.746  1.00  0.00     0.000 A 
ENDBRANCH   6   7
ENDBRANCH   1   6
TORSDOF 4
ENDMDL
MODEL 2
REMARK VINA RESULT:      -7.3      0.077      1.438
REMARK SMILES O=C(O)CCc1ccccc1
REMARK SMILES IDX 4 1 2 2 1 3 3 4 5 6 6 7 7 8 11 9 8 10 10 11 9 12
REMARK H PARENT 3 5
REMARK Flexibility Score: inf
ROOT
ATOM      1  C   UNL     1       8.411  -0.548  -2.239  1.00  0.00     0.127 C 
ENDROOT
BRANCH   1   2
ATOM      2  C   UNL     1       8.467  -1.868  -2.910  1.00  0.00     0.303 C 
ATOM      3  O   UNL     1       9.553  -2.486  -3.042  1.00  0.00    -0.252 OA
BRANCH   2   4
ATOM      4  O   UNL     1       7.319  -2.459  -3.412  1.00  0.00    -0.481 OA
ATOM      5  H   UNL     1       7.307  -2.786  -4.382  1.00  0.00     0.296 HD
ENDBRANCH   2   4
ENDBRANCH   1   2
BRANCH   1   6
ATOM      6  C   UNL     1       6.979  -0.113  -2.175  1.00  0.00     0.047 C 
BRANCH   6   7
ATOM      7  C   UNL     1       6.471   0.065  -0.816  1.00  0.00    -0.047 A 
ATOM      8  C   UNL     1       5.860   1.239  -0.441  1.00  0.00     0.004 A 
ATOM      9  C   UNL     1       6.608  -0.961   0.091  1.00  0.00     0.004 A 
ATOM     10  C   UNL     1       5.398   1.338   0.873  1.00  0.00     0.000 A 
ATOM     11  C   UNL     1       6.151  -0.861   1.390  1.00  0.00     0.000 A 
ATOM     12  C   UNL     1       5.538   0.312   1.774  1.00  0.00     0.000 A 
ENDBRANCH   6   7
ENDBRANCH   1   6
TORSDOF 4
ENDMDL
MODEL 3
REMARK VINA RESULT:      -6.6      1.993      2.669
REMARK SMILES O=C(O)CCc1ccccc1
REMARK SMILES IDX 4 1 2 2 1 3 3 4 5 6 6 7 7 8 11 9 8 10 10 11 9 12
REMARK H PARENT 3 5
REMARK Flexibility Score: inf
ROOT
ATOM      1  C   UNL     1       8.295   0.374  -1.958  1.00  0.00     0.127 C 
ENDROOT
BRANCH   1   2
ATOM      2  C   UNL     1       9.474   0.404  -1.060  1.00  0.00     0.303 C 
ATOM      3  O   UNL     1       9.557  -0.363  -0.070  1.00  0.00    -0.252 OA
BRANCH   2   4
ATOM      4  O   UNL     1      10.519   1.284  -1.291  1.00  0.00    -0.481 OA
ATOM      5  H   UNL     1      11.264   1.370  -0.594  1.00  0.00     0.296 HD
ENDBRANCH   2   4
ENDBRANCH   1   2
BRANCH   1   6
ATOM      6  C   UNL     1       7.255  -0.511  -1.341  1.00  0.00     0.047 C 
BRANCH   6   7
ATOM      7  C   UNL     1       6.411   0.162  -0.355  1.00  0.00    -0.047 A 
ATOM      8  C   UNL     1       5.854   1.390  -0.627  1.00  0.00     0.004 A 
ATOM      9  C   UNL     1       6.176  -0.448   0.855  1.00  0.00     0.004 A 
ATOM     10  C   UNL     1       5.057   1.973   0.360  1.00  0.00     0.000 A 
ATOM     11  C   UNL     1       5.389   0.131   1.831  1.00  0.00     0.000 A 
ATOM     12  C   UNL     1       4.827   1.361   1.566  1.00  0.00     0.000 A 
ENDBRANCH   6   7
ENDBRANCH   1   6
TORSDOF 4
ENDMDL
MODEL 4
REMARK VINA RESULT:      -6.6      3.319      5.088
REMARK SMILES O=C(O)CCc1ccccc1
REMARK SMILES IDX 4 1 2 2 1 3 3 4 5 6 6 7 7 8 11 9 8 10 10 11 9 12
REMARK H PARENT 3 5
REMARK Flexibility Score: inf
ROOT
ATOM      1  C   UNL     1       5.034   1.741   0.670  1.00  0.00     0.127 C 
ENDROOT
BRANCH   1   2
ATOM      2  C   UNL     1       4.573   1.068   1.907  1.00  0.00     0.303 C 
ATOM      3  O   UNL     1       3.456   1.334   2.415  1.00  0.00    -0.252 OA
BRANCH   2   4
ATOM      4  O   UNL     1       5.366   0.124   2.540  1.00  0.00    -0.481 OA
ATOM      5  H   UNL     1       4.953  -0.478   3.257  1.00  0.00     0.296 HD
ENDBRANCH   2   4
ENDBRANCH   1   2
BRANCH   1   6
ATOM      6  C   UNL     1       6.531   1.799   0.695  1.00  0.00     0.047 C 
BRANCH   6   7
ATOM      7  C   UNL     1       7.174   1.033  -0.371  1.00  0.00    -0.047 A 
ATOM      8  C   UNL     1       8.504   1.219  -0.667  1.00  0.00     0.004 A 
ATOM      9  C   UNL     1       6.432   0.117  -1.081  1.00  0.00     0.004 A 
ATOM     10  C   UNL     1       9.053   0.452  -1.698  1.00  0.00     0.000 A 
ATOM     11  C   UNL     1       6.976  -0.640  -2.100  1.00  0.00     0.000 A 
ATOM     12  C   UNL     1       8.308  -0.460  -2.402  1.00  0.00     0.000 A 
ENDBRANCH   6   7
ENDBRANCH   1   6
TORSDOF 4
ENDMDL
MODEL 5
REMARK VINA RESULT:      -6.5      3.694      4.974
REMARK SMILES O=C(O)CCc1ccccc1
REMARK SMILES IDX 4 1 2 2 1 3 3 4 5 6 6 7 7 8 11 9 8 10 10 11 9 12
REMARK H PARENT 3 5
REMARK Flexibility Score: inf
ROOT
ATOM      1  C   UNL     1       5.299   2.854   0.097  1.00  0.00     0.127 C 
ENDROOT
BRANCH   1   2
ATOM      2  C   UNL     1       6.129   3.823   0.851  1.00  0.00     0.303 C 
ATOM      3  O   UNL     1       6.167   3.809   2.106  1.00  0.00    -0.252 OA
BRANCH   2   4
ATOM      4  O   UNL     1       6.887   4.775   0.188  1.00  0.00    -0.481 OA
ATOM      5  H   UNL     1       7.253   5.576   0.710  1.00  0.00     0.296 HD
ENDBRANCH   2   4
ENDBRANCH   1   2
BRANCH   1   6
ATOM      6  C   UNL     1       5.335   1.542   0.819  1.00  0.00     0.047 C 
BRANCH   6   7
ATOM      7  C   UNL     1       6.084   0.499   0.120  1.00  0.00    -0.047 A 
ATOM      8  C   UNL     1       6.512  -0.626   0.785  1.00  0.00     0.004 A 
ATOM      9  C   UNL     1       6.358   0.654  -1.220  1.00  0.00     0.004 A 
ATOM     10  C   UNL     1       7.221  -1.581   0.053  1.00  0.00     0.000 A 
ATOM     11  C   UNL     1       7.060  -0.292  -1.941  1.00  0.00     0.000 A 
ATOM     12  C   UNL     1       7.492  -1.422  -1.282  1.00  0.00     0.000 A 
ENDBRANCH   6   7
ENDBRANCH   1   6
TORSDOF 4
ENDMDL
