@<TRIPOS>MOLECULE
/home/cewinharhar/GITHUB/reincatalyze/data/processed/docking_pred/2023_Apr_20-15:07/c8a10dea28a77dd5a54e6b3bff917c6d12aef46d_ligand_2.pdbqt
 12 12 0 0 0
SMALL
GASTEIGER

@<TRIPOS>ATOM
      1  C          5.2990    2.8540    0.0970 C.3     1  UNL1        0.1270
      2  C          6.1290    3.8230    0.8510 C.2     1  UNL1        0.3030
      3  O          6.1670    3.8090    2.1060 O.2     1  UNL1       -0.2520
      4  O          6.8870    4.7750    0.1880 O.3     1  UNL1       -0.4810
      5  H          7.2530    5.5760    0.7100 H       1  UNL1        0.2960
      6  C          5.3350    1.5420    0.8190 C.3     1  UNL1        0.0470
      7  C          6.0840    0.4990    0.1200 C.2     1  UNL1       -0.0470
      8  C          6.5120   -0.6260    0.7850 C.2     1  UNL1        0.0040
      9  C          6.3580    0.6540   -1.2200 C.2     1  UNL1        0.0040
     10  C          7.2210   -1.5810    0.0530 C.2     1  UNL1        0.0000
     11  C          7.0600   -0.2920   -1.9410 C.2     1  UNL1        0.0000
     12  C          7.4920   -1.4220   -1.2820 C.2     1  UNL1        0.0000
@<TRIPOS>BOND
     1    11    12    2
     2    11     9    1
     3    12    10    1
     4     9     7    2
     5    10     8    2
     6     1     6    1
     7     1     2    1
     8     7     8    1
     9     7     6    1
    10     4     5    1
    11     4     2    1
    12     2     3    2
