@<TRIPOS>MOLECULE
/home/cewinharhar/GITHUB/reincatalyze/data/processed/docking_pred/2023_Apr_20-15:07/c8a10dea28a77dd5a54e6b3bff917c6d12aef46d_ligand_2.pdbqt
 12 12 0 0 0
SMALL
GASTEIGER

@<TRIPOS>ATOM
      1  C          8.4050   -0.5420   -2.2230 C.3     1  UNL1        0.1270
      2  C          8.4510   -1.8570   -2.9040 C.2     1  UNL1        0.3030
      3  O          9.5300   -2.4870   -3.0290 O.2     1  UNL1       -0.2520
      4  O          7.3000   -2.4290   -3.4230 O.3     1  UNL1       -0.4810
      5  H          6.6880   -1.8670   -4.0210 H       1  UNL1        0.2960
      6  C          6.9760   -0.0940   -2.1600 C.3     1  UNL1        0.0470
      7  C          6.4590    0.0560   -0.8010 C.2     1  UNL1       -0.0470
      8  C          6.5940   -0.9570    0.1190 C.2     1  UNL1        0.0040
      9  C          5.8330    1.2290   -0.4470 C.2     1  UNL1        0.0040
     10  C          6.0780   -0.7440    1.3990 C.2     1  UNL1        0.0000
     11  C          5.3230    1.4380    0.8190 C.2     1  UNL1        0.0000
     12  C          5.4530    0.4270    1.7460 C.2     1  UNL1        0.0000
@<TRIPOS>BOND
     1     5     4    1
     2     4     2    1
     3     3     2    2
     4     2     1    1
     5     1     6    1
     6     6     7    1
     7     7     9    2
     8     7     8    1
     9     9    11    1
    10     8    10    2
    11    11    12    2
    12    10    12    1
