@<TRIPOS>MOLECULE
/home/cewinharhar/GITHUB/reincatalyze/data/processed/docking_pred/2023_Apr_20-15:07/cb79d4b49cb2e7af28552c4e2a37cc688e9725fc_ligand_2.pdbqt
 12 12 0 0 0
SMALL
GASTEIGER

@<TRIPOS>ATOM
      1  C          5.3480    2.8190    0.0510 C.3     1  UNL1        0.1270
      2  C          6.1710    3.7620    0.8450 C.2     1  UNL1        0.3030
      3  O          6.2410    3.6690    2.0960 O.2     1  UNL1       -0.2520
      4  O          6.8870    4.7740    0.2270 O.3     1  UNL1       -0.4810
      5  H          6.4340    5.3380   -0.4970 H       1  UNL1        0.2960
      6  C          4.8890    1.7170    0.9550 C.3     1  UNL1        0.0470
      7  C          5.7270    0.5200    0.9070 C.2     1  UNL1       -0.0470
      8  C          6.4200    0.1930   -0.2350 C.2     1  UNL1        0.0040
      9  C          5.8180   -0.2810    2.0210 C.2     1  UNL1        0.0040
     10  C          7.2020   -0.9640   -0.2100 C.2     1  UNL1        0.0000
     11  C          6.5910   -1.4250    2.0440 C.2     1  UNL1        0.0000
     12  C          7.2880   -1.7600    0.9040 C.2     1  UNL1        0.0000
@<TRIPOS>BOND
     1     5     4    1
     2     8    10    1
     3     8     7    2
     4    10    12    2
     5     1     2    1
     6     1     6    1
     7     4     2    1
     8     2     3    2
     9    12    11    1
    10     7     6    1
    11     7     9    1
    12     9    11    2
