@<TRIPOS>MOLECULE
/home/cewinharhar/GITHUB/reincatalyze/data/processed/docking_pred/2023_Apr_20-15:07/cb79d4b49cb2e7af28552c4e2a37cc688e9725fc_ligand_2.pdbqt
 12 12 0 0 0
SMALL
GASTEIGER

@<TRIPOS>ATOM
      1  C          8.4510   -0.6380   -2.1430 C.3     1  UNL1        0.1270
      2  C          8.4910   -1.9080   -2.9060 C.2     1  UNL1        0.3030
      3  O          9.5710   -2.5190   -3.0990 O.2     1  UNL1       -0.2520
      4  O          7.3320   -2.4580   -3.4310 O.3     1  UNL1       -0.4810
      5  H          7.0720   -3.4150   -3.1770 H       1  UNL1        0.2960
      6  C          7.0390   -0.1380   -2.1350 C.3     1  UNL1        0.0470
      7  C          6.4830    0.0500   -0.7960 C.2     1  UNL1       -0.0470
      8  C          5.8610    1.2270   -0.4520 C.2     1  UNL1        0.0040
      9  C          6.5850   -0.9700    0.1220 C.2     1  UNL1        0.0040
     10  C          5.3510    1.3360    0.8440 C.2     1  UNL1        0.0000
     11  C          6.0810   -0.8600    1.4030 C.2     1  UNL1        0.0000
     12  C          5.4570    0.3160    1.7560 C.2     1  UNL1        0.0000
@<TRIPOS>BOND
     1     4     5    1
     2     4     2    1
     3     3     2    2
     4     2     1    1
     5     1     6    1
     6     6     7    1
     7     7     8    2
     8     7     9    1
     9     8    10    1
    10     9    11    2
    11    10    12    2
    12    11    12    1
