@<TRIPOS>MOLECULE
/home/cewinharhar/GITHUB/reincatalyze/data/processed/docking_pred/2023_Apr_20-15:07/cb79d4b49cb2e7af28552c4e2a37cc688e9725fc_ligand_2.pdbqt
 12 12 0 0 0
SMALL
GASTEIGER

@<TRIPOS>ATOM
      1  C          7.3160   -1.3870   -2.1300 C.3     1  UNL1        0.1270
      2  C          8.7440   -1.3660   -2.5230 C.2     1  UNL1        0.3030
      3  O          9.5050   -0.4330   -2.1640 O.2     1  UNL1       -0.2520
      4  O          9.2820   -2.3800   -3.3000 O.3     1  UNL1       -0.4810
      5  H          9.6040   -2.1670   -4.2480 H       1  UNL1        0.2960
      6  C          7.2390   -1.4160   -0.6340 C.3     1  UNL1        0.0470
      7  C          6.4550   -0.3250   -0.0580 C.2     1  UNL1       -0.0470
      8  C          5.9930   -0.3970    1.2360 C.2     1  UNL1        0.0040
      9  C          6.1820    0.7840   -0.8250 C.2     1  UNL1        0.0040
     10  C          5.2510    0.6820    1.7220 C.2     1  UNL1        0.0000
     11  C          5.4480    1.8500   -0.3440 C.2     1  UNL1        0.0000
     12  C          4.9810    1.7850    0.9510 C.2     1  UNL1        0.0000
@<TRIPOS>BOND
     1     5     4    1
     2     4     2    1
     3     2     3    2
     4     2     1    1
     5     1     6    1
     6     9    11    1
     7     9     7    2
     8     6     7    1
     9    11    12    2
    10     7     8    1
    11    12    10    1
    12     8    10    2
