MODEL 1
REMARK VINA RESULT:      -7.3      0.000      0.000
REMARK SMILES O=C(O)CCc1ccccc1
REMARK SMILES IDX 4 1 2 2 1 3 3 4 5 6 6 7 7 8 11 9 8 10 10 11 9 12
REMARK H PARENT 3 5
REMARK Flexibility Score: inf
ROOT
ATOM      1  C   UNL     1       8.451  -0.638  -2.143  1.00  0.00     0.127 C 
ENDROOT
BRANCH   1   2
ATOM      2  C   UNL     1       8.491  -1.908  -2.906  1.00  0.00     0.303 C 
ATOM      3  O   UNL     1       9.571  -2.519  -3.099  1.00  0.00    -0.252 OA
BRANCH   2   4
ATOM      4  O   UNL     1       7.332  -2.458  -3.431  1.00  0.00    -0.481 OA
ATOM      5  H   UNL     1       7.072  -3.415  -3.177  1.00  0.00     0.296 HD
ENDBRANCH   2   4
ENDBRANCH   1   2
BRANCH   1   6
ATOM      6  C   UNL     1       7.039  -0.138  -2.135  1.00  0.00     0.047 C 
BRANCH   6   7
ATOM      7  C   UNL     1       6.483   0.050  -0.796  1.00  0.00    -0.047 A 
ATOM      8  C   UNL     1       5.861   1.227  -0.452  1.00  0.00     0.004 A 
ATOM      9  C   UNL     1       6.585  -0.970   0.122  1.00  0.00     0.004 A 
ATOM     10  C   UNL     1       5.351   1.336   0.844  1.00  0.00     0.000 A 
ATOM     11  C   UNL     1       6.081  -0.860   1.403  1.00  0.00     0.000 A 
ATOM     12  C   UNL     1       5.457   0.316   1.756  1.00  0.00     0.000 A 
ENDBRANCH   6   7
ENDBRANCH   1   6
TORSDOF 4
ENDMDL
MODEL 2
REMARK VINA RESULT:      -7.3      0.070      1.438
REMARK SMILES O=C(O)CCc1ccccc1
REMARK SMILES IDX 4 1 2 2 1 3 3 4 5 6 6 7 7 8 11 9 8 10 10 11 9 12
REMARK H PARENT 3 5
REMARK Flexibility Score: inf
ROOT
ATOM      1  C   UNL     1       8.424  -0.556  -2.215  1.00  0.00     0.127 C 
ENDROOT
BRANCH   1   2
ATOM      2  C   UNL     1       8.485  -1.859  -2.919  1.00  0.00     0.303 C 
ATOM      3  O   UNL     1       9.577  -2.453  -3.096  1.00  0.00    -0.252 OA
BRANCH   2   4
ATOM      4  O   UNL     1       7.333  -2.458  -3.404  1.00  0.00    -0.481 OA
ATOM      5  H   UNL     1       7.290  -2.735  -4.389  1.00  0.00     0.296 HD
ENDBRANCH   2   4
ENDBRANCH   1   2
BRANCH   1   6
ATOM      6  C   UNL     1       6.992  -0.120  -2.155  1.00  0.00     0.047 C 
BRANCH   6   7
ATOM      7  C   UNL     1       6.473   0.034  -0.797  1.00  0.00    -0.047 A 
ATOM      8  C   UNL     1       6.616  -0.973   0.129  1.00  0.00     0.004 A 
ATOM      9  C   UNL     1       5.839   1.205  -0.449  1.00  0.00     0.004 A 
ATOM     10  C   UNL     1       6.097  -0.756   1.408  1.00  0.00     0.000 A 
ATOM     11  C   UNL     1       5.327   1.417   0.815  1.00  0.00     0.000 A 
ATOM     12  C   UNL     1       5.465   0.413   1.749  1.00  0.00     0.000 A 
ENDBRANCH   6   7
ENDBRANCH   1   6
TORSDOF 4
ENDMDL
MODEL 3
REMARK VINA RESULT:      -7.0      0.998      1.923
REMARK SMILES O=C(O)CCc1ccccc1
REMARK SMILES IDX 4 1 2 2 1 3 3 4 5 6 6 7 7 8 11 9 8 10 10 11 9 12
REMARK H PARENT 3 5
REMARK Flexibility Score: inf
ROOT
ATOM      1  C   UNL     1       7.316  -1.387  -2.130  1.00  0.00     0.127 C 
ENDROOT
BRANCH   1   2
ATOM      2  C   UNL     1       8.744  -1.366  -2.523  1.00  0.00     0.303 C 
ATOM      3  O   UNL     1       9.505  -0.433  -2.164  1.00  0.00    -0.252 OA
BRANCH   2   4
ATOM      4  O   UNL     1       9.282  -2.380  -3.300  1.00  0.00    -0.481 OA
ATOM      5  H   UNL     1       9.604  -2.167  -4.248  1.00  0.00     0.296 HD
ENDBRANCH   2   4
ENDBRANCH   1   2
BRANCH   1   6
ATOM      6  C   UNL     1       7.239  -1.416  -0.634  1.00  0.00     0.047 C 
BRANCH   6   7
ATOM      7  C   UNL     1       6.455  -0.325  -0.058  1.00  0.00    -0.047 A 
ATOM      8  C   UNL     1       5.993  -0.397   1.236  1.00  0.00     0.004 A 
ATOM      9  C   UNL     1       6.182   0.784  -0.825  1.00  0.00     0.004 A 
ATOM     10  C   UNL     1       5.251   0.682   1.722  1.00  0.00     0.000 A 
ATOM     11  C   UNL     1       5.448   1.850  -0.344  1.00  0.00     0.000 A 
ATOM     12  C   UNL     1       4.981   1.785   0.951  1.00  0.00     0.000 A 
ENDBRANCH   6   7
ENDBRANCH   1   6
TORSDOF 4
ENDMDL
MODEL 4
REMARK VINA RESULT:      -6.7      3.345      5.019
REMARK SMILES O=C(O)CCc1ccccc1
REMARK SMILES IDX 4 1 2 2 1 3 3 4 5 6 6 7 7 8 11 9 8 10 10 11 9 12
REMARK H PARENT 3 5
REMARK Flexibility Score: inf
ROOT
ATOM      1  C   UNL     1       5.032   1.691   0.673  1.00  0.00     0.127 C 
ENDROOT
BRANCH   1   2
ATOM      2  C   UNL     1       4.610   1.014   1.922  1.00  0.00     0.303 C 
ATOM      3  O   UNL     1       5.353   0.178   2.493  1.00  0.00    -0.252 OA
BRANCH   2   4
ATOM      4  O   UNL     1       3.378   1.287   2.497  1.00  0.00    -0.481 OA
ATOM      5  H   UNL     1       3.131   0.843   3.385  1.00  0.00     0.296 HD
ENDBRANCH   2   4
ENDBRANCH   1   2
BRANCH   1   6
ATOM      6  C   UNL     1       6.526   1.795   0.676  1.00  0.00     0.047 C 
BRANCH   6   7
ATOM      7  C   UNL     1       7.178   1.027  -0.384  1.00  0.00    -0.047 A 
ATOM      8  C   UNL     1       8.519   1.187  -0.646  1.00  0.00     0.004 A 
ATOM      9  C   UNL     1       6.433   0.137  -1.122  1.00  0.00     0.004 A 
ATOM     10  C   UNL     1       9.074   0.420  -1.673  1.00  0.00     0.000 A 
ATOM     11  C   UNL     1       6.984  -0.620  -2.137  1.00  0.00     0.000 A 
ATOM     12  C   UNL     1       8.327  -0.466  -2.406  1.00  0.00     0.000 A 
ENDBRANCH   6   7
ENDBRANCH   1   6
TORSDOF 4
ENDMDL
MODEL 5
REMARK VINA RESULT:      -6.7      3.821      4.925
REMARK SMILES O=C(O)CCc1ccccc1
REMARK SMILES IDX 4 1 2 2 1 3 3 4 5 6 6 7 7 8 11 9 8 10 10 11 9 12
REMARK H PARENT 3 5
REMARK Flexibility Score: inf
ROOT
ATOM      1  C   UNL     1       5.348   2.819   0.051  1.00  0.00     0.127 C 
ENDROOT
BRANCH   1   2
ATOM      2  C   UNL     1       6.171   3.762   0.845  1.00  0.00     0.303 C 
ATOM      3  O   UNL     1       6.241   3.669   2.096  1.00  0.00    -0.252 OA
BRANCH   2   4
ATOM      4  O   UNL     1       6.887   4.774   0.227  1.00  0.00    -0.481 OA
ATOM      5  H   UNL     1       6.434   5.338  -0.497  1.00  0.00     0.296 HD
ENDBRANCH   2   4
ENDBRANCH   1   2
BRANCH   1   6
ATOM      6  C   UNL     1       4.889   1.717   0.955  1.00  0.00     0.047 C 
BRANCH   6   7
ATOM      7  C   UNL     1       5.727   0.520   0.907  1.00  0.00    -0.047 A 
ATOM      8  C   UNL     1       6.420   0.193  -0.235  1.00  0.00     0.004 A 
ATOM      9  C   UNL     1       5.818  -0.281   2.021  1.00  0.00     0.004 A 
ATOM     10  C   UNL     1       7.202  -0.964  -0.210  1.00  0.00     0.000 A 
ATOM     11  C   UNL     1       6.591  -1.425   2.044  1.00  0.00     0.000 A 
ATOM     12  C   UNL     1       7.288  -1.760   0.904  1.00  0.00     0.000 A 
ENDBRANCH   6   7
ENDBRANCH   1   6
TORSDOF 4
ENDMDL
