@<TRIPOS>MOLECULE
/home/cewinharhar/GITHUB/reincatalyze/data/processed/docking_pred/2023_Apr_20-15:07/cb79d4b49cb2e7af28552c4e2a37cc688e9725fc_ligand_2.pdbqt
 12 12 0 0 0
SMALL
GASTEIGER

@<TRIPOS>ATOM
      1  C          8.4240   -0.5560   -2.2150 C.3     1  UNL1        0.1270
      2  C          8.4850   -1.8590   -2.9190 C.2     1  UNL1        0.3030
      3  O          9.5770   -2.4530   -3.0960 O.2     1  UNL1       -0.2520
      4  O          7.3330   -2.4580   -3.4040 O.3     1  UNL1       -0.4810
      5  H          7.2900   -2.7350   -4.3890 H       1  UNL1        0.2960
      6  C          6.9920   -0.1200   -2.1550 C.3     1  UNL1        0.0470
      7  C          6.4730    0.0340   -0.7970 C.2     1  UNL1       -0.0470
      8  C          6.6160   -0.9730    0.1290 C.2     1  UNL1        0.0040
      9  C          5.8390    1.2050   -0.4490 C.2     1  UNL1        0.0040
     10  C          6.0970   -0.7560    1.4080 C.2     1  UNL1        0.0000
     11  C          5.3270    1.4170    0.8150 C.2     1  UNL1        0.0000
     12  C          5.4650    0.4130    1.7490 C.2     1  UNL1        0.0000
@<TRIPOS>BOND
     1     5     4    1
     2     4     2    1
     3     3     2    2
     4     2     1    1
     5     1     6    1
     6     6     7    1
     7     7     9    2
     8     7     8    1
     9     9    11    1
    10     8    10    2
    11    11    12    2
    12    10    12    1
