@<TRIPOS>MOLECULE
/home/cewinharhar/GITHUB/reincatalyze/data/processed/docking_pred/2023_Apr_20-15:07/cb79d4b49cb2e7af28552c4e2a37cc688e9725fc_ligand_2.pdbqt
 12 12 0 0 0
SMALL
GASTEIGER

@<TRIPOS>ATOM
      1  C          5.0320    1.6910    0.6730 C.3     1  UNL1        0.1270
      2  C          4.6100    1.0140    1.9220 C.2     1  UNL1        0.3030
      3  O          5.3530    0.1780    2.4930 O.2     1  UNL1       -0.2520
      4  O          3.3780    1.2870    2.4970 O.3     1  UNL1       -0.4810
      5  H          3.1310    0.8430    3.3850 H       1  UNL1        0.2960
      6  C          6.5260    1.7950    0.6760 C.3     1  UNL1        0.0470
      7  C          7.1780    1.0270   -0.3840 C.2     1  UNL1       -0.0470
      8  C          8.5190    1.1870   -0.6460 C.2     1  UNL1        0.0040
      9  C          6.4330    0.1370   -1.1220 C.2     1  UNL1        0.0040
     10  C          9.0740    0.4200   -1.6730 C.2     1  UNL1        0.0000
     11  C          6.9840   -0.6200   -2.1370 C.2     1  UNL1        0.0000
     12  C          8.3270   -0.4660   -2.4060 C.2     1  UNL1        0.0000
@<TRIPOS>BOND
     1    12    11    2
     2    12    10    1
     3    11     9    1
     4    10     8    2
     5     9     7    2
     6     8     7    1
     7     7     6    1
     8     1     6    1
     9     1     2    1
    10     2     3    2
    11     2     4    1
    12     4     5    1
