@<TRIPOS>MOLECULE
/home/cewinharhar/GITHUB/reincatalyze/data/processed/docking_pred/2023_Apr_20-15:07/cdc825ac9d1cfd0e1f917a20457d8153cb4f8d56_ligand_2.pdbqt
 12 12 0 0 0
SMALL
GASTEIGER

@<TRIPOS>ATOM
      1  C          8.4470   -0.5820   -2.1870 C.3     1  UNL1        0.1270
      2  C          8.4670   -1.8630   -2.9320 C.2     1  UNL1        0.3030
      3  O          9.5410   -2.4820   -3.1340 O.2     1  UNL1       -0.2520
      4  O          7.2960   -2.4140   -3.4280 O.3     1  UNL1       -0.4810
      5  H          7.3280   -3.3270   -3.8890 H       1  UNL1        0.2960
      6  C          7.0360   -0.0820   -2.1480 C.3     1  UNL1        0.0470
      7  C          6.4950    0.0690   -0.7980 C.2     1  UNL1       -0.0470
      8  C          6.5960   -0.9520    0.1180 C.2     1  UNL1        0.0040
      9  C          5.8830    1.2500   -0.4480 C.2     1  UNL1        0.0040
     10  C          6.0590   -0.7380    1.3890 C.2     1  UNL1        0.0000
     11  C          5.3520    1.4600    0.8090 C.2     1  UNL1        0.0000
     12  C          5.4480    0.4420    1.7320 C.2     1  UNL1        0.0000
@<TRIPOS>BOND
     1     5     4    1
     2     4     2    1
     3     3     2    2
     4     2     1    1
     5     1     6    1
     6     6     7    1
     7     7     9    2
     8     7     8    1
     9     9    11    1
    10     8    10    2
    11    11    12    2
    12    10    12    1
