@<TRIPOS>MOLECULE
/home/cewinharhar/GITHUB/reincatalyze/data/processed/docking_pred/2023_Apr_20-15:07/cdc825ac9d1cfd0e1f917a20457d8153cb4f8d56_ligand_2.pdbqt
 12 12 0 0 0
SMALL
GASTEIGER

@<TRIPOS>ATOM
      1  C          8.2070    0.2350   -2.2360 C.3     1  UNL1        0.1270
      2  C          9.3260    0.3530   -1.2710 C.2     1  UNL1        0.3030
      3  O          9.4220   -0.4220   -0.2880 O.2     1  UNL1       -0.2520
      4  O         10.3000    1.3260   -1.4290 O.3     1  UNL1       -0.4810
      5  H         10.3090    2.1320   -0.7980 H       1  UNL1        0.2960
      6  C          7.0880   -0.5070   -1.5700 C.3     1  UNL1        0.0470
      7  C          6.3200    0.3010   -0.6240 C.2     1  UNL1       -0.0470
      8  C          5.8090    1.5230   -0.9940 C.2     1  UNL1        0.0040
      9  C          6.1100   -0.1770    0.6490 C.2     1  UNL1        0.0040
     10  C          5.0850    2.2390   -0.0380 C.2     1  UNL1        0.0000
     11  C          5.3940    0.5330    1.5930 C.2     1  UNL1        0.0000
     12  C          4.8790    1.7580    1.2300 C.2     1  UNL1        0.0000
@<TRIPOS>BOND
     1     1     6    1
     2     1     2    1
     3     6     7    1
     4     4     2    1
     5     4     5    1
     6     2     3    2
     7     8     7    2
     8     8    10    1
     9     7     9    1
    10    10    12    2
    11     9    11    2
    12    12    11    1
