MODEL 1
REMARK VINA RESULT:      -7.3      0.000      0.000
REMARK SMILES O=C(O)CCc1ccccc1
REMARK SMILES IDX 4 1 2 2 1 3 3 4 5 6 6 7 7 8 11 9 8 10 10 11 9 12
REMARK H PARENT 3 5
REMARK Flexibility Score: inf
ROOT
ATOM      1  C   UNL     1       8.441  -0.682  -2.078  1.00  0.00     0.127 C 
ENDROOT
BRANCH   1   2
ATOM      2  C   UNL     1       8.479  -1.922  -2.888  1.00  0.00     0.303 C 
ATOM      3  O   UNL     1       9.557  -2.531  -3.096  1.00  0.00    -0.252 OA
BRANCH   2   4
ATOM      4  O   UNL     1       7.321  -2.445  -3.440  1.00  0.00    -0.481 OA
ATOM      5  H   UNL     1       7.103  -3.436  -3.302  1.00  0.00     0.296 HD
ENDBRANCH   2   4
ENDBRANCH   1   2
BRANCH   1   6
ATOM      6  C   UNL     1       7.041  -0.149  -2.099  1.00  0.00     0.047 C 
BRANCH   6   7
ATOM      7  C   UNL     1       6.466   0.065  -0.772  1.00  0.00    -0.047 A 
ATOM      8  C   UNL     1       5.815   1.237  -0.468  1.00  0.00     0.004 A 
ATOM      9  C   UNL     1       6.581  -0.926   0.177  1.00  0.00     0.004 A 
ATOM     10  C   UNL     1       5.289   1.372   0.820  1.00  0.00     0.000 A 
ATOM     11  C   UNL     1       6.061  -0.791   1.449  1.00  0.00     0.000 A 
ATOM     12  C   UNL     1       5.407   0.381   1.762  1.00  0.00     0.000 A 
ENDBRANCH   6   7
ENDBRANCH   1   6
TORSDOF 4
ENDMDL
MODEL 2
REMARK VINA RESULT:      -7.3      0.083      1.438
REMARK SMILES O=C(O)CCc1ccccc1
REMARK SMILES IDX 4 1 2 2 1 3 3 4 5 6 6 7 7 8 11 9 8 10 10 11 9 12
REMARK H PARENT 3 5
REMARK Flexibility Score: inf
ROOT
ATOM      1  C   UNL     1       8.447  -0.582  -2.187  1.00  0.00     0.127 C 
ENDROOT
BRANCH   1   2
ATOM      2  C   UNL     1       8.467  -1.863  -2.932  1.00  0.00     0.303 C 
ATOM      3  O   UNL     1       9.541  -2.482  -3.134  1.00  0.00    -0.252 OA
BRANCH   2   4
ATOM      4  O   UNL     1       7.296  -2.414  -3.428  1.00  0.00    -0.481 OA
ATOM      5  H   UNL     1       7.328  -3.327  -3.889  1.00  0.00     0.296 HD
ENDBRANCH   2   4
ENDBRANCH   1   2
BRANCH   1   6
ATOM      6  C   UNL     1       7.036  -0.082  -2.148  1.00  0.00     0.047 C 
BRANCH   6   7
ATOM      7  C   UNL     1       6.495   0.069  -0.798  1.00  0.00    -0.047 A 
ATOM      8  C   UNL     1       6.596  -0.952   0.118  1.00  0.00     0.004 A 
ATOM      9  C   UNL     1       5.883   1.250  -0.448  1.00  0.00     0.004 A 
ATOM     10  C   UNL     1       6.059  -0.738   1.389  1.00  0.00     0.000 A 
ATOM     11  C   UNL     1       5.352   1.460   0.809  1.00  0.00     0.000 A 
ATOM     12  C   UNL     1       5.448   0.442   1.732  1.00  0.00     0.000 A 
ENDBRANCH   6   7
ENDBRANCH   1   6
TORSDOF 4
ENDMDL
MODEL 3
REMARK VINA RESULT:      -6.7      3.386      5.096
REMARK SMILES O=C(O)CCc1ccccc1
REMARK SMILES IDX 4 1 2 2 1 3 3 4 5 6 6 7 7 8 11 9 8 10 10 11 9 12
REMARK H PARENT 3 5
REMARK Flexibility Score: inf
ROOT
ATOM      1  C   UNL     1       5.018   1.774   0.715  1.00  0.00     0.127 C 
ENDROOT
BRANCH   1   2
ATOM      2  C   UNL     1       4.488   1.102   1.925  1.00  0.00     0.303 C 
ATOM      3  O   UNL     1       5.134   0.192   2.500  1.00  0.00    -0.252 OA
BRANCH   2   4
ATOM      4  O   UNL     1       3.259   1.461   2.456  1.00  0.00    -0.481 OA
ATOM      5  H   UNL     1       2.920   0.988   3.298  1.00  0.00     0.296 HD
ENDBRANCH   2   4
ENDBRANCH   1   2
BRANCH   1   6
ATOM      6  C   UNL     1       6.515   1.727   0.768  1.00  0.00     0.047 C 
BRANCH   6   7
ATOM      7  C   UNL     1       7.125   0.975  -0.327  1.00  0.00    -0.047 A 
ATOM      8  C   UNL     1       6.404   0.028  -1.017  1.00  0.00     0.004 A 
ATOM      9  C   UNL     1       8.435   1.225  -0.665  1.00  0.00     0.004 A 
ATOM     10  C   UNL     1       7.050  -0.651  -2.052  1.00  0.00     0.000 A 
ATOM     11  C   UNL     1       9.072   0.552  -1.688  1.00  0.00     0.000 A 
ATOM     12  C   UNL     1       8.357  -0.398  -2.384  1.00  0.00     0.000 A 
ENDBRANCH   6   7
ENDBRANCH   1   6
TORSDOF 4
ENDMDL
MODEL 4
REMARK VINA RESULT:      -6.6      1.914      2.276
REMARK SMILES O=C(O)CCc1ccccc1
REMARK SMILES IDX 4 1 2 2 1 3 3 4 5 6 6 7 7 8 11 9 8 10 10 11 9 12
REMARK H PARENT 3 5
REMARK Flexibility Score: inf
ROOT
ATOM      1  C   UNL     1       8.207   0.235  -2.236  1.00  0.00     0.127 C 
ENDROOT
BRANCH   1   2
ATOM      2  C   UNL     1       9.326   0.353  -1.271  1.00  0.00     0.303 C 
ATOM      3  O   UNL     1       9.422  -0.422  -0.288  1.00  0.00    -0.252 OA
BRANCH   2   4
ATOM      4  O   UNL     1      10.300   1.326  -1.429  1.00  0.00    -0.481 OA
ATOM      5  H   UNL     1      10.309   2.132  -0.798  1.00  0.00     0.296 HD
ENDBRANCH   2   4
ENDBRANCH   1   2
BRANCH   1   6
ATOM      6  C   UNL     1       7.088  -0.507  -1.570  1.00  0.00     0.047 C 
BRANCH   6   7
ATOM      7  C   UNL     1       6.320   0.301  -0.624  1.00  0.00    -0.047 A 
ATOM      8  C   UNL     1       5.809   1.523  -0.994  1.00  0.00     0.004 A 
ATOM      9  C   UNL     1       6.110  -0.177   0.649  1.00  0.00     0.004 A 
ATOM     10  C   UNL     1       5.085   2.239  -0.038  1.00  0.00     0.000 A 
ATOM     11  C   UNL     1       5.394   0.533   1.593  1.00  0.00     0.000 A 
ATOM     12  C   UNL     1       4.879   1.758   1.230  1.00  0.00     0.000 A 
ENDBRANCH   6   7
ENDBRANCH   1   6
TORSDOF 4
ENDMDL
MODEL 5
REMARK VINA RESULT:      -6.5      3.707      4.901
REMARK SMILES O=C(O)CCc1ccccc1
REMARK SMILES IDX 4 1 2 2 1 3 3 4 5 6 6 7 7 8 11 9 8 10 10 11 9 12
REMARK H PARENT 3 5
REMARK Flexibility Score: inf
ROOT
ATOM      1  C   UNL     1       5.430   2.923  -0.006  1.00  0.00     0.127 C 
ENDROOT
BRANCH   1   2
ATOM      2  C   UNL     1       6.278   3.826   0.807  1.00  0.00     0.303 C 
ATOM      3  O   UNL     1       7.269   4.414   0.307  1.00  0.00    -0.252 OA
BRANCH   2   4
ATOM      4  O   UNL     1       6.000   4.046   2.147  1.00  0.00    -0.481 OA
ATOM      5  H   UNL     1       5.498   4.895   2.421  1.00  0.00     0.296 HD
ENDBRANCH   2   4
ENDBRANCH   1   2
BRANCH   1   6
ATOM      6  C   UNL     1       4.887   1.852   0.891  1.00  0.00     0.047 C 
BRANCH   6   7
ATOM      7  C   UNL     1       5.687   0.629   0.907  1.00  0.00    -0.047 A 
ATOM      8  C   UNL     1       6.348   0.206  -0.223  1.00  0.00     0.004 A 
ATOM      9  C   UNL     1       5.776  -0.100   2.070  1.00  0.00     0.004 A 
ATOM     10  C   UNL     1       7.095  -0.971  -0.135  1.00  0.00     0.000 A 
ATOM     11  C   UNL     1       6.515  -1.263   2.156  1.00  0.00     0.000 A 
ATOM     12  C   UNL     1       7.179  -1.695   1.028  1.00  0.00     0.000 A 
ENDBRANCH   6   7
ENDBRANCH   1   6
TORSDOF 4
ENDMDL
