@<TRIPOS>MOLECULE
/home/cewinharhar/GITHUB/reincatalyze/data/processed/docking_pred/2023_Apr_20-15:07/cdc825ac9d1cfd0e1f917a20457d8153cb4f8d56_ligand_2.pdbqt
 12 12 0 0 0
SMALL
GASTEIGER

@<TRIPOS>ATOM
      1  C          5.4300    2.9230   -0.0060 C.3     1  UNL1        0.1270
      2  C          6.2780    3.8260    0.8070 C.2     1  UNL1        0.3030
      3  O          7.2690    4.4140    0.3070 O.2     1  UNL1       -0.2520
      4  O          6.0000    4.0460    2.1470 O.3     1  UNL1       -0.4810
      5  H          5.4980    4.8950    2.4210 H       1  UNL1        0.2960
      6  C          4.8870    1.8520    0.8910 C.3     1  UNL1        0.0470
      7  C          5.6870    0.6290    0.9070 C.2     1  UNL1       -0.0470
      8  C          6.3480    0.2060   -0.2230 C.2     1  UNL1        0.0040
      9  C          5.7760   -0.1000    2.0700 C.2     1  UNL1        0.0040
     10  C          7.0950   -0.9710   -0.1350 C.2     1  UNL1        0.0000
     11  C          6.5150   -1.2630    2.1560 C.2     1  UNL1        0.0000
     12  C          7.1790   -1.6950    1.0280 C.2     1  UNL1        0.0000
@<TRIPOS>BOND
     1     8    10    1
     2     8     7    2
     3    10    12    2
     4     1     2    1
     5     1     6    1
     6     3     2    2
     7     2     4    1
     8     6     7    1
     9     7     9    1
    10    12    11    1
    11     9    11    2
    12     4     5    1
