@<TRIPOS>MOLECULE
/home/cewinharhar/GITHUB/reincatalyze/data/processed/docking_pred/2023_Apr_20-15:07/d0b377ce7413ba2d0a06352180e6db5bf746794c_ligand_2.pdbqt
 12 12 0 0 0
SMALL
GASTEIGER

@<TRIPOS>ATOM
      1  C          5.0440    1.7480    0.6800 C.3     1  UNL1        0.1270
      2  C          4.6000    1.0550    1.9130 C.2     1  UNL1        0.3030
      3  O          5.3300    0.2040    2.4790 O.2     1  UNL1       -0.2520
      4  O          3.3640    1.3290    2.4760 O.3     1  UNL1       -0.4810
      5  H          2.9250    0.6310    3.0820 H       1  UNL1        0.2960
      6  C          6.5400    1.8140    0.6890 C.3     1  UNL1        0.0470
      7  C          7.1770    1.0400   -0.3750 C.2     1  UNL1       -0.0470
      8  C          8.5130    1.2010   -0.6580 C.2     1  UNL1        0.0040
      9  C          6.4230    0.1410   -1.0940 C.2     1  UNL1        0.0040
     10  C          9.0550    0.4270   -1.6870 C.2     1  UNL1        0.0000
     11  C          6.9610   -0.6220   -2.1110 C.2     1  UNL1        0.0000
     12  C          8.2990   -0.4670   -2.4020 C.2     1  UNL1        0.0000
@<TRIPOS>BOND
     1    12    11    2
     2    12    10    1
     3    11     9    1
     4    10     8    2
     5     9     7    2
     6     8     7    1
     7     7     6    1
     8     1     6    1
     9     1     2    1
    10     2     4    1
    11     2     3    2
    12     4     5    1
