@<TRIPOS>MOLECULE
/home/cewinharhar/GITHUB/reincatalyze/data/processed/docking_pred/2023_Apr_20-15:07/d0b377ce7413ba2d0a06352180e6db5bf746794c_ligand_2.pdbqt
 12 12 0 0 0
SMALL
GASTEIGER

@<TRIPOS>ATOM
      1  C          5.4460    2.8800   -0.0180 C.3     1  UNL1        0.1270
      2  C          6.2370    3.8330    0.7970 C.2     1  UNL1        0.3030
      3  O          6.8790    4.7700    0.2610 O.2     1  UNL1       -0.2520
      4  O          6.2880    3.7160    2.1770 O.3     1  UNL1       -0.4810
      5  H          6.2190    2.7880    2.6030 H       1  UNL1        0.2960
      6  C          4.9170    1.8120    0.8900 C.3     1  UNL1        0.0470
      7  C          5.7190    0.5900    0.9010 C.2     1  UNL1       -0.0470
      8  C          6.3860    0.1760   -0.2280 C.2     1  UNL1        0.0040
      9  C          5.8040   -0.1470    2.0600 C.2     1  UNL1        0.0040
     10  C          7.1340   -1.0010   -0.1440 C.2     1  UNL1        0.0000
     11  C          6.5440   -1.3090    2.1410 C.2     1  UNL1        0.0000
     12  C          7.2140   -1.7320    1.0140 C.2     1  UNL1        0.0000
@<TRIPOS>BOND
     1     8    10    1
     2     8     7    2
     3    10    12    2
     4     1     2    1
     5     1     6    1
     6     3     2    2
     7     2     4    1
     8     6     7    1
     9     7     9    1
    10    12    11    1
    11     9    11    2
    12     4     5    1
