@<TRIPOS>MOLECULE
/home/cewinharhar/GITHUB/reincatalyze/data/processed/docking_pred/2023_Apr_20-15:07/d0b377ce7413ba2d0a06352180e6db5bf746794c_ligand_2.pdbqt
 12 12 0 0 0
SMALL
GASTEIGER

@<TRIPOS>ATOM
      1  C          8.4140   -0.6140   -2.1310 C.3     1  UNL1        0.1270
      2  C          8.4570   -1.8830   -2.8960 C.2     1  UNL1        0.3030
      3  O          9.5430   -2.4760   -3.1130 O.2     1  UNL1       -0.2520
      4  O          7.2960   -2.4500   -3.3960 O.3     1  UNL1       -0.4810
      5  H          7.2830   -2.7970   -4.3590 H       1  UNL1        0.2960
      6  C          6.9980   -0.1250   -2.1110 C.3     1  UNL1        0.0470
      7  C          6.4530    0.0630   -0.7670 C.2     1  UNL1       -0.0470
      8  C          5.8140    1.2330   -0.4250 C.2     1  UNL1        0.0040
      9  C          6.5840   -0.9460    0.1580 C.2     1  UNL1        0.0040
     10  C          5.3180    1.3430    0.8760 C.2     1  UNL1        0.0000
     11  C          6.0930   -0.8350    1.4440 C.2     1  UNL1        0.0000
     12  C          5.4520    0.3330    1.7950 C.2     1  UNL1        0.0000
@<TRIPOS>BOND
     1     5     4    1
     2     4     2    1
     3     3     2    2
     4     2     1    1
     5     1     6    1
     6     6     7    1
     7     7     8    2
     8     7     9    1
     9     8    10    1
    10     9    11    2
    11    10    12    2
    12    11    12    1
