MODEL 1
REMARK VINA RESULT:      -7.3      0.000      0.000
REMARK SMILES O=C(O)CCc1ccccc1
REMARK SMILES IDX 4 1 2 2 1 3 3 4 5 6 6 7 7 8 11 9 8 10 10 11 9 12
REMARK H PARENT 3 5
REMARK Flexibility Score: inf
ROOT
ATOM      1  C   UNL     1       8.414  -0.614  -2.131  1.00  0.00     0.127 C 
ENDROOT
BRANCH   1   2
ATOM      2  C   UNL     1       8.457  -1.883  -2.896  1.00  0.00     0.303 C 
ATOM      3  O   UNL     1       9.543  -2.476  -3.113  1.00  0.00    -0.252 OA
BRANCH   2   4
ATOM      4  O   UNL     1       7.296  -2.450  -3.396  1.00  0.00    -0.481 OA
ATOM      5  H   UNL     1       7.283  -2.797  -4.359  1.00  0.00     0.296 HD
ENDBRANCH   2   4
ENDBRANCH   1   2
BRANCH   1   6
ATOM      6  C   UNL     1       6.998  -0.125  -2.111  1.00  0.00     0.047 C 
BRANCH   6   7
ATOM      7  C   UNL     1       6.453   0.063  -0.767  1.00  0.00    -0.047 A 
ATOM      8  C   UNL     1       5.814   1.233  -0.425  1.00  0.00     0.004 A 
ATOM      9  C   UNL     1       6.584  -0.946   0.158  1.00  0.00     0.004 A 
ATOM     10  C   UNL     1       5.318   1.343   0.876  1.00  0.00     0.000 A 
ATOM     11  C   UNL     1       6.093  -0.835   1.444  1.00  0.00     0.000 A 
ATOM     12  C   UNL     1       5.452   0.333   1.795  1.00  0.00     0.000 A 
ENDBRANCH   6   7
ENDBRANCH   1   6
TORSDOF 4
ENDMDL
MODEL 2
REMARK VINA RESULT:      -7.3      0.072      1.438
REMARK SMILES O=C(O)CCc1ccccc1
REMARK SMILES IDX 4 1 2 2 1 3 3 4 5 6 6 7 7 8 11 9 8 10 10 11 9 12
REMARK H PARENT 3 5
REMARK Flexibility Score: inf
ROOT
ATOM      1  C   UNL     1       8.440  -0.608  -2.213  1.00  0.00     0.127 C 
ENDROOT
BRANCH   1   2
ATOM      2  C   UNL     1       8.484  -1.901  -2.935  1.00  0.00     0.303 C 
ATOM      3  O   UNL     1       9.568  -2.513  -3.108  1.00  0.00    -0.252 OA
BRANCH   2   4
ATOM      4  O   UNL     1       7.328  -2.473  -3.440  1.00  0.00    -0.481 OA
ATOM      5  H   UNL     1       6.912  -3.273  -2.956  1.00  0.00     0.296 HD
ENDBRANCH   2   4
ENDBRANCH   1   2
BRANCH   1   6
ATOM      6  C   UNL     1       7.014  -0.150  -2.156  1.00  0.00     0.047 C 
BRANCH   6   7
ATOM      7  C   UNL     1       6.494   0.008  -0.799  1.00  0.00    -0.047 A 
ATOM      8  C   UNL     1       6.629  -1.000   0.127  1.00  0.00     0.004 A 
ATOM      9  C   UNL     1       5.866   1.182  -0.453  1.00  0.00     0.004 A 
ATOM     10  C   UNL     1       6.109  -0.781   1.404  1.00  0.00     0.000 A 
ATOM     11  C   UNL     1       5.353   1.397   0.810  1.00  0.00     0.000 A 
ATOM     12  C   UNL     1       5.483   0.392   1.744  1.00  0.00     0.000 A 
ENDBRANCH   6   7
ENDBRANCH   1   6
TORSDOF 4
ENDMDL
MODEL 3
REMARK VINA RESULT:      -6.9      1.012      1.527
REMARK SMILES O=C(O)CCc1ccccc1
REMARK SMILES IDX 4 1 2 2 1 3 3 4 5 6 6 7 7 8 11 9 8 10 10 11 9 12
REMARK H PARENT 3 5
REMARK Flexibility Score: inf
ROOT
ATOM      1  C   UNL     1       7.627  -1.527  -2.104  1.00  0.00     0.127 C 
ENDROOT
BRANCH   1   2
ATOM      2  C   UNL     1       8.573  -2.612  -2.455  1.00  0.00     0.303 C 
ATOM      3  O   UNL     1       8.512  -3.735  -1.897  1.00  0.00    -0.252 OA
BRANCH   2   4
ATOM      4  O   UNL     1       9.556  -2.415  -3.413  1.00  0.00    -0.481 OA
ATOM      5  H   UNL     1      10.089  -3.218  -3.756  1.00  0.00     0.296 HD
ENDBRANCH   2   4
ENDBRANCH   1   2
BRANCH   1   6
ATOM      6  C   UNL     1       7.479  -1.496  -0.614  1.00  0.00     0.047 C 
BRANCH   6   7
ATOM      7  C   UNL     1       6.642  -0.402  -0.122  1.00  0.00    -0.047 A 
ATOM      8  C   UNL     1       6.325   0.661  -0.935  1.00  0.00     0.004 A 
ATOM      9  C   UNL     1       6.169  -0.447   1.169  1.00  0.00     0.004 A 
ATOM     10  C   UNL     1       5.520   1.669  -0.400  1.00  0.00     0.000 A 
ATOM     11  C   UNL     1       5.374   0.551   1.697  1.00  0.00     0.000 A 
ATOM     12  C   UNL     1       5.052   1.619   0.889  1.00  0.00     0.000 A 
ENDBRANCH   6   7
ENDBRANCH   1   6
TORSDOF 4
ENDMDL
MODEL 4
REMARK VINA RESULT:      -6.7      3.333      5.015
REMARK SMILES O=C(O)CCc1ccccc1
REMARK SMILES IDX 4 1 2 2 1 3 3 4 5 6 6 7 7 8 11 9 8 10 10 11 9 12
REMARK H PARENT 3 5
REMARK Flexibility Score: inf
ROOT
ATOM      1  C   UNL     1       5.044   1.748   0.680  1.00  0.00     0.127 C 
ENDROOT
BRANCH   1   2
ATOM      2  C   UNL     1       4.600   1.055   1.913  1.00  0.00     0.303 C 
ATOM      3  O   UNL     1       5.330   0.204   2.479  1.00  0.00    -0.252 OA
BRANCH   2   4
ATOM      4  O   UNL     1       3.364   1.329   2.476  1.00  0.00    -0.481 OA
ATOM      5  H   UNL     1       2.925   0.631   3.082  1.00  0.00     0.296 HD
ENDBRANCH   2   4
ENDBRANCH   1   2
BRANCH   1   6
ATOM      6  C   UNL     1       6.540   1.814   0.689  1.00  0.00     0.047 C 
BRANCH   6   7
ATOM      7  C   UNL     1       7.177   1.040  -0.375  1.00  0.00    -0.047 A 
ATOM      8  C   UNL     1       8.513   1.201  -0.658  1.00  0.00     0.004 A 
ATOM      9  C   UNL     1       6.423   0.141  -1.094  1.00  0.00     0.004 A 
ATOM     10  C   UNL     1       9.055   0.427  -1.687  1.00  0.00     0.000 A 
ATOM     11  C   UNL     1       6.961  -0.622  -2.111  1.00  0.00     0.000 A 
ATOM     12  C   UNL     1       8.299  -0.467  -2.402  1.00  0.00     0.000 A 
ENDBRANCH   6   7
ENDBRANCH   1   6
TORSDOF 4
ENDMDL
MODEL 5
REMARK VINA RESULT:      -6.7      3.819      4.895
REMARK SMILES O=C(O)CCc1ccccc1
REMARK SMILES IDX 4 1 2 2 1 3 3 4 5 6 6 7 7 8 11 9 8 10 10 11 9 12
REMARK H PARENT 3 5
REMARK Flexibility Score: inf
ROOT
ATOM      1  C   UNL     1       5.446   2.880  -0.018  1.00  0.00     0.127 C 
ENDROOT
BRANCH   1   2
ATOM      2  C   UNL     1       6.237   3.833   0.797  1.00  0.00     0.303 C 
ATOM      3  O   UNL     1       6.879   4.770   0.261  1.00  0.00    -0.252 OA
BRANCH   2   4
ATOM      4  O   UNL     1       6.288   3.716   2.177  1.00  0.00    -0.481 OA
ATOM      5  H   UNL     1       6.219   2.788   2.603  1.00  0.00     0.296 HD
ENDBRANCH   2   4
ENDBRANCH   1   2
BRANCH   1   6
ATOM      6  C   UNL     1       4.917   1.812   0.890  1.00  0.00     0.047 C 
BRANCH   6   7
ATOM      7  C   UNL     1       5.719   0.590   0.901  1.00  0.00    -0.047 A 
ATOM      8  C   UNL     1       6.386   0.176  -0.228  1.00  0.00     0.004 A 
ATOM      9  C   UNL     1       5.804  -0.147   2.060  1.00  0.00     0.004 A 
ATOM     10  C   UNL     1       7.134  -1.001  -0.144  1.00  0.00     0.000 A 
ATOM     11  C   UNL     1       6.544  -1.309   2.141  1.00  0.00     0.000 A 
ATOM     12  C   UNL     1       7.214  -1.732   1.014  1.00  0.00     0.000 A 
ENDBRANCH   6   7
ENDBRANCH   1   6
TORSDOF 4
ENDMDL
