@<TRIPOS>MOLECULE
/home/cewinharhar/GITHUB/reincatalyze/data/processed/docking_pred/2023_Apr_20-15:07/d0b377ce7413ba2d0a06352180e6db5bf746794c_ligand_2.pdbqt
 12 12 0 0 0
SMALL
GASTEIGER

@<TRIPOS>ATOM
      1  C          7.6270   -1.5270   -2.1040 C.3     1  UNL1        0.1270
      2  C          8.5730   -2.6120   -2.4550 C.2     1  UNL1        0.3030
      3  O          8.5120   -3.7350   -1.8970 O.2     1  UNL1       -0.2520
      4  O          9.5560   -2.4150   -3.4130 O.3     1  UNL1       -0.4810
      5  H         10.0890   -3.2180   -3.7560 H       1  UNL1        0.2960
      6  C          7.4790   -1.4960   -0.6140 C.3     1  UNL1        0.0470
      7  C          6.6420   -0.4020   -0.1220 C.2     1  UNL1       -0.0470
      8  C          6.3250    0.6610   -0.9350 C.2     1  UNL1        0.0040
      9  C          6.1690   -0.4470    1.1690 C.2     1  UNL1        0.0040
     10  C          5.5200    1.6690   -0.4000 C.2     1  UNL1        0.0000
     11  C          5.3740    0.5510    1.6970 C.2     1  UNL1        0.0000
     12  C          5.0520    1.6190    0.8890 C.2     1  UNL1        0.0000
@<TRIPOS>BOND
     1     5     4    1
     2     4     2    1
     3     2     1    1
     4     2     3    2
     5     1     6    1
     6     8    10    1
     7     8     7    2
     8     6     7    1
     9    10    12    2
    10     7     9    1
    11    12    11    1
    12     9    11    2
