@<TRIPOS>MOLECULE
/home/cewinharhar/GITHUB/reincatalyze/data/processed/docking_pred/2023_Apr_20-15:07/d0b377ce7413ba2d0a06352180e6db5bf746794c_ligand_2.pdbqt
 12 12 0 0 0
SMALL
GASTEIGER

@<TRIPOS>ATOM
      1  C          8.4400   -0.6080   -2.2130 C.3     1  UNL1        0.1270
      2  C          8.4840   -1.9010   -2.9350 C.2     1  UNL1        0.3030
      3  O          9.5680   -2.5130   -3.1080 O.2     1  UNL1       -0.2520
      4  O          7.3280   -2.4730   -3.4400 O.3     1  UNL1       -0.4810
      5  H          6.9120   -3.2730   -2.9560 H       1  UNL1        0.2960
      6  C          7.0140   -0.1500   -2.1560 C.3     1  UNL1        0.0470
      7  C          6.4940    0.0080   -0.7990 C.2     1  UNL1       -0.0470
      8  C          6.6290   -1.0000    0.1270 C.2     1  UNL1        0.0040
      9  C          5.8660    1.1820   -0.4530 C.2     1  UNL1        0.0040
     10  C          6.1090   -0.7810    1.4040 C.2     1  UNL1        0.0000
     11  C          5.3530    1.3970    0.8100 C.2     1  UNL1        0.0000
     12  C          5.4830    0.3920    1.7440 C.2     1  UNL1        0.0000
@<TRIPOS>BOND
     1     4     5    1
     2     4     2    1
     3     3     2    2
     4     2     1    1
     5     1     6    1
     6     6     7    1
     7     7     9    2
     8     7     8    1
     9     9    11    1
    10     8    10    2
    11    11    12    2
    12    10    12    1
