MODEL 1
REMARK VINA RESULT:      -7.4      0.000      0.000
REMARK SMILES O=C(O)CCc1ccccc1
REMARK SMILES IDX 4 1 2 2 1 3 3 4 5 6 6 7 7 8 11 9 8 10 10 11 9 12
REMARK H PARENT 3 5
REMARK Flexibility Score: inf
ROOT
ATOM      1  C   UNL     1       8.480  -0.601  -2.176  1.00  0.00     0.127 C 
ENDROOT
BRANCH   1   2
ATOM      2  C   UNL     1       8.488  -1.878  -2.927  1.00  0.00     0.303 C 
ATOM      3  O   UNL     1       9.557  -2.502  -3.139  1.00  0.00    -0.252 OA
BRANCH   2   4
ATOM      4  O   UNL     1       7.311  -2.420  -3.418  1.00  0.00    -0.481 OA
ATOM      5  H   UNL     1       6.893  -3.225  -2.942  1.00  0.00     0.296 HD
ENDBRANCH   2   4
ENDBRANCH   1   2
BRANCH   1   6
ATOM      6  C   UNL     1       7.076  -0.079  -2.149  1.00  0.00     0.047 C 
BRANCH   6   7
ATOM      7  C   UNL     1       6.519   0.058  -0.805  1.00  0.00    -0.047 A 
ATOM      8  C   UNL     1       6.628  -0.963   0.110  1.00  0.00     0.004 A 
ATOM      9  C   UNL     1       5.880   1.227  -0.459  1.00  0.00     0.004 A 
ATOM     10  C   UNL     1       6.073  -0.763   1.376  1.00  0.00     0.000 A 
ATOM     11  C   UNL     1       5.332   1.424   0.793  1.00  0.00     0.000 A 
ATOM     12  C   UNL     1       5.437   0.405   1.715  1.00  0.00     0.000 A 
ENDBRANCH   6   7
ENDBRANCH   1   6
TORSDOF 4
ENDMDL
MODEL 2
REMARK VINA RESULT:      -7.3      0.082      1.439
REMARK SMILES O=C(O)CCc1ccccc1
REMARK SMILES IDX 4 1 2 2 1 3 3 4 5 6 6 7 7 8 11 9 8 10 10 11 9 12
REMARK H PARENT 3 5
REMARK Flexibility Score: inf
ROOT
ATOM      1  C   UNL     1       8.436  -0.572  -2.216  1.00  0.00     0.127 C 
ENDROOT
BRANCH   1   2
ATOM      2  C   UNL     1       8.494  -1.881  -2.909  1.00  0.00     0.303 C 
ATOM      3  O   UNL     1       9.583  -2.487  -3.067  1.00  0.00    -0.252 OA
BRANCH   2   4
ATOM      4  O   UNL     1       7.343  -2.474  -3.403  1.00  0.00    -0.481 OA
ATOM      5  H   UNL     1       7.319  -2.787  -4.378  1.00  0.00     0.296 HD
ENDBRANCH   2   4
ENDBRANCH   1   2
BRANCH   1   6
ATOM      6  C   UNL     1       7.006  -0.129  -2.166  1.00  0.00     0.047 C 
BRANCH   6   7
ATOM      7  C   UNL     1       6.489   0.060  -0.812  1.00  0.00    -0.047 A 
ATOM      8  C   UNL     1       5.878   1.238  -0.450  1.00  0.00     0.004 A 
ATOM      9  C   UNL     1       6.618  -0.959   0.104  1.00  0.00     0.004 A 
ATOM     10  C   UNL     1       5.408   1.348   0.861  1.00  0.00     0.000 A 
ATOM     11  C   UNL     1       6.153  -0.848   1.399  1.00  0.00     0.000 A 
ATOM     12  C   UNL     1       5.540   0.329   1.770  1.00  0.00     0.000 A 
ENDBRANCH   6   7
ENDBRANCH   1   6
TORSDOF 4
ENDMDL
MODEL 3
REMARK VINA RESULT:      -7.0      0.608      1.854
REMARK SMILES O=C(O)CCc1ccccc1
REMARK SMILES IDX 4 1 2 2 1 3 3 4 5 6 6 7 7 8 11 9 8 10 10 11 9 12
REMARK H PARENT 3 5
REMARK Flexibility Score: inf
ROOT
ATOM      1  C   UNL     1       8.221  -0.785  -2.001  1.00  0.00     0.127 C 
ENDROOT
BRANCH   1   2
ATOM      2  C   UNL     1       8.291  -1.956  -2.907  1.00  0.00     0.303 C 
ATOM      3  O   UNL     1       7.252  -2.457  -3.405  1.00  0.00    -0.252 OA
BRANCH   2   4
ATOM      4  O   UNL     1       9.509  -2.531  -3.231  1.00  0.00    -0.481 OA
ATOM      5  H   UNL     1      10.184  -2.726  -2.486  1.00  0.00     0.296 HD
ENDBRANCH   2   4
ENDBRANCH   1   2
BRANCH   1   6
ATOM      6  C   UNL     1       7.582  -1.222  -0.718  1.00  0.00     0.047 C 
BRANCH   6   7
ATOM      7  C   UNL     1       6.674  -0.232  -0.139  1.00  0.00    -0.047 A 
ATOM      8  C   UNL     1       6.275   0.865  -0.865  1.00  0.00     0.004 A 
ATOM      9  C   UNL     1       6.218  -0.411   1.147  1.00  0.00     0.004 A 
ATOM     10  C   UNL     1       5.406   1.769  -0.249  1.00  0.00     0.000 A 
ATOM     11  C   UNL     1       5.360   0.484   1.754  1.00  0.00     0.000 A 
ATOM     12  C   UNL     1       4.955   1.586   1.034  1.00  0.00     0.000 A 
ENDBRANCH   6   7
ENDBRANCH   1   6
TORSDOF 4
ENDMDL
MODEL 4
REMARK VINA RESULT:      -6.8      3.366      5.062
REMARK SMILES O=C(O)CCc1ccccc1
REMARK SMILES IDX 4 1 2 2 1 3 3 4 5 6 6 7 7 8 11 9 8 10 10 11 9 12
REMARK H PARENT 3 5
REMARK Flexibility Score: inf
ROOT
ATOM      1  C   UNL     1       4.997   1.795   0.701  1.00  0.00     0.127 C 
ENDROOT
BRANCH   1   2
ATOM      2  C   UNL     1       4.483   1.113   1.913  1.00  0.00     0.303 C 
ATOM      3  O   UNL     1       5.142   0.207   2.478  1.00  0.00    -0.252 OA
BRANCH   2   4
ATOM      4  O   UNL     1       3.256   1.459   2.455  1.00  0.00    -0.481 OA
ATOM      5  H   UNL     1       2.688   0.739   2.909  1.00  0.00     0.296 HD
ENDBRANCH   2   4
ENDBRANCH   1   2
BRANCH   1   6
ATOM      6  C   UNL     1       6.494   1.778   0.751  1.00  0.00     0.047 C 
BRANCH   6   7
ATOM      7  C   UNL     1       7.117   1.028  -0.339  1.00  0.00    -0.047 A 
ATOM      8  C   UNL     1       6.385   0.132  -1.084  1.00  0.00     0.004 A 
ATOM      9  C   UNL     1       8.449   1.229  -0.617  1.00  0.00     0.004 A 
ATOM     10  C   UNL     1       7.045  -0.548  -2.110  1.00  0.00     0.000 A 
ATOM     11  C   UNL     1       9.099   0.555  -1.631  1.00  0.00     0.000 A 
ATOM     12  C   UNL     1       8.374  -0.344  -2.382  1.00  0.00     0.000 A 
ENDBRANCH   6   7
ENDBRANCH   1   6
TORSDOF 4
ENDMDL
MODEL 5
REMARK VINA RESULT:      -6.7      1.934      2.293
REMARK SMILES O=C(O)CCc1ccccc1
REMARK SMILES IDX 4 1 2 2 1 3 3 4 5 6 6 7 7 8 11 9 8 10 10 11 9 12
REMARK H PARENT 3 5
REMARK Flexibility Score: inf
ROOT
ATOM      1  C   UNL     1       8.258   0.250  -2.198  1.00  0.00     0.127 C 
ENDROOT
BRANCH   1   2
ATOM      2  C   UNL     1       9.376   0.368  -1.233  1.00  0.00     0.303 C 
ATOM      3  O   UNL     1       9.447  -0.378  -0.225  1.00  0.00    -0.252 OA
BRANCH   2   4
ATOM      4  O   UNL     1      10.377   1.308  -1.417  1.00  0.00    -0.481 OA
ATOM      5  H   UNL     1      10.504   2.048  -0.721  1.00  0.00     0.296 HD
ENDBRANCH   2   4
ENDBRANCH   1   2
BRANCH   1   6
ATOM      6  C   UNL     1       7.156  -0.530  -1.548  1.00  0.00     0.047 C 
BRANCH   6   7
ATOM      7  C   UNL     1       6.378   0.237  -0.576  1.00  0.00    -0.047 A 
ATOM      8  C   UNL     1       6.189  -0.235   0.702  1.00  0.00     0.004 A 
ATOM      9  C   UNL     1       5.836   1.444  -0.953  1.00  0.00     0.004 A 
ATOM     10  C   UNL     1       5.436   0.551   1.578  1.00  0.00     0.000 A 
ATOM     11  C   UNL     1       5.092   2.219  -0.086  1.00  0.00     0.000 A 
ATOM     12  C   UNL     1       4.897   1.753   1.197  1.00  0.00     0.000 A 
ENDBRANCH   6   7
ENDBRANCH   1   6
TORSDOF 4
ENDMDL
