@<TRIPOS>MOLECULE
/home/cewinharhar/GITHUB/reincatalyze/data/processed/docking_pred/2023_Apr_20-15:07/d17de8b65df071edc80e577bc10846f04a34e0dd_ligand_2.pdbqt
 12 12 0 0 0
SMALL
GASTEIGER

@<TRIPOS>ATOM
      1  C          8.2580    0.2500   -2.1980 C.3     1  UNL1        0.1270
      2  C          9.3760    0.3680   -1.2330 C.2     1  UNL1        0.3030
      3  O          9.4470   -0.3780   -0.2250 O.2     1  UNL1       -0.2520
      4  O         10.3770    1.3080   -1.4170 O.3     1  UNL1       -0.4810
      5  H         10.5040    2.0480   -0.7210 H       1  UNL1        0.2960
      6  C          7.1560   -0.5300   -1.5480 C.3     1  UNL1        0.0470
      7  C          6.3780    0.2370   -0.5760 C.2     1  UNL1       -0.0470
      8  C          6.1890   -0.2350    0.7020 C.2     1  UNL1        0.0040
      9  C          5.8360    1.4440   -0.9530 C.2     1  UNL1        0.0040
     10  C          5.4360    0.5510    1.5780 C.2     1  UNL1        0.0000
     11  C          5.0920    2.2190   -0.0860 C.2     1  UNL1        0.0000
     12  C          4.8970    1.7530    1.1970 C.2     1  UNL1        0.0000
@<TRIPOS>BOND
     1     1     6    1
     2     1     2    1
     3     6     7    1
     4     4     2    1
     5     4     5    1
     6     2     3    2
     7     9     7    2
     8     9    11    1
     9     7     8    1
    10    11    12    2
    11     8    10    2
    12    12    10    1
