@<TRIPOS>MOLECULE
/home/cewinharhar/GITHUB/reincatalyze/data/processed/docking_pred/2023_Apr_20-15:07/d17de8b65df071edc80e577bc10846f04a34e0dd_ligand_2.pdbqt
 12 12 0 0 0
SMALL
GASTEIGER

@<TRIPOS>ATOM
      1  C          4.9970    1.7950    0.7010 C.3     1  UNL1        0.1270
      2  C          4.4830    1.1130    1.9130 C.2     1  UNL1        0.3030
      3  O          5.1420    0.2070    2.4780 O.2     1  UNL1       -0.2520
      4  O          3.2560    1.4590    2.4550 O.3     1  UNL1       -0.4810
      5  H          2.6880    0.7390    2.9090 H       1  UNL1        0.2960
      6  C          6.4940    1.7780    0.7510 C.3     1  UNL1        0.0470
      7  C          7.1170    1.0280   -0.3390 C.2     1  UNL1       -0.0470
      8  C          6.3850    0.1320   -1.0840 C.2     1  UNL1        0.0040
      9  C          8.4490    1.2290   -0.6170 C.2     1  UNL1        0.0040
     10  C          7.0450   -0.5480   -2.1100 C.2     1  UNL1        0.0000
     11  C          9.0990    0.5550   -1.6310 C.2     1  UNL1        0.0000
     12  C          8.3740   -0.3440   -2.3820 C.2     1  UNL1        0.0000
@<TRIPOS>BOND
     1    12    10    2
     2    12    11    1
     3    10     8    1
     4    11     9    2
     5     8     7    2
     6     9     7    1
     7     7     6    1
     8     1     6    1
     9     1     2    1
    10     2     4    1
    11     2     3    2
    12     4     5    1
