@<TRIPOS>MOLECULE
/home/cewinharhar/GITHUB/reincatalyze/data/processed/docking_pred/2023_Apr_20-15:07/d17de8b65df071edc80e577bc10846f04a34e0dd_ligand_2.pdbqt
 12 12 0 0 0
SMALL
GASTEIGER

@<TRIPOS>ATOM
      1  C          8.4360   -0.5720   -2.2160 C.3     1  UNL1        0.1270
      2  C          8.4940   -1.8810   -2.9090 C.2     1  UNL1        0.3030
      3  O          9.5830   -2.4870   -3.0670 O.2     1  UNL1       -0.2520
      4  O          7.3430   -2.4740   -3.4030 O.3     1  UNL1       -0.4810
      5  H          7.3190   -2.7870   -4.3780 H       1  UNL1        0.2960
      6  C          7.0060   -0.1290   -2.1660 C.3     1  UNL1        0.0470
      7  C          6.4890    0.0600   -0.8120 C.2     1  UNL1       -0.0470
      8  C          5.8780    1.2380   -0.4500 C.2     1  UNL1        0.0040
      9  C          6.6180   -0.9590    0.1040 C.2     1  UNL1        0.0040
     10  C          5.4080    1.3480    0.8610 C.2     1  UNL1        0.0000
     11  C          6.1530   -0.8480    1.3990 C.2     1  UNL1        0.0000
     12  C          5.5400    0.3290    1.7700 C.2     1  UNL1        0.0000
@<TRIPOS>BOND
     1     5     4    1
     2     4     2    1
     3     3     2    2
     4     2     1    1
     5     1     6    1
     6     6     7    1
     7     7     8    2
     8     7     9    1
     9     8    10    1
    10     9    11    2
    11    10    12    2
    12    11    12    1
