@<TRIPOS>MOLECULE
/home/cewinharhar/GITHUB/reincatalyze/data/processed/docking_pred/2023_Apr_20-15:07/d17de8b65df071edc80e577bc10846f04a34e0dd_ligand_2.pdbqt
 12 12 0 0 0
SMALL
GASTEIGER

@<TRIPOS>ATOM
      1  C          8.2210   -0.7850   -2.0010 C.3     1  UNL1        0.1270
      2  C          8.2910   -1.9560   -2.9070 C.2     1  UNL1        0.3030
      3  O          7.2520   -2.4570   -3.4050 O.2     1  UNL1       -0.2520
      4  O          9.5090   -2.5310   -3.2310 O.3     1  UNL1       -0.4810
      5  H         10.1840   -2.7260   -2.4860 H       1  UNL1        0.2960
      6  C          7.5820   -1.2220   -0.7180 C.3     1  UNL1        0.0470
      7  C          6.6740   -0.2320   -0.1390 C.2     1  UNL1       -0.0470
      8  C          6.2750    0.8650   -0.8650 C.2     1  UNL1        0.0040
      9  C          6.2180   -0.4110    1.1470 C.2     1  UNL1        0.0040
     10  C          5.4060    1.7690   -0.2490 C.2     1  UNL1        0.0000
     11  C          5.3600    0.4840    1.7540 C.2     1  UNL1        0.0000
     12  C          4.9550    1.5860    1.0340 C.2     1  UNL1        0.0000
@<TRIPOS>BOND
     1     3     2    2
     2     4     2    1
     3     4     5    1
     4     2     1    1
     5     1     6    1
     6     8    10    1
     7     8     7    2
     8     6     7    1
     9    10    12    2
    10     7     9    1
    11    12    11    1
    12     9    11    2
