@<TRIPOS>MOLECULE
/home/cewinharhar/GITHUB/reincatalyze/data/processed/docking_pred/2023_Apr_20-15:07/d18fc177cce43baae8a65556dd45e7572e61ad5e_ligand_2.pdbqt
 12 12 0 0 0
SMALL
GASTEIGER

@<TRIPOS>ATOM
      1  C          5.4870    2.8640   -0.0350 C.3     1  UNL1        0.1270
      2  C          6.2520    3.8290    0.7880 C.2     1  UNL1        0.3030
      3  O          6.8880    4.7750    0.2600 O.2     1  UNL1       -0.2520
      4  O          6.2880    3.7140    2.1690 O.3     1  UNL1       -0.4810
      5  H          7.1890    3.7670    2.6530 H       1  UNL1        0.2960
      6  C          4.9170    1.8180    0.8740 C.3     1  UNL1        0.0470
      7  C          5.7120    0.5930    0.9420 C.2     1  UNL1       -0.0470
      8  C          5.7790   -0.1380    2.1060 C.2     1  UNL1        0.0040
      9  C          6.3940    0.1720   -0.1760 C.2     1  UNL1        0.0040
     10  C          6.5560   -1.2980    2.0980 C.2     1  UNL1        0.0000
     11  C          7.1620   -0.9750   -0.1810 C.2     1  UNL1        0.0000
     12  C          7.2360   -1.7120    0.9810 C.2     1  UNL1        0.0000
@<TRIPOS>BOND
     1    11     9    1
     2    11    12    2
     3     9     7    2
     4     1     2    1
     5     1     6    1
     6     3     2    2
     7     2     4    1
     8     6     7    1
     9     7     8    1
    10    12    10    1
    11    10     8    2
    12     4     5    1
