MODEL 1
REMARK VINA RESULT:      -7.3      0.000      0.000
REMARK SMILES O=C(O)CCc1ccccc1
REMARK SMILES IDX 4 1 2 2 1 3 3 4 5 6 6 7 7 8 11 9 8 10 10 11 9 12
REMARK H PARENT 3 5
REMARK Flexibility Score: inf
ROOT
ATOM      1  C   UNL     1       8.381  -0.584  -2.182  1.00  0.00     0.127 C 
ENDROOT
BRANCH   1   2
ATOM      2  C   UNL     1       8.446  -1.873  -2.911  1.00  0.00     0.303 C 
ATOM      3  O   UNL     1       9.541  -2.458  -3.102  1.00  0.00    -0.252 OA
BRANCH   2   4
ATOM      4  O   UNL     1       7.297  -2.469  -3.403  1.00  0.00    -0.481 OA
ATOM      5  H   UNL     1       6.430  -1.925  -3.449  1.00  0.00     0.296 HD
ENDBRANCH   2   4
ENDBRANCH   1   2
BRANCH   1   6
ATOM      6  C   UNL     1       6.949  -0.146  -2.129  1.00  0.00     0.047 C 
BRANCH   6   7
ATOM      7  C   UNL     1       6.435   0.042  -0.773  1.00  0.00    -0.047 A 
ATOM      8  C   UNL     1       5.835   1.224  -0.405  1.00  0.00     0.004 A 
ATOM      9  C   UNL     1       6.556  -0.982   0.138  1.00  0.00     0.004 A 
ATOM     10  C   UNL     1       5.366   1.332   0.906  1.00  0.00     0.000 A 
ATOM     11  C   UNL     1       6.093  -0.872   1.434  1.00  0.00     0.000 A 
ATOM     12  C   UNL     1       5.491   0.308   1.811  1.00  0.00     0.000 A 
ENDBRANCH   6   7
ENDBRANCH   1   6
TORSDOF 4
ENDMDL
MODEL 2
REMARK VINA RESULT:      -7.3      0.178      1.736
REMARK SMILES O=C(O)CCc1ccccc1
REMARK SMILES IDX 4 1 2 2 1 3 3 4 5 6 6 7 7 8 11 9 8 10 10 11 9 12
REMARK H PARENT 3 5
REMARK Flexibility Score: inf
ROOT
ATOM      1  C   UNL     1       8.429  -0.715  -2.013  1.00  0.00     0.127 C 
ENDROOT
BRANCH   1   2
ATOM      2  C   UNL     1       8.380  -1.926  -2.865  1.00  0.00     0.303 C 
ATOM      3  O   UNL     1       7.285  -2.405  -3.253  1.00  0.00    -0.252 OA
BRANCH   2   4
ATOM      4  O   UNL     1       9.544  -2.566  -3.259  1.00  0.00    -0.481 OA
ATOM      5  H   UNL     1       9.494  -3.315  -3.954  1.00  0.00     0.296 HD
ENDBRANCH   2   4
ENDBRANCH   1   2
BRANCH   1   6
ATOM      6  C   UNL     1       7.075  -0.074  -2.027  1.00  0.00     0.047 C 
BRANCH   6   7
ATOM      7  C   UNL     1       6.483   0.094  -0.701  1.00  0.00    -0.047 A 
ATOM      8  C   UNL     1       6.592  -0.895   0.249  1.00  0.00     0.004 A 
ATOM      9  C   UNL     1       5.813   1.260  -0.408  1.00  0.00     0.004 A 
ATOM     10  C   UNL     1       6.004  -0.665   1.495  1.00  0.00     0.000 A 
ATOM     11  C   UNL     1       5.232   1.485   0.824  1.00  0.00     0.000 A 
ATOM     12  C   UNL     1       5.336   0.499   1.781  1.00  0.00     0.000 A 
ENDBRANCH   6   7
ENDBRANCH   1   6
TORSDOF 4
ENDMDL
MODEL 3
REMARK VINA RESULT:      -6.7      3.343      5.014
REMARK SMILES O=C(O)CCc1ccccc1
REMARK SMILES IDX 4 1 2 2 1 3 3 4 5 6 6 7 7 8 11 9 8 10 10 11 9 12
REMARK H PARENT 3 5
REMARK Flexibility Score: inf
ROOT
ATOM      1  C   UNL     1       5.037   1.748   0.674  1.00  0.00     0.127 C 
ENDROOT
BRANCH   1   2
ATOM      2  C   UNL     1       4.596   1.062   1.911  1.00  0.00     0.303 C 
ATOM      3  O   UNL     1       5.327   0.217   2.483  1.00  0.00    -0.252 OA
BRANCH   2   4
ATOM      4  O   UNL     1       3.359   1.336   2.472  1.00  0.00    -0.481 OA
ATOM      5  H   UNL     1       2.992   2.291   2.435  1.00  0.00     0.296 HD
ENDBRANCH   2   4
ENDBRANCH   1   2
BRANCH   1   6
ATOM      6  C   UNL     1       6.534   1.815   0.681  1.00  0.00     0.047 C 
BRANCH   6   7
ATOM      7  C   UNL     1       7.169   1.040  -0.383  1.00  0.00    -0.047 A 
ATOM      8  C   UNL     1       8.505   1.200  -0.669  1.00  0.00     0.004 A 
ATOM      9  C   UNL     1       6.414   0.142  -1.102  1.00  0.00     0.004 A 
ATOM     10  C   UNL     1       9.045   0.426  -1.698  1.00  0.00     0.000 A 
ATOM     11  C   UNL     1       6.949  -0.622  -2.119  1.00  0.00     0.000 A 
ATOM     12  C   UNL     1       8.287  -0.468  -2.412  1.00  0.00     0.000 A 
ENDBRANCH   6   7
ENDBRANCH   1   6
TORSDOF 4
ENDMDL
MODEL 4
REMARK VINA RESULT:      -6.7      3.819      4.941
REMARK SMILES O=C(O)CCc1ccccc1
REMARK SMILES IDX 4 1 2 2 1 3 3 4 5 6 6 7 7 8 11 9 8 10 10 11 9 12
REMARK H PARENT 3 5
REMARK Flexibility Score: inf
ROOT
ATOM      1  C   UNL     1       5.487   2.864  -0.035  1.00  0.00     0.127 C 
ENDROOT
BRANCH   1   2
ATOM      2  C   UNL     1       6.252   3.829   0.788  1.00  0.00     0.303 C 
ATOM      3  O   UNL     1       6.888   4.775   0.260  1.00  0.00    -0.252 OA
BRANCH   2   4
ATOM      4  O   UNL     1       6.288   3.714   2.169  1.00  0.00    -0.481 OA
ATOM      5  H   UNL     1       7.189   3.767   2.653  1.00  0.00     0.296 HD
ENDBRANCH   2   4
ENDBRANCH   1   2
BRANCH   1   6
ATOM      6  C   UNL     1       4.917   1.818   0.874  1.00  0.00     0.047 C 
BRANCH   6   7
ATOM      7  C   UNL     1       5.712   0.593   0.942  1.00  0.00    -0.047 A 
ATOM      8  C   UNL     1       5.779  -0.138   2.106  1.00  0.00     0.004 A 
ATOM      9  C   UNL     1       6.394   0.172  -0.176  1.00  0.00     0.004 A 
ATOM     10  C   UNL     1       6.556  -1.298   2.098  1.00  0.00     0.000 A 
ATOM     11  C   UNL     1       7.162  -0.975  -0.181  1.00  0.00     0.000 A 
ATOM     12  C   UNL     1       7.236  -1.712   0.981  1.00  0.00     0.000 A 
ENDBRANCH   6   7
ENDBRANCH   1   6
TORSDOF 4
ENDMDL
MODEL 5
REMARK VINA RESULT:      -6.5      2.072      2.379
REMARK SMILES O=C(O)CCc1ccccc1
REMARK SMILES IDX 4 1 2 2 1 3 3 4 5 6 6 7 7 8 11 9 8 10 10 11 9 12
REMARK H PARENT 3 5
REMARK Flexibility Score: inf
ROOT
ATOM      1  C   UNL     1       8.466   0.633  -1.708  1.00  0.00     0.127 C 
ENDROOT
BRANCH   1   2
ATOM      2  C   UNL     1       9.616   0.290  -0.838  1.00  0.00     0.303 C 
ATOM      3  O   UNL     1       9.490  -0.512   0.121  1.00  0.00    -0.252 OA
BRANCH   2   4
ATOM      4  O   UNL     1      10.865   0.846  -1.060  1.00  0.00    -0.481 OA
ATOM      5  H   UNL     1      10.957   1.624  -1.720  1.00  0.00     0.296 HD
ENDBRANCH   2   4
ENDBRANCH   1   2
BRANCH   1   6
ATOM      6  C   UNL     1       7.312  -0.246  -1.332  1.00  0.00     0.047 C 
BRANCH   6   7
ATOM      7  C   UNL     1       6.413   0.345  -0.343  1.00  0.00    -0.047 A 
ATOM      8  C   UNL     1       5.803   1.555  -0.581  1.00  0.00     0.004 A 
ATOM      9  C   UNL     1       6.178  -0.324   0.836  1.00  0.00     0.004 A 
ATOM     10  C   UNL     1       4.955   2.059   0.408  1.00  0.00     0.000 A 
ATOM     11  C   UNL     1       5.340   0.176   1.813  1.00  0.00     0.000 A 
ATOM     12  C   UNL     1       4.725   1.388   1.582  1.00  0.00     0.000 A 
ENDBRANCH   6   7
ENDBRANCH   1   6
TORSDOF 4
ENDMDL
