@<TRIPOS>MOLECULE
/home/cewinharhar/GITHUB/reincatalyze/data/processed/docking_pred/2023_Apr_20-15:07/d18fc177cce43baae8a65556dd45e7572e61ad5e_ligand_2.pdbqt
 12 12 0 0 0
SMALL
GASTEIGER

@<TRIPOS>ATOM
      1  C          5.0370    1.7480    0.6740 C.3     1  UNL1        0.1270
      2  C          4.5960    1.0620    1.9110 C.2     1  UNL1        0.3030
      3  O          5.3270    0.2170    2.4830 O.2     1  UNL1       -0.2520
      4  O          3.3590    1.3360    2.4720 O.3     1  UNL1       -0.4810
      5  H          2.9920    2.2910    2.4350 H       1  UNL1        0.2960
      6  C          6.5340    1.8150    0.6810 C.3     1  UNL1        0.0470
      7  C          7.1690    1.0400   -0.3830 C.2     1  UNL1       -0.0470
      8  C          8.5050    1.2000   -0.6690 C.2     1  UNL1        0.0040
      9  C          6.4140    0.1420   -1.1020 C.2     1  UNL1        0.0040
     10  C          9.0450    0.4260   -1.6980 C.2     1  UNL1        0.0000
     11  C          6.9490   -0.6220   -2.1190 C.2     1  UNL1        0.0000
     12  C          8.2870   -0.4680   -2.4120 C.2     1  UNL1        0.0000
@<TRIPOS>BOND
     1    12    11    2
     2    12    10    1
     3    11     9    1
     4    10     8    2
     5     9     7    2
     6     8     7    1
     7     7     6    1
     8     1     6    1
     9     1     2    1
    10     2     4    1
    11     2     3    2
    12     5     4    1
