@<TRIPOS>MOLECULE
/home/cewinharhar/GITHUB/reincatalyze/data/processed/docking_pred/2023_Apr_20-15:07/d18fc177cce43baae8a65556dd45e7572e61ad5e_ligand_2.pdbqt
 12 12 0 0 0
SMALL
GASTEIGER

@<TRIPOS>ATOM
      1  C          8.3810   -0.5840   -2.1820 C.3     1  UNL1        0.1270
      2  C          8.4460   -1.8730   -2.9110 C.2     1  UNL1        0.3030
      3  O          9.5410   -2.4580   -3.1020 O.2     1  UNL1       -0.2520
      4  O          7.2970   -2.4690   -3.4030 O.3     1  UNL1       -0.4810
      5  H          6.4300   -1.9250   -3.4490 H       1  UNL1        0.2960
      6  C          6.9490   -0.1460   -2.1290 C.3     1  UNL1        0.0470
      7  C          6.4350    0.0420   -0.7730 C.2     1  UNL1       -0.0470
      8  C          5.8350    1.2240   -0.4050 C.2     1  UNL1        0.0040
      9  C          6.5560   -0.9820    0.1380 C.2     1  UNL1        0.0040
     10  C          5.3660    1.3320    0.9060 C.2     1  UNL1        0.0000
     11  C          6.0930   -0.8720    1.4340 C.2     1  UNL1        0.0000
     12  C          5.4910    0.3080    1.8110 C.2     1  UNL1        0.0000
@<TRIPOS>BOND
     1     5     4    1
     2     4     2    1
     3     3     2    2
     4     2     1    1
     5     1     6    1
     6     6     7    1
     7     7     8    2
     8     7     9    1
     9     8    10    1
    10     9    11    2
    11    10    12    2
    12    11    12    1
