@<TRIPOS>MOLECULE
/home/cewinharhar/GITHUB/reincatalyze/data/processed/docking_pred/2023_Apr_20-15:07/d18fc177cce43baae8a65556dd45e7572e61ad5e_ligand_2.pdbqt
 12 12 0 0 0
SMALL
GASTEIGER

@<TRIPOS>ATOM
      1  C          8.4660    0.6330   -1.7080 C.3     1  UNL1        0.1270
      2  C          9.6160    0.2900   -0.8380 C.2     1  UNL1        0.3030
      3  O          9.4900   -0.5120    0.1210 O.2     1  UNL1       -0.2520
      4  O         10.8650    0.8460   -1.0600 O.3     1  UNL1       -0.4810
      5  H         10.9570    1.6240   -1.7200 H       1  UNL1        0.2960
      6  C          7.3120   -0.2460   -1.3320 C.3     1  UNL1        0.0470
      7  C          6.4130    0.3450   -0.3430 C.2     1  UNL1       -0.0470
      8  C          5.8030    1.5550   -0.5810 C.2     1  UNL1        0.0040
      9  C          6.1780   -0.3240    0.8360 C.2     1  UNL1        0.0040
     10  C          4.9550    2.0590    0.4080 C.2     1  UNL1        0.0000
     11  C          5.3400    0.1760    1.8130 C.2     1  UNL1        0.0000
     12  C          4.7250    1.3880    1.5820 C.2     1  UNL1        0.0000
@<TRIPOS>BOND
     1     5     4    1
     2     1     6    1
     3     1     2    1
     4     6     7    1
     5     4     2    1
     6     2     3    2
     7     8     7    2
     8     8    10    1
     9     7     9    1
    10    10    12    2
    11     9    11    2
    12    12    11    1
