@<TRIPOS>MOLECULE
/home/cewinharhar/GITHUB/reincatalyze/data/processed/docking_pred/2023_Apr_20-15:07/d18fc177cce43baae8a65556dd45e7572e61ad5e_ligand_2.pdbqt
 12 12 0 0 0
SMALL
GASTEIGER

@<TRIPOS>ATOM
      1  C          8.4290   -0.7150   -2.0130 C.3     1  UNL1        0.1270
      2  C          8.3800   -1.9260   -2.8650 C.2     1  UNL1        0.3030
      3  O          7.2850   -2.4050   -3.2530 O.2     1  UNL1       -0.2520
      4  O          9.5440   -2.5660   -3.2590 O.3     1  UNL1       -0.4810
      5  H          9.4940   -3.3150   -3.9540 H       1  UNL1        0.2960
      6  C          7.0750   -0.0740   -2.0270 C.3     1  UNL1        0.0470
      7  C          6.4830    0.0940   -0.7010 C.2     1  UNL1       -0.0470
      8  C          6.5920   -0.8950    0.2490 C.2     1  UNL1        0.0040
      9  C          5.8130    1.2600   -0.4080 C.2     1  UNL1        0.0040
     10  C          6.0040   -0.6650    1.4950 C.2     1  UNL1        0.0000
     11  C          5.2320    1.4850    0.8240 C.2     1  UNL1        0.0000
     12  C          5.3360    0.4990    1.7810 C.2     1  UNL1        0.0000
@<TRIPOS>BOND
     1     5     4    1
     2     4     2    1
     3     3     2    2
     4     2     1    1
     5     6     1    1
     6     6     7    1
     7     7     9    2
     8     7     8    1
     9     9    11    1
    10     8    10    2
    11    11    12    2
    12    10    12    1
