@<TRIPOS>MOLECULE
/home/cewinharhar/GITHUB/reincatalyze/data/processed/docking_pred/2023_Apr_20-15:07/d29de17412cd01c0ee6022e9d720ef028927a1a9_ligand_2.pdbqt
 12 12 0 0 0
SMALL
GASTEIGER

@<TRIPOS>ATOM
      1  C          8.3470    0.3080   -2.0610 C.3     1  UNL1        0.1270
      2  C          9.4760    0.3980   -1.1050 C.2     1  UNL1        0.3030
      3  O          9.5450   -0.3620   -0.1070 O.2     1  UNL1       -0.2520
      4  O         10.4880    1.3250   -1.2870 O.3     1  UNL1       -0.4810
      5  H         10.2510    2.3190   -1.3560 H       1  UNL1        0.2960
      6  C          7.2630   -0.5140   -1.4340 C.3     1  UNL1        0.0470
      7  C          6.4270    0.2250   -0.4900 C.2     1  UNL1       -0.0470
      8  C          6.2030   -0.2560    0.7790 C.2     1  UNL1        0.0040
      9  C          5.8630    1.4170   -0.8830 C.2     1  UNL1        0.0040
     10  C          5.3950    0.5030    1.6280 C.2     1  UNL1        0.0000
     11  C          5.0640    2.1660   -0.0430 C.2     1  UNL1        0.0000
     12  C          4.8350    1.6910    1.2300 C.2     1  UNL1        0.0000
@<TRIPOS>BOND
     1     1     6    1
     2     1     2    1
     3     6     7    1
     4     5     4    1
     5     4     2    1
     6     2     3    2
     7     9     7    2
     8     9    11    1
     9     7     8    1
    10    11    12    2
    11     8    10    2
    12    12    10    1
