@<TRIPOS>MOLECULE
/home/cewinharhar/GITHUB/reincatalyze/data/processed/docking_pred/2023_Apr_20-15:07/d29de17412cd01c0ee6022e9d720ef028927a1a9_ligand_2.pdbqt
 12 12 0 0 0
SMALL
GASTEIGER

@<TRIPOS>ATOM
      1  C          5.0040    1.8100    0.7170 C.3     1  UNL1        0.1270
      2  C          4.4830    1.1160    1.9180 C.2     1  UNL1        0.3030
      3  O          5.1390    0.2030    2.4780 O.2     1  UNL1       -0.2520
      4  O          3.2530    1.4570    2.4570 O.3     1  UNL1       -0.4810
      5  H          2.9200    0.9680    3.2930 H       1  UNL1        0.2960
      6  C          6.5010    1.7750    0.7650 C.3     1  UNL1        0.0470
      7  C          7.1140    1.0300   -0.3330 C.2     1  UNL1       -0.0470
      8  C          6.3760    0.1390   -1.0770 C.2     1  UNL1        0.0040
      9  C          8.4450    1.2320   -0.6200 C.2     1  UNL1        0.0040
     10  C          7.0270   -0.5370   -2.1110 C.2     1  UNL1        0.0000
     11  C          9.0860    0.5620   -1.6440 C.2     1  UNL1        0.0000
     12  C          8.3540   -0.3330   -2.3930 C.2     1  UNL1        0.0000
@<TRIPOS>BOND
     1    12    10    2
     2    12    11    1
     3    10     8    1
     4    11     9    2
     5     8     7    2
     6     9     7    1
     7     7     6    1
     8     1     6    1
     9     1     2    1
    10     2     4    1
    11     2     3    2
    12     4     5    1
