MODEL 1
REMARK VINA RESULT:      -7.3      0.000      0.000
REMARK SMILES O=C(O)CCc1ccccc1
REMARK SMILES IDX 4 1 2 2 1 3 3 4 5 6 6 7 7 8 11 9 8 10 10 11 9 12
REMARK H PARENT 3 5
REMARK Flexibility Score: inf
ROOT
ATOM      1  C   UNL     1       8.431  -0.631  -2.111  1.00  0.00     0.127 C 
ENDROOT
BRANCH   1   2
ATOM      2  C   UNL     1       8.469  -1.890  -2.892  1.00  0.00     0.303 C 
ATOM      3  O   UNL     1       9.548  -2.502  -3.087  1.00  0.00    -0.252 OA
BRANCH   2   4
ATOM      4  O   UNL     1       7.311  -2.426  -3.431  1.00  0.00    -0.481 OA
ATOM      5  H   UNL     1       6.419  -1.948  -3.278  1.00  0.00     0.296 HD
ENDBRANCH   2   4
ENDBRANCH   1   2
BRANCH   1   6
ATOM      6  C   UNL     1       7.018  -0.134  -2.088  1.00  0.00     0.047 C 
BRANCH   6   7
ATOM      7  C   UNL     1       6.469   0.038  -0.743  1.00  0.00    -0.047 A 
ATOM      8  C   UNL     1       6.587  -0.960   0.196  1.00  0.00     0.004 A 
ATOM      9  C   UNL     1       5.832   1.214  -0.423  1.00  0.00     0.004 A 
ATOM     10  C   UNL     1       6.040  -0.727   1.461  1.00  0.00     0.000 A 
ATOM     11  C   UNL     1       5.292   1.442   0.827  1.00  0.00     0.000 A 
ATOM     12  C   UNL     1       5.405   0.448   1.774  1.00  0.00     0.000 A 
ENDBRANCH   6   7
ENDBRANCH   1   6
TORSDOF 4
ENDMDL
MODEL 2
REMARK VINA RESULT:      -7.3      0.101      1.439
REMARK SMILES O=C(O)CCc1ccccc1
REMARK SMILES IDX 4 1 2 2 1 3 3 4 5 6 6 7 7 8 11 9 8 10 10 11 9 12
REMARK H PARENT 3 5
REMARK Flexibility Score: inf
ROOT
ATOM      1  C   UNL     1       8.406  -0.549  -2.206  1.00  0.00     0.127 C 
ENDROOT
BRANCH   1   2
ATOM      2  C   UNL     1       8.480  -1.842  -2.927  1.00  0.00     0.303 C 
ATOM      3  O   UNL     1       9.577  -2.427  -3.103  1.00  0.00    -0.252 OA
BRANCH   2   4
ATOM      4  O   UNL     1       7.336  -2.441  -3.429  1.00  0.00    -0.481 OA
ATOM      5  H   UNL     1       7.313  -2.733  -4.410  1.00  0.00     0.296 HD
ENDBRANCH   2   4
ENDBRANCH   1   2
BRANCH   1   6
ATOM      6  C   UNL     1       6.972  -0.120  -2.155  1.00  0.00     0.047 C 
BRANCH   6   7
ATOM      7  C   UNL     1       6.454   0.064  -0.800  1.00  0.00    -0.047 A 
ATOM      8  C   UNL     1       5.836   1.238  -0.437  1.00  0.00     0.004 A 
ATOM      9  C   UNL     1       6.589  -0.955   0.114  1.00  0.00     0.004 A 
ATOM     10  C   UNL     1       5.364   1.344   0.873  1.00  0.00     0.000 A 
ATOM     11  C   UNL     1       6.122  -0.848   1.409  1.00  0.00     0.000 A 
ATOM     12  C   UNL     1       5.502   0.325   1.782  1.00  0.00     0.000 A 
ENDBRANCH   6   7
ENDBRANCH   1   6
TORSDOF 4
ENDMDL
MODEL 3
REMARK VINA RESULT:      -6.8      3.375      5.070
REMARK SMILES O=C(O)CCc1ccccc1
REMARK SMILES IDX 4 1 2 2 1 3 3 4 5 6 6 7 7 8 11 9 8 10 10 11 9 12
REMARK H PARENT 3 5
REMARK Flexibility Score: inf
ROOT
ATOM      1  C   UNL     1       5.004   1.810   0.717  1.00  0.00     0.127 C 
ENDROOT
BRANCH   1   2
ATOM      2  C   UNL     1       4.483   1.116   1.918  1.00  0.00     0.303 C 
ATOM      3  O   UNL     1       5.139   0.203   2.478  1.00  0.00    -0.252 OA
BRANCH   2   4
ATOM      4  O   UNL     1       3.253   1.457   2.457  1.00  0.00    -0.481 OA
ATOM      5  H   UNL     1       2.920   0.968   3.293  1.00  0.00     0.296 HD
ENDBRANCH   2   4
ENDBRANCH   1   2
BRANCH   1   6
ATOM      6  C   UNL     1       6.501   1.775   0.765  1.00  0.00     0.047 C 
BRANCH   6   7
ATOM      7  C   UNL     1       7.114   1.030  -0.333  1.00  0.00    -0.047 A 
ATOM      8  C   UNL     1       6.376   0.139  -1.077  1.00  0.00     0.004 A 
ATOM      9  C   UNL     1       8.445   1.232  -0.620  1.00  0.00     0.004 A 
ATOM     10  C   UNL     1       7.027  -0.537  -2.111  1.00  0.00     0.000 A 
ATOM     11  C   UNL     1       9.086   0.562  -1.644  1.00  0.00     0.000 A 
ATOM     12  C   UNL     1       8.354  -0.333  -2.393  1.00  0.00     0.000 A 
ENDBRANCH   6   7
ENDBRANCH   1   6
TORSDOF 4
ENDMDL
MODEL 4
REMARK VINA RESULT:      -6.6      1.983      2.335
REMARK SMILES O=C(O)CCc1ccccc1
REMARK SMILES IDX 4 1 2 2 1 3 3 4 5 6 6 7 7 8 11 9 8 10 10 11 9 12
REMARK H PARENT 3 5
REMARK Flexibility Score: inf
ROOT
ATOM      1  C   UNL     1       8.347   0.308  -2.061  1.00  0.00     0.127 C 
ENDROOT
BRANCH   1   2
ATOM      2  C   UNL     1       9.476   0.398  -1.105  1.00  0.00     0.303 C 
ATOM      3  O   UNL     1       9.545  -0.362  -0.107  1.00  0.00    -0.252 OA
BRANCH   2   4
ATOM      4  O   UNL     1      10.488   1.325  -1.287  1.00  0.00    -0.481 OA
ATOM      5  H   UNL     1      10.251   2.319  -1.356  1.00  0.00     0.296 HD
ENDBRANCH   2   4
ENDBRANCH   1   2
BRANCH   1   6
ATOM      6  C   UNL     1       7.263  -0.514  -1.434  1.00  0.00     0.047 C 
BRANCH   6   7
ATOM      7  C   UNL     1       6.427   0.225  -0.490  1.00  0.00    -0.047 A 
ATOM      8  C   UNL     1       6.203  -0.256   0.779  1.00  0.00     0.004 A 
ATOM      9  C   UNL     1       5.863   1.417  -0.883  1.00  0.00     0.004 A 
ATOM     10  C   UNL     1       5.395   0.503   1.628  1.00  0.00     0.000 A 
ATOM     11  C   UNL     1       5.064   2.166  -0.043  1.00  0.00     0.000 A 
ATOM     12  C   UNL     1       4.835   1.691   1.230  1.00  0.00     0.000 A 
ENDBRANCH   6   7
ENDBRANCH   1   6
TORSDOF 4
ENDMDL
MODEL 5
REMARK VINA RESULT:      -6.6      3.685      4.975
REMARK SMILES O=C(O)CCc1ccccc1
REMARK SMILES IDX 4 1 2 2 1 3 3 4 5 6 6 7 7 8 11 9 8 10 10 11 9 12
REMARK H PARENT 3 5
REMARK Flexibility Score: inf
ROOT
ATOM      1  C   UNL     1       5.300   2.863   0.111  1.00  0.00     0.127 C 
ENDROOT
BRANCH   1   2
ATOM      2  C   UNL     1       6.162   3.790   0.884  1.00  0.00     0.303 C 
ATOM      3  O   UNL     1       6.248   3.708   2.134  1.00  0.00    -0.252 OA
BRANCH   2   4
ATOM      4  O   UNL     1       6.897   4.775   0.244  1.00  0.00    -0.481 OA
ATOM      5  H   UNL     1       7.699   5.192   0.724  1.00  0.00     0.296 HD
ENDBRANCH   2   4
ENDBRANCH   1   2
BRANCH   1   6
ATOM      6  C   UNL     1       5.272   1.544   0.821  1.00  0.00     0.047 C 
BRANCH   6   7
ATOM      7  C   UNL     1       6.039   0.493   0.154  1.00  0.00    -0.047 A 
ATOM      8  C   UNL     1       6.476  -0.608   0.852  1.00  0.00     0.004 A 
ATOM      9  C   UNL     1       6.319   0.615  -1.187  1.00  0.00     0.004 A 
ATOM     10  C   UNL     1       7.202  -1.574   0.150  1.00  0.00     0.000 A 
ATOM     11  C   UNL     1       7.037  -0.339  -1.879  1.00  0.00     0.000 A 
ATOM     12  C   UNL     1       7.480  -1.446  -1.187  1.00  0.00     0.000 A 
ENDBRANCH   6   7
ENDBRANCH   1   6
TORSDOF 4
ENDMDL
