@<TRIPOS>MOLECULE
/home/cewinharhar/GITHUB/reincatalyze/data/processed/docking_pred/2023_Apr_20-15:07/d29de17412cd01c0ee6022e9d720ef028927a1a9_ligand_2.pdbqt
 12 12 0 0 0
SMALL
GASTEIGER

@<TRIPOS>ATOM
      1  C          8.4310   -0.6310   -2.1110 C.3     1  UNL1        0.1270
      2  C          8.4690   -1.8900   -2.8920 C.2     1  UNL1        0.3030
      3  O          9.5480   -2.5020   -3.0870 O.2     1  UNL1       -0.2520
      4  O          7.3110   -2.4260   -3.4310 O.3     1  UNL1       -0.4810
      5  H          6.4190   -1.9480   -3.2780 H       1  UNL1        0.2960
      6  C          7.0180   -0.1340   -2.0880 C.3     1  UNL1        0.0470
      7  C          6.4690    0.0380   -0.7430 C.2     1  UNL1       -0.0470
      8  C          6.5870   -0.9600    0.1960 C.2     1  UNL1        0.0040
      9  C          5.8320    1.2140   -0.4230 C.2     1  UNL1        0.0040
     10  C          6.0400   -0.7270    1.4610 C.2     1  UNL1        0.0000
     11  C          5.2920    1.4420    0.8270 C.2     1  UNL1        0.0000
     12  C          5.4050    0.4480    1.7740 C.2     1  UNL1        0.0000
@<TRIPOS>BOND
     1     4     5    1
     2     4     2    1
     3     3     2    2
     4     2     1    1
     5     1     6    1
     6     6     7    1
     7     7     9    2
     8     7     8    1
     9     9    11    1
    10     8    10    2
    11    11    12    2
    12    10    12    1
