@<TRIPOS>MOLECULE
/home/cewinharhar/GITHUB/reincatalyze/data/processed/docking_pred/2023_Apr_20-15:07/d29de17412cd01c0ee6022e9d720ef028927a1a9_ligand_2.pdbqt
 12 12 0 0 0
SMALL
GASTEIGER

@<TRIPOS>ATOM
      1  C          5.3000    2.8630    0.1110 C.3     1  UNL1        0.1270
      2  C          6.1620    3.7900    0.8840 C.2     1  UNL1        0.3030
      3  O          6.2480    3.7080    2.1340 O.2     1  UNL1       -0.2520
      4  O          6.8970    4.7750    0.2440 O.3     1  UNL1       -0.4810
      5  H          7.6990    5.1920    0.7240 H       1  UNL1        0.2960
      6  C          5.2720    1.5440    0.8210 C.3     1  UNL1        0.0470
      7  C          6.0390    0.4930    0.1540 C.2     1  UNL1       -0.0470
      8  C          6.4760   -0.6080    0.8520 C.2     1  UNL1        0.0040
      9  C          6.3190    0.6150   -1.1870 C.2     1  UNL1        0.0040
     10  C          7.2020   -1.5740    0.1500 C.2     1  UNL1        0.0000
     11  C          7.0370   -0.3390   -1.8790 C.2     1  UNL1        0.0000
     12  C          7.4800   -1.4460   -1.1870 C.2     1  UNL1        0.0000
@<TRIPOS>BOND
     1    11     9    1
     2    11    12    2
     3     9     7    2
     4    12    10    1
     5     1     6    1
     6     1     2    1
     7    10     8    2
     8     7     6    1
     9     7     8    1
    10     4     5    1
    11     4     2    1
    12     2     3    2
