MODEL 1
REMARK VINA RESULT:      -7.4      0.000      0.000
REMARK SMILES O=C(O)CCc1ccccc1
REMARK SMILES IDX 4 1 2 2 1 3 3 4 5 6 6 7 7 8 11 9 8 10 10 11 9 12
REMARK H PARENT 3 5
REMARK Flexibility Score: inf
ROOT
ATOM      1  C   UNL     1       8.416  -0.647  -2.118  1.00  0.00     0.127 C 
ENDROOT
BRANCH   1   2
ATOM      2  C   UNL     1       8.465  -1.906  -2.898  1.00  0.00     0.303 C 
ATOM      3  O   UNL     1       9.551  -2.501  -3.105  1.00  0.00    -0.252 OA
BRANCH   2   4
ATOM      4  O   UNL     1       7.309  -2.463  -3.420  1.00  0.00    -0.481 OA
ATOM      5  H   UNL     1       7.289  -3.463  -3.640  1.00  0.00     0.296 HD
ENDBRANCH   2   4
ENDBRANCH   1   2
BRANCH   1   6
ATOM      6  C   UNL     1       7.000  -0.157  -2.103  1.00  0.00     0.047 C 
BRANCH   6   7
ATOM      7  C   UNL     1       6.456   0.046  -0.762  1.00  0.00    -0.047 A 
ATOM      8  C   UNL     1       5.820   1.221  -0.431  1.00  0.00     0.004 A 
ATOM      9  C   UNL     1       6.583  -0.954   0.174  1.00  0.00     0.004 A 
ATOM     10  C   UNL     1       5.324   1.346   0.868  1.00  0.00     0.000 A 
ATOM     11  C   UNL     1       6.092  -0.829   1.458  1.00  0.00     0.000 A 
ATOM     12  C   UNL     1       5.455   0.345   1.798  1.00  0.00     0.000 A 
ENDBRANCH   6   7
ENDBRANCH   1   6
TORSDOF 4
ENDMDL
MODEL 2
REMARK VINA RESULT:      -7.3      0.103      1.731
REMARK SMILES O=C(O)CCc1ccccc1
REMARK SMILES IDX 4 1 2 2 1 3 3 4 5 6 6 7 7 8 11 9 8 10 10 11 9 12
REMARK H PARENT 3 5
REMARK Flexibility Score: inf
ROOT
ATOM      1  C   UNL     1       8.399  -0.602  -2.163  1.00  0.00     0.127 C 
ENDROOT
BRANCH   1   2
ATOM      2  C   UNL     1       8.381  -1.883  -2.908  1.00  0.00     0.303 C 
ATOM      3  O   UNL     1       7.299  -2.424  -3.245  1.00  0.00    -0.252 OA
BRANCH   2   4
ATOM      4  O   UNL     1       9.562  -2.520  -3.254  1.00  0.00    -0.481 OA
ATOM      5  H   UNL     1       9.759  -2.708  -4.240  1.00  0.00     0.296 HD
ENDBRANCH   2   4
ENDBRANCH   1   2
BRANCH   1   6
ATOM      6  C   UNL     1       7.002  -0.063  -2.119  1.00  0.00     0.047 C 
BRANCH   6   7
ATOM      7  C   UNL     1       6.462   0.081  -0.768  1.00  0.00    -0.047 A 
ATOM      8  C   UNL     1       6.596  -0.931   0.154  1.00  0.00     0.004 A 
ATOM      9  C   UNL     1       5.817   1.246  -0.424  1.00  0.00     0.004 A 
ATOM     10  C   UNL     1       6.056  -0.724   1.426  1.00  0.00     0.000 A 
ATOM     11  C   UNL     1       5.284   1.449   0.834  1.00  0.00     0.000 A 
ATOM     12  C   UNL     1       5.413   0.440   1.764  1.00  0.00     0.000 A 
ENDBRANCH   6   7
ENDBRANCH   1   6
TORSDOF 4
ENDMDL
MODEL 3
REMARK VINA RESULT:      -6.8      3.383      5.090
REMARK SMILES O=C(O)CCc1ccccc1
REMARK SMILES IDX 4 1 2 2 1 3 3 4 5 6 6 7 7 8 11 9 8 10 10 11 9 12
REMARK H PARENT 3 5
REMARK Flexibility Score: inf
ROOT
ATOM      1  C   UNL     1       4.997   1.788   0.706  1.00  0.00     0.127 C 
ENDROOT
BRANCH   1   2
ATOM      2  C   UNL     1       4.480   1.110   1.918  1.00  0.00     0.303 C 
ATOM      3  O   UNL     1       5.136   0.202   2.486  1.00  0.00    -0.252 OA
BRANCH   2   4
ATOM      4  O   UNL     1       3.253   1.460   2.458  1.00  0.00    -0.481 OA
ATOM      5  H   UNL     1       2.923   0.982   3.302  1.00  0.00     0.296 HD
ENDBRANCH   2   4
ENDBRANCH   1   2
BRANCH   1   6
ATOM      6  C   UNL     1       6.495   1.762   0.755  1.00  0.00     0.047 C 
BRANCH   6   7
ATOM      7  C   UNL     1       7.112   1.009  -0.335  1.00  0.00    -0.047 A 
ATOM      8  C   UNL     1       6.381   0.098  -1.063  1.00  0.00     0.004 A 
ATOM      9  C   UNL     1       8.439   1.221  -0.631  1.00  0.00     0.004 A 
ATOM     10  C   UNL     1       7.036  -0.585  -2.091  1.00  0.00     0.000 A 
ATOM     11  C   UNL     1       9.084   0.544  -1.647  1.00  0.00     0.000 A 
ATOM     12  C   UNL     1       8.359  -0.370  -2.380  1.00  0.00     0.000 A 
ENDBRANCH   6   7
ENDBRANCH   1   6
TORSDOF 4
ENDMDL
MODEL 4
REMARK VINA RESULT:      -6.8      0.969      1.828
REMARK SMILES O=C(O)CCc1ccccc1
REMARK SMILES IDX 4 1 2 2 1 3 3 4 5 6 6 7 7 8 11 9 8 10 10 11 9 12
REMARK H PARENT 3 5
REMARK Flexibility Score: inf
ROOT
ATOM      1  C   UNL     1       7.563  -1.462  -2.034  1.00  0.00     0.127 C 
ENDROOT
BRANCH   1   2
ATOM      2  C   UNL     1       8.536  -2.517  -2.403  1.00  0.00     0.303 C 
ATOM      3  O   UNL     1       9.438  -2.304  -3.250  1.00  0.00    -0.252 OA
BRANCH   2   4
ATOM      4  O   UNL     1       8.475  -3.773  -1.820  1.00  0.00    -0.481 OA
ATOM      5  H   UNL     1       8.875  -4.575  -2.316  1.00  0.00     0.296 HD
ENDBRANCH   2   4
ENDBRANCH   1   2
BRANCH   1   6
ATOM      6  C   UNL     1       7.343  -1.521  -0.553  1.00  0.00     0.047 C 
BRANCH   6   7
ATOM      7  C   UNL     1       6.540  -0.418  -0.027  1.00  0.00    -0.047 A 
ATOM      8  C   UNL     1       6.062  -0.449   1.262  1.00  0.00     0.004 A 
ATOM      9  C   UNL     1       6.267   0.660  -0.838  1.00  0.00     0.004 A 
ATOM     10  C   UNL     1       5.303   0.640   1.698  1.00  0.00     0.000 A 
ATOM     11  C   UNL     1       5.516   1.734  -0.405  1.00  0.00     0.000 A 
ATOM     12  C   UNL     1       5.032   1.711   0.885  1.00  0.00     0.000 A 
ENDBRANCH   6   7
ENDBRANCH   1   6
TORSDOF 4
ENDMDL
MODEL 5
REMARK VINA RESULT:      -6.7      1.939      2.241
REMARK SMILES O=C(O)CCc1ccccc1
REMARK SMILES IDX 4 1 2 2 1 3 3 4 5 6 6 7 7 8 11 9 8 10 10 11 9 12
REMARK H PARENT 3 5
REMARK Flexibility Score: inf
ROOT
ATOM      1  C   UNL     1       8.167   0.241  -2.106  1.00  0.00     0.127 C 
ENDROOT
BRANCH   1   2
ATOM      2  C   UNL     1       9.342   0.356  -1.211  1.00  0.00     0.303 C 
ATOM      3  O   UNL     1       9.471  -0.388  -0.207  1.00  0.00    -0.252 OA
BRANCH   2   4
ATOM      4  O   UNL     1      10.334   1.291  -1.458  1.00  0.00    -0.481 OA
ATOM      5  H   UNL     1      10.467   1.641  -2.411  1.00  0.00     0.296 HD
ENDBRANCH   2   4
ENDBRANCH   1   2
BRANCH   1   6
ATOM      6  C   UNL     1       7.133  -0.598  -1.420  1.00  0.00     0.047 C 
BRANCH   6   7
ATOM      7  C   UNL     1       6.350   0.123  -0.418  1.00  0.00    -0.047 A 
ATOM      8  C   UNL     1       5.805   1.353  -0.703  1.00  0.00     0.004 A 
ATOM      9  C   UNL     1       6.161  -0.443   0.822  1.00  0.00     0.004 A 
ATOM     10  C   UNL     1       5.069   1.985   0.302  1.00  0.00     0.000 A 
ATOM     11  C   UNL     1       5.433   0.183   1.814  1.00  0.00     0.000 A 
ATOM     12  C   UNL     1       4.884   1.416   1.536  1.00  0.00     0.000 A 
ENDBRANCH   6   7
ENDBRANCH   1   6
TORSDOF 4
ENDMDL
