@<TRIPOS>MOLECULE
/home/cewinharhar/GITHUB/reincatalyze/data/processed/docking_pred/2023_Apr_20-15:07/d3a7bace4d7284fd134c29c8ba069397c7215f06_ligand_2.pdbqt
 12 12 0 0 0
SMALL
GASTEIGER

@<TRIPOS>ATOM
      1  C          4.9970    1.7880    0.7060 C.3     1  UNL1        0.1270
      2  C          4.4800    1.1100    1.9180 C.2     1  UNL1        0.3030
      3  O          5.1360    0.2020    2.4860 O.2     1  UNL1       -0.2520
      4  O          3.2530    1.4600    2.4580 O.3     1  UNL1       -0.4810
      5  H          2.9230    0.9820    3.3020 H       1  UNL1        0.2960
      6  C          6.4950    1.7620    0.7550 C.3     1  UNL1        0.0470
      7  C          7.1120    1.0090   -0.3350 C.2     1  UNL1       -0.0470
      8  C          6.3810    0.0980   -1.0630 C.2     1  UNL1        0.0040
      9  C          8.4390    1.2210   -0.6310 C.2     1  UNL1        0.0040
     10  C          7.0360   -0.5850   -2.0910 C.2     1  UNL1        0.0000
     11  C          9.0840    0.5440   -1.6470 C.2     1  UNL1        0.0000
     12  C          8.3590   -0.3700   -2.3800 C.2     1  UNL1        0.0000
@<TRIPOS>BOND
     1    12    10    2
     2    12    11    1
     3    10     8    1
     4    11     9    2
     5     8     7    2
     6     9     7    1
     7     7     6    1
     8     1     6    1
     9     1     2    1
    10     2     4    1
    11     2     3    2
    12     4     5    1
