@<TRIPOS>MOLECULE
/home/cewinharhar/GITHUB/reincatalyze/data/processed/docking_pred/2023_Apr_20-15:07/d3a7bace4d7284fd134c29c8ba069397c7215f06_ligand_2.pdbqt
 12 12 0 0 0
SMALL
GASTEIGER

@<TRIPOS>ATOM
      1  C          8.4160   -0.6470   -2.1180 C.3     1  UNL1        0.1270
      2  C          8.4650   -1.9060   -2.8980 C.2     1  UNL1        0.3030
      3  O          9.5510   -2.5010   -3.1050 O.2     1  UNL1       -0.2520
      4  O          7.3090   -2.4630   -3.4200 O.3     1  UNL1       -0.4810
      5  H          7.2890   -3.4630   -3.6400 H       1  UNL1        0.2960
      6  C          7.0000   -0.1570   -2.1030 C.3     1  UNL1        0.0470
      7  C          6.4560    0.0460   -0.7620 C.2     1  UNL1       -0.0470
      8  C          5.8200    1.2210   -0.4310 C.2     1  UNL1        0.0040
      9  C          6.5830   -0.9540    0.1740 C.2     1  UNL1        0.0040
     10  C          5.3240    1.3460    0.8680 C.2     1  UNL1        0.0000
     11  C          6.0920   -0.8290    1.4580 C.2     1  UNL1        0.0000
     12  C          5.4550    0.3450    1.7980 C.2     1  UNL1        0.0000
@<TRIPOS>BOND
     1     5     4    1
     2     4     2    1
     3     3     2    2
     4     2     1    1
     5     1     6    1
     6     6     7    1
     7     7     8    2
     8     7     9    1
     9     8    10    1
    10     9    11    2
    11    10    12    2
    12    11    12    1
