@<TRIPOS>MOLECULE
/home/cewinharhar/GITHUB/reincatalyze/data/processed/docking_pred/2023_Apr_20-15:07/d3a7bace4d7284fd134c29c8ba069397c7215f06_ligand_2.pdbqt
 12 12 0 0 0
SMALL
GASTEIGER

@<TRIPOS>ATOM
      1  C          8.1670    0.2410   -2.1060 C.3     1  UNL1        0.1270
      2  C          9.3420    0.3560   -1.2110 C.2     1  UNL1        0.3030
      3  O          9.4710   -0.3880   -0.2070 O.2     1  UNL1       -0.2520
      4  O         10.3340    1.2910   -1.4580 O.3     1  UNL1       -0.4810
      5  H         10.4670    1.6410   -2.4110 H       1  UNL1        0.2960
      6  C          7.1330   -0.5980   -1.4200 C.3     1  UNL1        0.0470
      7  C          6.3500    0.1230   -0.4180 C.2     1  UNL1       -0.0470
      8  C          5.8050    1.3530   -0.7030 C.2     1  UNL1        0.0040
      9  C          6.1610   -0.4430    0.8220 C.2     1  UNL1        0.0040
     10  C          5.0690    1.9850    0.3020 C.2     1  UNL1        0.0000
     11  C          5.4330    0.1830    1.8140 C.2     1  UNL1        0.0000
     12  C          4.8840    1.4160    1.5360 C.2     1  UNL1        0.0000
@<TRIPOS>BOND
     1     5     4    1
     2     1     6    1
     3     1     2    1
     4     4     2    1
     5     6     7    1
     6     2     3    2
     7     8     7    2
     8     8    10    1
     9     7     9    1
    10    10    12    2
    11     9    11    2
    12    12    11    1
