@<TRIPOS>MOLECULE
/home/cewinharhar/GITHUB/reincatalyze/data/processed/docking_pred/2023_Apr_20-15:07/d3a7bace4d7284fd134c29c8ba069397c7215f06_ligand_2.pdbqt
 12 12 0 0 0
SMALL
GASTEIGER

@<TRIPOS>ATOM
      1  C          7.5630   -1.4620   -2.0340 C.3     1  UNL1        0.1270
      2  C          8.5360   -2.5170   -2.4030 C.2     1  UNL1        0.3030
      3  O          9.4380   -2.3040   -3.2500 O.2     1  UNL1       -0.2520
      4  O          8.4750   -3.7730   -1.8200 O.3     1  UNL1       -0.4810
      5  H          8.8750   -4.5750   -2.3160 H       1  UNL1        0.2960
      6  C          7.3430   -1.5210   -0.5530 C.3     1  UNL1        0.0470
      7  C          6.5400   -0.4180   -0.0270 C.2     1  UNL1       -0.0470
      8  C          6.0620   -0.4490    1.2620 C.2     1  UNL1        0.0040
      9  C          6.2670    0.6600   -0.8380 C.2     1  UNL1        0.0040
     10  C          5.3030    0.6400    1.6980 C.2     1  UNL1        0.0000
     11  C          5.5160    1.7340   -0.4050 C.2     1  UNL1        0.0000
     12  C          5.0320    1.7110    0.8850 C.2     1  UNL1        0.0000
@<TRIPOS>BOND
     1     3     2    2
     2     2     1    1
     3     2     4    1
     4     5     4    1
     5     1     6    1
     6     9    11    1
     7     9     7    2
     8     6     7    1
     9    11    12    2
    10     7     8    1
    11    12    10    1
    12     8    10    2
