@<TRIPOS>MOLECULE
/home/cewinharhar/GITHUB/reincatalyze/data/processed/docking_pred/2023_Apr_20-15:07/d3a7bace4d7284fd134c29c8ba069397c7215f06_ligand_2.pdbqt
 12 12 0 0 0
SMALL
GASTEIGER

@<TRIPOS>ATOM
      1  C          8.3990   -0.6020   -2.1630 C.3     1  UNL1        0.1270
      2  C          8.3810   -1.8830   -2.9080 C.2     1  UNL1        0.3030
      3  O          7.2990   -2.4240   -3.2450 O.2     1  UNL1       -0.2520
      4  O          9.5620   -2.5200   -3.2540 O.3     1  UNL1       -0.4810
      5  H          9.7590   -2.7080   -4.2400 H       1  UNL1        0.2960
      6  C          7.0020   -0.0630   -2.1190 C.3     1  UNL1        0.0470
      7  C          6.4620    0.0810   -0.7680 C.2     1  UNL1       -0.0470
      8  C          6.5960   -0.9310    0.1540 C.2     1  UNL1        0.0040
      9  C          5.8170    1.2460   -0.4240 C.2     1  UNL1        0.0040
     10  C          6.0560   -0.7240    1.4260 C.2     1  UNL1        0.0000
     11  C          5.2840    1.4490    0.8340 C.2     1  UNL1        0.0000
     12  C          5.4130    0.4400    1.7640 C.2     1  UNL1        0.0000
@<TRIPOS>BOND
     1     5     4    1
     2     4     2    1
     3     3     2    2
     4     2     1    1
     5     1     6    1
     6     6     7    1
     7     7     9    2
     8     7     8    1
     9     9    11    1
    10     8    10    2
    11    11    12    2
    12    10    12    1
