@<TRIPOS>MOLECULE
/home/cewinharhar/GITHUB/reincatalyze/data/processed/docking_pred/2023_Apr_20-15:07/d4292dbdc665c4d20b6271b363b9823f318ec372_ligand_2.pdbqt
 12 12 0 0 0
SMALL
GASTEIGER

@<TRIPOS>ATOM
      1  C          4.9840    1.7880    0.6840 C.3     1  UNL1        0.1270
      2  C          4.4820    1.1150    1.9060 C.2     1  UNL1        0.3030
      3  O          5.1510    0.2180    2.4760 O.2     1  UNL1       -0.2520
      4  O          3.2560    1.4580    2.4530 O.3     1  UNL1       -0.4810
      5  H          2.9370    0.9840    3.3020 H       1  UNL1        0.2960
      6  C          6.4820    1.7930    0.7310 C.3     1  UNL1        0.0470
      7  C          7.1130    1.0340   -0.3470 C.2     1  UNL1       -0.0470
      8  C          6.3870    0.1350   -1.0930 C.2     1  UNL1        0.0040
      9  C          8.4480    1.2310   -0.6140 C.2     1  UNL1        0.0040
     10  C          7.0540   -0.5540   -2.1080 C.2     1  UNL1        0.0000
     11  C          9.1070    0.5490   -1.6180 C.2     1  UNL1        0.0000
     12  C          8.3870   -0.3550   -2.3690 C.2     1  UNL1        0.0000
@<TRIPOS>BOND
     1    12    10    2
     2    12    11    1
     3    10     8    1
     4    11     9    2
     5     8     7    2
     6     9     7    1
     7     7     6    1
     8     1     6    1
     9     1     2    1
    10     2     4    1
    11     2     3    2
    12     4     5    1
