@<TRIPOS>MOLECULE
/home/cewinharhar/GITHUB/reincatalyze/data/processed/docking_pred/2023_Apr_20-15:07/d4292dbdc665c4d20b6271b363b9823f318ec372_ligand_2.pdbqt
 12 12 0 0 0
SMALL
GASTEIGER

@<TRIPOS>ATOM
      1  C          7.9140   -2.2130    0.8600 C.3     1  UNL1        0.1270
      2  C          8.7430   -3.3310    0.3500 C.2     1  UNL1        0.3030
      3  O          9.6280   -3.8640    1.0650 O.2     1  UNL1       -0.2520
      4  O          8.5640   -3.8210   -0.9330 O.3     1  UNL1       -0.4810
      5  H          8.5540   -3.1670   -1.7220 H       1  UNL1        0.2960
      6  C          7.3530   -1.4710   -0.3140 C.3     1  UNL1        0.0470
      7  C          6.5340   -0.3150    0.0500 C.2     1  UNL1       -0.0470
      8  C          6.3210    0.7060   -0.8470 C.2     1  UNL1        0.0040
      9  C          5.9730   -0.2590    1.3040 C.2     1  UNL1        0.0040
     10  C          5.5280    1.7780   -0.4320 C.2     1  UNL1        0.0000
     11  C          5.1890    0.8020    1.7130 C.2     1  UNL1        0.0000
     12  C          4.9710    1.8290    0.8210 C.2     1  UNL1        0.0000
@<TRIPOS>BOND
     1     5     4    1
     2     4     2    1
     3     8    10    1
     4     8     7    2
     5    10    12    2
     6     6     7    1
     7     6     1    1
     8     7     9    1
     9     2     1    1
    10     2     3    2
    11    12    11    1
    12     9    11    2
