@<TRIPOS>MOLECULE
/home/cewinharhar/GITHUB/reincatalyze/data/processed/docking_pred/2023_Apr_20-15:07/d4292dbdc665c4d20b6271b363b9823f318ec372_ligand_2.pdbqt
 12 12 0 0 0
SMALL
GASTEIGER

@<TRIPOS>ATOM
      1  C          8.2060    0.2440   -2.2370 C.3     1  UNL1        0.1270
      2  C          9.3180    0.3590   -1.2650 C.2     1  UNL1        0.3030
      3  O          9.4130   -0.4260   -0.2890 O.2     1  UNL1       -0.2520
      4  O         10.2870    1.3400   -1.4060 O.3     1  UNL1       -0.4810
      5  H         10.7920    1.4210   -2.2930 H       1  UNL1        0.2960
      6  C          7.0810   -0.4960   -1.5810 C.3     1  UNL1        0.0470
      7  C          6.3210    0.3040   -0.6220 C.2     1  UNL1       -0.0470
      8  C          6.1310   -0.1360    0.6670 C.2     1  UNL1        0.0040
      9  C          5.7970    1.5120   -1.0220 C.2     1  UNL1        0.0040
     10  C          5.3960    0.6810    1.5300 C.2     1  UNL1        0.0000
     11  C          5.0700    2.3180   -0.1680 C.2     1  UNL1        0.0000
     12  C          4.8750    1.8840    1.1250 C.2     1  UNL1        0.0000
@<TRIPOS>BOND
     1     5     4    1
     2     1     6    1
     3     1     2    1
     4     6     7    1
     5     4     2    1
     6     2     3    2
     7     9     7    2
     8     9    11    1
     9     7     8    1
    10    11    12    2
    11     8    10    2
    12    12    10    1
