@<TRIPOS>MOLECULE
/home/cewinharhar/GITHUB/reincatalyze/data/processed/docking_pred/2023_Apr_20-15:07/d4292dbdc665c4d20b6271b363b9823f318ec372_ligand_2.pdbqt
 12 12 0 0 0
SMALL
GASTEIGER

@<TRIPOS>ATOM
      1  C          8.4610   -0.6270   -2.1330 C.3     1  UNL1        0.1270
      2  C          8.4820   -1.8980   -2.8940 C.2     1  UNL1        0.3030
      3  O          9.5520   -2.5290   -3.0770 O.2     1  UNL1       -0.2520
      4  O          7.3170   -2.4270   -3.4260 O.3     1  UNL1       -0.4810
      5  H          6.4130   -2.0810   -3.0930 H       1  UNL1        0.2960
      6  C          7.0540   -0.1130   -2.1140 C.3     1  UNL1        0.0470
      7  C          6.4930    0.0320   -0.7720 C.2     1  UNL1       -0.0470
      8  C          6.6020   -0.9830    0.1500 C.2     1  UNL1        0.0040
      9  C          5.8510    1.2020   -0.4350 C.2     1  UNL1        0.0040
     10  C          6.0430   -0.7750    1.4130 C.2     1  UNL1        0.0000
     11  C          5.2990    1.4060    0.8140 C.2     1  UNL1        0.0000
     12  C          5.4040    0.3930    1.7430 C.2     1  UNL1        0.0000
@<TRIPOS>BOND
     1     4     5    1
     2     4     2    1
     3     3     2    2
     4     2     1    1
     5     1     6    1
     6     6     7    1
     7     7     9    2
     8     7     8    1
     9     9    11    1
    10     8    10    2
    11    11    12    2
    12    10    12    1
