@<TRIPOS>MOLECULE
/home/cewinharhar/GITHUB/reincatalyze/data/processed/docking_pred/2023_Apr_20-15:07/d4292dbdc665c4d20b6271b363b9823f318ec372_ligand_2.pdbqt
 12 12 0 0 0
SMALL
GASTEIGER

@<TRIPOS>ATOM
      1  C          8.4270   -0.5640   -2.2110 C.3     1  UNL1        0.1270
      2  C          8.4840   -1.8680   -2.9120 C.2     1  UNL1        0.3030
      3  O          9.5680   -2.4860   -3.0500 O.2     1  UNL1       -0.2520
      4  O          7.3370   -2.4430   -3.4350 O.3     1  UNL1       -0.4810
      5  H          6.4260   -2.0300   -3.2180 H       1  UNL1        0.2960
      6  C          6.9980   -0.1160   -2.1640 C.3     1  UNL1        0.0470
      7  C          6.4720    0.0540   -0.8110 C.2     1  UNL1       -0.0470
      8  C          5.8420    1.2200   -0.4420 C.2     1  UNL1        0.0040
      9  C          6.6120   -0.9700    0.0970 C.2     1  UNL1        0.0040
     10  C          5.3630    1.3120    0.8660 C.2     1  UNL1        0.0000
     11  C          6.1390   -0.8770    1.3910 C.2     1  UNL1        0.0000
     12  C          5.5060    0.2880    1.7680 C.2     1  UNL1        0.0000
@<TRIPOS>BOND
     1     4     5    1
     2     4     2    1
     3     3     2    2
     4     2     1    1
     5     1     6    1
     6     6     7    1
     7     7     8    2
     8     7     9    1
     9     8    10    1
    10     9    11    2
    11    10    12    2
    12    11    12    1
