MODEL 1
REMARK VINA RESULT:      -7.3      0.000      0.000
REMARK SMILES O=C(O)CCc1ccccc1
REMARK SMILES IDX 4 1 2 2 1 3 3 4 5 6 6 7 7 8 11 9 8 10 10 11 9 12
REMARK H PARENT 3 5
REMARK Flexibility Score: inf
ROOT
ATOM      1  C   UNL     1       8.461  -0.627  -2.133  1.00  0.00     0.127 C 
ENDROOT
BRANCH   1   2
ATOM      2  C   UNL     1       8.482  -1.898  -2.894  1.00  0.00     0.303 C 
ATOM      3  O   UNL     1       9.552  -2.529  -3.077  1.00  0.00    -0.252 OA
BRANCH   2   4
ATOM      4  O   UNL     1       7.317  -2.427  -3.426  1.00  0.00    -0.481 OA
ATOM      5  H   UNL     1       6.413  -2.081  -3.093  1.00  0.00     0.296 HD
ENDBRANCH   2   4
ENDBRANCH   1   2
BRANCH   1   6
ATOM      6  C   UNL     1       7.054  -0.113  -2.114  1.00  0.00     0.047 C 
BRANCH   6   7
ATOM      7  C   UNL     1       6.493   0.032  -0.772  1.00  0.00    -0.047 A 
ATOM      8  C   UNL     1       6.602  -0.983   0.150  1.00  0.00     0.004 A 
ATOM      9  C   UNL     1       5.851   1.202  -0.435  1.00  0.00     0.004 A 
ATOM     10  C   UNL     1       6.043  -0.775   1.413  1.00  0.00     0.000 A 
ATOM     11  C   UNL     1       5.299   1.406   0.814  1.00  0.00     0.000 A 
ATOM     12  C   UNL     1       5.404   0.393   1.743  1.00  0.00     0.000 A 
ENDBRANCH   6   7
ENDBRANCH   1   6
TORSDOF 4
ENDMDL
MODEL 2
REMARK VINA RESULT:      -7.3      0.088      1.439
REMARK SMILES O=C(O)CCc1ccccc1
REMARK SMILES IDX 4 1 2 2 1 3 3 4 5 6 6 7 7 8 11 9 8 10 10 11 9 12
REMARK H PARENT 3 5
REMARK Flexibility Score: inf
ROOT
ATOM      1  C   UNL     1       8.427  -0.564  -2.211  1.00  0.00     0.127 C 
ENDROOT
BRANCH   1   2
ATOM      2  C   UNL     1       8.484  -1.868  -2.912  1.00  0.00     0.303 C 
ATOM      3  O   UNL     1       9.568  -2.486  -3.050  1.00  0.00    -0.252 OA
BRANCH   2   4
ATOM      4  O   UNL     1       7.337  -2.443  -3.435  1.00  0.00    -0.481 OA
ATOM      5  H   UNL     1       6.426  -2.030  -3.218  1.00  0.00     0.296 HD
ENDBRANCH   2   4
ENDBRANCH   1   2
BRANCH   1   6
ATOM      6  C   UNL     1       6.998  -0.116  -2.164  1.00  0.00     0.047 C 
BRANCH   6   7
ATOM      7  C   UNL     1       6.472   0.054  -0.811  1.00  0.00    -0.047 A 
ATOM      8  C   UNL     1       5.842   1.220  -0.442  1.00  0.00     0.004 A 
ATOM      9  C   UNL     1       6.612  -0.970   0.097  1.00  0.00     0.004 A 
ATOM     10  C   UNL     1       5.363   1.312   0.866  1.00  0.00     0.000 A 
ATOM     11  C   UNL     1       6.139  -0.877   1.391  1.00  0.00     0.000 A 
ATOM     12  C   UNL     1       5.506   0.288   1.768  1.00  0.00     0.000 A 
ENDBRANCH   6   7
ENDBRANCH   1   6
TORSDOF 4
ENDMDL
MODEL 3
REMARK VINA RESULT:      -6.7      3.374      5.064
REMARK SMILES O=C(O)CCc1ccccc1
REMARK SMILES IDX 4 1 2 2 1 3 3 4 5 6 6 7 7 8 11 9 8 10 10 11 9 12
REMARK H PARENT 3 5
REMARK Flexibility Score: inf
ROOT
ATOM      1  C   UNL     1       4.984   1.788   0.684  1.00  0.00     0.127 C 
ENDROOT
BRANCH   1   2
ATOM      2  C   UNL     1       4.482   1.115   1.906  1.00  0.00     0.303 C 
ATOM      3  O   UNL     1       5.151   0.218   2.476  1.00  0.00    -0.252 OA
BRANCH   2   4
ATOM      4  O   UNL     1       3.256   1.458   2.453  1.00  0.00    -0.481 OA
ATOM      5  H   UNL     1       2.937   0.984   3.302  1.00  0.00     0.296 HD
ENDBRANCH   2   4
ENDBRANCH   1   2
BRANCH   1   6
ATOM      6  C   UNL     1       6.482   1.793   0.731  1.00  0.00     0.047 C 
BRANCH   6   7
ATOM      7  C   UNL     1       7.113   1.034  -0.347  1.00  0.00    -0.047 A 
ATOM      8  C   UNL     1       6.387   0.135  -1.093  1.00  0.00     0.004 A 
ATOM      9  C   UNL     1       8.448   1.231  -0.614  1.00  0.00     0.004 A 
ATOM     10  C   UNL     1       7.054  -0.554  -2.108  1.00  0.00     0.000 A 
ATOM     11  C   UNL     1       9.107   0.549  -1.618  1.00  0.00     0.000 A 
ATOM     12  C   UNL     1       8.387  -0.355  -2.369  1.00  0.00     0.000 A 
ENDBRANCH   6   7
ENDBRANCH   1   6
TORSDOF 4
ENDMDL
MODEL 4
REMARK VINA RESULT:      -6.6      1.912      2.298
REMARK SMILES O=C(O)CCc1ccccc1
REMARK SMILES IDX 4 1 2 2 1 3 3 4 5 6 6 7 7 8 11 9 8 10 10 11 9 12
REMARK H PARENT 3 5
REMARK Flexibility Score: inf
ROOT
ATOM      1  C   UNL     1       8.206   0.244  -2.237  1.00  0.00     0.127 C 
ENDROOT
BRANCH   1   2
ATOM      2  C   UNL     1       9.318   0.359  -1.265  1.00  0.00     0.303 C 
ATOM      3  O   UNL     1       9.413  -0.426  -0.289  1.00  0.00    -0.252 OA
BRANCH   2   4
ATOM      4  O   UNL     1      10.287   1.340  -1.406  1.00  0.00    -0.481 OA
ATOM      5  H   UNL     1      10.792   1.421  -2.293  1.00  0.00     0.296 HD
ENDBRANCH   2   4
ENDBRANCH   1   2
BRANCH   1   6
ATOM      6  C   UNL     1       7.081  -0.496  -1.581  1.00  0.00     0.047 C 
BRANCH   6   7
ATOM      7  C   UNL     1       6.321   0.304  -0.622  1.00  0.00    -0.047 A 
ATOM      8  C   UNL     1       6.131  -0.136   0.667  1.00  0.00     0.004 A 
ATOM      9  C   UNL     1       5.797   1.512  -1.022  1.00  0.00     0.004 A 
ATOM     10  C   UNL     1       5.396   0.681   1.530  1.00  0.00     0.000 A 
ATOM     11  C   UNL     1       5.070   2.318  -0.168  1.00  0.00     0.000 A 
ATOM     12  C   UNL     1       4.875   1.884   1.125  1.00  0.00     0.000 A 
ENDBRANCH   6   7
ENDBRANCH   1   6
TORSDOF 4
ENDMDL
MODEL 5
REMARK VINA RESULT:      -6.5      1.983      2.741
REMARK SMILES O=C(O)CCc1ccccc1
REMARK SMILES IDX 4 1 2 2 1 3 3 4 5 6 6 7 7 8 11 9 8 10 10 11 9 12
REMARK H PARENT 3 5
REMARK Flexibility Score: inf
ROOT
ATOM      1  C   UNL     1       7.914  -2.213   0.860  1.00  0.00     0.127 C 
ENDROOT
BRANCH   1   2
ATOM      2  C   UNL     1       8.743  -3.331   0.350  1.00  0.00     0.303 C 
ATOM      3  O   UNL     1       9.628  -3.864   1.065  1.00  0.00    -0.252 OA
BRANCH   2   4
ATOM      4  O   UNL     1       8.564  -3.821  -0.933  1.00  0.00    -0.481 OA
ATOM      5  H   UNL     1       8.554  -3.167  -1.722  1.00  0.00     0.296 HD
ENDBRANCH   2   4
ENDBRANCH   1   2
BRANCH   1   6
ATOM      6  C   UNL     1       7.353  -1.471  -0.314  1.00  0.00     0.047 C 
BRANCH   6   7
ATOM      7  C   UNL     1       6.534  -0.315   0.050  1.00  0.00    -0.047 A 
ATOM      8  C   UNL     1       6.321   0.706  -0.847  1.00  0.00     0.004 A 
ATOM      9  C   UNL     1       5.973  -0.259   1.304  1.00  0.00     0.004 A 
ATOM     10  C   UNL     1       5.528   1.778  -0.432  1.00  0.00     0.000 A 
ATOM     11  C   UNL     1       5.189   0.802   1.713  1.00  0.00     0.000 A 
ATOM     12  C   UNL     1       4.971   1.829   0.821  1.00  0.00     0.000 A 
ENDBRANCH   6   7
ENDBRANCH   1   6
TORSDOF 4
ENDMDL
