@<TRIPOS>MOLECULE
/home/cewinharhar/GITHUB/reincatalyze/data/processed/docking_pred/2023_Apr_20-15:07/d475abeaf77d1f7cad9c775310647ad941a1fd31_ligand_2.pdbqt
 12 12 0 0 0
SMALL
GASTEIGER

@<TRIPOS>ATOM
      1  C          8.4360   -0.6020   -2.1430 C.3     1  UNL1        0.1270
      2  C          8.4740   -1.8800   -2.8930 C.2     1  UNL1        0.3030
      3  O          9.5550   -2.4890   -3.0860 O.2     1  UNL1       -0.2520
      4  O          7.3130   -2.4370   -3.4050 O.3     1  UNL1       -0.4810
      5  H          6.4090   -2.0200   -3.1660 H       1  UNL1        0.2960
      6  C          7.0210   -0.1110   -2.1210 C.3     1  UNL1        0.0470
      7  C          6.4720    0.0610   -0.7770 C.2     1  UNL1       -0.0470
      8  C          5.8480    1.2330   -0.4170 C.2     1  UNL1        0.0040
      9  C          6.5840   -0.9670    0.1310 C.2     1  UNL1        0.0040
     10  C          5.3470    1.3270    0.8840 C.2     1  UNL1        0.0000
     11  C          6.0880   -0.8720    1.4160 C.2     1  UNL1        0.0000
     12  C          5.4630    0.2990    1.7850 C.2     1  UNL1        0.0000
@<TRIPOS>BOND
     1     4     5    1
     2     4     2    1
     3     3     2    2
     4     2     1    1
     5     1     6    1
     6     6     7    1
     7     7     8    2
     8     7     9    1
     9     8    10    1
    10     9    11    2
    11    10    12    2
    12    11    12    1
