@<TRIPOS>MOLECULE
/home/cewinharhar/GITHUB/reincatalyze/data/processed/docking_pred/2023_Apr_20-15:07/d475abeaf77d1f7cad9c775310647ad941a1fd31_ligand_2.pdbqt
 12 12 0 0 0
SMALL
GASTEIGER

@<TRIPOS>ATOM
      1  C          8.2470    0.2470   -2.1530 C.3     1  UNL1        0.1270
      2  C          9.3880    0.3620   -1.2140 C.2     1  UNL1        0.3030
      3  O          9.4770   -0.3790   -0.2040 O.2     1  UNL1       -0.2520
      4  O         10.3910    1.2930   -1.4270 O.3     1  UNL1       -0.4810
      5  H         10.9130    1.2750   -2.3080 H       1  UNL1        0.2960
      6  C          7.1660   -0.5470   -1.4850 C.3     1  UNL1        0.0470
      7  C          6.3690    0.2200   -0.5300 C.2     1  UNL1       -0.0470
      8  C          6.1460   -0.2550    0.7420 C.2     1  UNL1        0.0040
      9  C          5.8410    1.4300   -0.9150 C.2     1  UNL1        0.0040
     10  C          5.3760    0.5320    1.6020 C.2     1  UNL1        0.0000
     11  C          5.0800    2.2070   -0.0640 C.2     1  UNL1        0.0000
     12  C          4.8510    1.7380    1.2110 C.2     1  UNL1        0.0000
@<TRIPOS>BOND
     1     5     4    1
     2     1     6    1
     3     1     2    1
     4     6     7    1
     5     4     2    1
     6     2     3    2
     7     9     7    2
     8     9    11    1
     9     7     8    1
    10    11    12    2
    11     8    10    2
    12    12    10    1
