MODEL 1
REMARK VINA RESULT:      -7.4      0.000      0.000
REMARK SMILES O=C(O)CCc1ccccc1
REMARK SMILES IDX 4 1 2 2 1 3 3 4 5 6 6 7 7 8 11 9 8 10 10 11 9 12
REMARK H PARENT 3 5
REMARK Flexibility Score: inf
ROOT
ATOM      1  C   UNL     1       8.485  -0.602  -2.182  1.00  0.00     0.127 C 
ENDROOT
BRANCH   1   2
ATOM      2  C   UNL     1       8.502  -1.889  -2.916  1.00  0.00     0.303 C 
ATOM      3  O   UNL     1       9.574  -2.514  -3.110  1.00  0.00    -0.252 OA
BRANCH   2   4
ATOM      4  O   UNL     1       7.331  -2.440  -3.411  1.00  0.00    -0.481 OA
ATOM      5  H   UNL     1       6.430  -2.085  -3.078  1.00  0.00     0.296 HD
ENDBRANCH   2   4
ENDBRANCH   1   2
BRANCH   1   6
ATOM      6  C   UNL     1       7.075  -0.095  -2.154  1.00  0.00     0.047 C 
BRANCH   6   7
ATOM      7  C   UNL     1       6.522   0.051  -0.809  1.00  0.00    -0.047 A 
ATOM      8  C   UNL     1       6.643  -0.962   0.115  1.00  0.00     0.004 A 
ATOM      9  C   UNL     1       5.876   1.217  -0.471  1.00  0.00     0.004 A 
ATOM     10  C   UNL     1       6.091  -0.753   1.381  1.00  0.00     0.000 A 
ATOM     11  C   UNL     1       5.330   1.421   0.781  1.00  0.00     0.000 A 
ATOM     12  C   UNL     1       5.447   0.412   1.711  1.00  0.00     0.000 A 
ENDBRANCH   6   7
ENDBRANCH   1   6
TORSDOF 4
ENDMDL
MODEL 2
REMARK VINA RESULT:      -7.3      0.083      1.439
REMARK SMILES O=C(O)CCc1ccccc1
REMARK SMILES IDX 4 1 2 2 1 3 3 4 5 6 6 7 7 8 11 9 8 10 10 11 9 12
REMARK H PARENT 3 5
REMARK Flexibility Score: inf
ROOT
ATOM      1  C   UNL     1       8.436  -0.602  -2.143  1.00  0.00     0.127 C 
ENDROOT
BRANCH   1   2
ATOM      2  C   UNL     1       8.474  -1.880  -2.893  1.00  0.00     0.303 C 
ATOM      3  O   UNL     1       9.555  -2.489  -3.086  1.00  0.00    -0.252 OA
BRANCH   2   4
ATOM      4  O   UNL     1       7.313  -2.437  -3.405  1.00  0.00    -0.481 OA
ATOM      5  H   UNL     1       6.409  -2.020  -3.166  1.00  0.00     0.296 HD
ENDBRANCH   2   4
ENDBRANCH   1   2
BRANCH   1   6
ATOM      6  C   UNL     1       7.021  -0.111  -2.121  1.00  0.00     0.047 C 
BRANCH   6   7
ATOM      7  C   UNL     1       6.472   0.061  -0.777  1.00  0.00    -0.047 A 
ATOM      8  C   UNL     1       5.848   1.233  -0.417  1.00  0.00     0.004 A 
ATOM      9  C   UNL     1       6.584  -0.967   0.131  1.00  0.00     0.004 A 
ATOM     10  C   UNL     1       5.347   1.327   0.884  1.00  0.00     0.000 A 
ATOM     11  C   UNL     1       6.088  -0.872   1.416  1.00  0.00     0.000 A 
ATOM     12  C   UNL     1       5.463   0.299   1.785  1.00  0.00     0.000 A 
ENDBRANCH   6   7
ENDBRANCH   1   6
TORSDOF 4
ENDMDL
MODEL 3
REMARK VINA RESULT:      -6.7      3.329      5.031
REMARK SMILES O=C(O)CCc1ccccc1
REMARK SMILES IDX 4 1 2 2 1 3 3 4 5 6 6 7 7 8 11 9 8 10 10 11 9 12
REMARK H PARENT 3 5
REMARK Flexibility Score: inf
ROOT
ATOM      1  C   UNL     1       5.066   1.701   0.695  1.00  0.00     0.127 C 
ENDROOT
BRANCH   1   2
ATOM      2  C   UNL     1       4.619   1.013   1.930  1.00  0.00     0.303 C 
ATOM      3  O   UNL     1       5.343   0.157   2.496  1.00  0.00    -0.252 OA
BRANCH   2   4
ATOM      4  O   UNL     1       3.386   1.297   2.494  1.00  0.00    -0.481 OA
ATOM      5  H   UNL     1       2.682   1.791   1.938  1.00  0.00     0.296 HD
ENDBRANCH   2   4
ENDBRANCH   1   2
BRANCH   1   6
ATOM      6  C   UNL     1       6.563   1.762   0.706  1.00  0.00     0.047 C 
BRANCH   6   7
ATOM      7  C   UNL     1       7.196   1.006  -0.373  1.00  0.00    -0.047 A 
ATOM      8  C   UNL     1       8.532   1.171  -0.656  1.00  0.00     0.004 A 
ATOM      9  C   UNL     1       6.441   0.121  -1.106  1.00  0.00     0.004 A 
ATOM     10  C   UNL     1       9.072   0.415  -1.700  1.00  0.00     0.000 A 
ATOM     11  C   UNL     1       6.975  -0.625  -2.138  1.00  0.00     0.000 A 
ATOM     12  C   UNL     1       8.313  -0.466  -2.429  1.00  0.00     0.000 A 
ENDBRANCH   6   7
ENDBRANCH   1   6
TORSDOF 4
ENDMDL
MODEL 4
REMARK VINA RESULT:      -6.7      1.943      2.295
REMARK SMILES O=C(O)CCc1ccccc1
REMARK SMILES IDX 4 1 2 2 1 3 3 4 5 6 6 7 7 8 11 9 8 10 10 11 9 12
REMARK H PARENT 3 5
REMARK Flexibility Score: inf
ROOT
ATOM      1  C   UNL     1       8.247   0.247  -2.153  1.00  0.00     0.127 C 
ENDROOT
BRANCH   1   2
ATOM      2  C   UNL     1       9.388   0.362  -1.214  1.00  0.00     0.303 C 
ATOM      3  O   UNL     1       9.477  -0.379  -0.204  1.00  0.00    -0.252 OA
BRANCH   2   4
ATOM      4  O   UNL     1      10.391   1.293  -1.427  1.00  0.00    -0.481 OA
ATOM      5  H   UNL     1      10.913   1.275  -2.308  1.00  0.00     0.296 HD
ENDBRANCH   2   4
ENDBRANCH   1   2
BRANCH   1   6
ATOM      6  C   UNL     1       7.166  -0.547  -1.485  1.00  0.00     0.047 C 
BRANCH   6   7
ATOM      7  C   UNL     1       6.369   0.220  -0.530  1.00  0.00    -0.047 A 
ATOM      8  C   UNL     1       6.146  -0.255   0.742  1.00  0.00     0.004 A 
ATOM      9  C   UNL     1       5.841   1.430  -0.915  1.00  0.00     0.004 A 
ATOM     10  C   UNL     1       5.376   0.532   1.602  1.00  0.00     0.000 A 
ATOM     11  C   UNL     1       5.080   2.207  -0.064  1.00  0.00     0.000 A 
ATOM     12  C   UNL     1       4.851   1.738   1.211  1.00  0.00     0.000 A 
ENDBRANCH   6   7
ENDBRANCH   1   6
TORSDOF 4
ENDMDL
MODEL 5
REMARK VINA RESULT:      -6.6      2.000      2.748
REMARK SMILES O=C(O)CCc1ccccc1
REMARK SMILES IDX 4 1 2 2 1 3 3 4 5 6 6 7 7 8 11 9 8 10 10 11 9 12
REMARK H PARENT 3 5
REMARK Flexibility Score: inf
ROOT
ATOM      1  C   UNL     1       7.948  -2.284   0.838  1.00  0.00     0.127 C 
ENDROOT
BRANCH   1   2
ATOM      2  C   UNL     1       8.775  -3.399   0.320  1.00  0.00     0.303 C 
ATOM      3  O   UNL     1       9.681  -3.917   1.019  1.00  0.00    -0.252 OA
BRANCH   2   4
ATOM      4  O   UNL     1       8.571  -3.903  -0.954  1.00  0.00    -0.481 OA
ATOM      5  H   UNL     1       8.943  -3.392  -1.760  1.00  0.00     0.296 HD
ENDBRANCH   2   4
ENDBRANCH   1   2
BRANCH   1   6
ATOM      6  C   UNL     1       7.486  -1.461  -0.325  1.00  0.00     0.047 C 
BRANCH   6   7
ATOM      7  C   UNL     1       6.617  -0.345   0.044  1.00  0.00    -0.047 A 
ATOM      8  C   UNL     1       6.350   0.665  -0.851  1.00  0.00     0.004 A 
ATOM      9  C   UNL     1       6.061  -0.315   1.302  1.00  0.00     0.004 A 
ATOM     10  C   UNL     1       5.510   1.698  -0.431  1.00  0.00     0.000 A 
ATOM     11  C   UNL     1       5.231   0.708   1.716  1.00  0.00     0.000 A 
ATOM     12  C   UNL     1       4.959   1.724   0.826  1.00  0.00     0.000 A 
ENDBRANCH   6   7
ENDBRANCH   1   6
TORSDOF 4
ENDMDL
