@<TRIPOS>MOLECULE
/home/cewinharhar/GITHUB/reincatalyze/data/processed/docking_pred/2023_Apr_20-15:07/d475abeaf77d1f7cad9c775310647ad941a1fd31_ligand_2.pdbqt
 12 12 0 0 0
SMALL
GASTEIGER

@<TRIPOS>ATOM
      1  C          8.4850   -0.6020   -2.1820 C.3     1  UNL1        0.1270
      2  C          8.5020   -1.8890   -2.9160 C.2     1  UNL1        0.3030
      3  O          9.5740   -2.5140   -3.1100 O.2     1  UNL1       -0.2520
      4  O          7.3310   -2.4400   -3.4110 O.3     1  UNL1       -0.4810
      5  H          6.4300   -2.0850   -3.0780 H       1  UNL1        0.2960
      6  C          7.0750   -0.0950   -2.1540 C.3     1  UNL1        0.0470
      7  C          6.5220    0.0510   -0.8090 C.2     1  UNL1       -0.0470
      8  C          6.6430   -0.9620    0.1150 C.2     1  UNL1        0.0040
      9  C          5.8760    1.2170   -0.4710 C.2     1  UNL1        0.0040
     10  C          6.0910   -0.7530    1.3810 C.2     1  UNL1        0.0000
     11  C          5.3300    1.4210    0.7810 C.2     1  UNL1        0.0000
     12  C          5.4470    0.4120    1.7110 C.2     1  UNL1        0.0000
@<TRIPOS>BOND
     1     4     5    1
     2     4     2    1
     3     3     2    2
     4     2     1    1
     5     1     6    1
     6     6     7    1
     7     7     9    2
     8     7     8    1
     9     9    11    1
    10     8    10    2
    11    11    12    2
    12    10    12    1
