@<TRIPOS>MOLECULE
/home/cewinharhar/GITHUB/reincatalyze/data/processed/docking_pred/2023_Apr_20-15:07/d475abeaf77d1f7cad9c775310647ad941a1fd31_ligand_2.pdbqt
 12 12 0 0 0
SMALL
GASTEIGER

@<TRIPOS>ATOM
      1  C          7.9480   -2.2840    0.8380 C.3     1  UNL1        0.1270
      2  C          8.7750   -3.3990    0.3200 C.2     1  UNL1        0.3030
      3  O          9.6810   -3.9170    1.0190 O.2     1  UNL1       -0.2520
      4  O          8.5710   -3.9030   -0.9540 O.3     1  UNL1       -0.4810
      5  H          8.9430   -3.3920   -1.7600 H       1  UNL1        0.2960
      6  C          7.4860   -1.4610   -0.3250 C.3     1  UNL1        0.0470
      7  C          6.6170   -0.3450    0.0440 C.2     1  UNL1       -0.0470
      8  C          6.3500    0.6650   -0.8510 C.2     1  UNL1        0.0040
      9  C          6.0610   -0.3150    1.3020 C.2     1  UNL1        0.0040
     10  C          5.5100    1.6980   -0.4310 C.2     1  UNL1        0.0000
     11  C          5.2310    0.7080    1.7160 C.2     1  UNL1        0.0000
     12  C          4.9590    1.7240    0.8260 C.2     1  UNL1        0.0000
@<TRIPOS>BOND
     1     5     4    1
     2     4     2    1
     3     8    10    1
     4     8     7    2
     5    10    12    2
     6     6     7    1
     7     6     1    1
     8     7     9    1
     9     2     1    1
    10     2     3    2
    11    12    11    1
    12     9    11    2
