@<TRIPOS>MOLECULE
/home/cewinharhar/GITHUB/reincatalyze/data/processed/docking_pred/2023_Apr_20-15:07/d475abeaf77d1f7cad9c775310647ad941a1fd31_ligand_2.pdbqt
 12 12 0 0 0
SMALL
GASTEIGER

@<TRIPOS>ATOM
      1  C          5.0660    1.7010    0.6950 C.3     1  UNL1        0.1270
      2  C          4.6190    1.0130    1.9300 C.2     1  UNL1        0.3030
      3  O          5.3430    0.1570    2.4960 O.2     1  UNL1       -0.2520
      4  O          3.3860    1.2970    2.4940 O.3     1  UNL1       -0.4810
      5  H          2.6820    1.7910    1.9380 H       1  UNL1        0.2960
      6  C          6.5630    1.7620    0.7060 C.3     1  UNL1        0.0470
      7  C          7.1960    1.0060   -0.3730 C.2     1  UNL1       -0.0470
      8  C          8.5320    1.1710   -0.6560 C.2     1  UNL1        0.0040
      9  C          6.4410    0.1210   -1.1060 C.2     1  UNL1        0.0040
     10  C          9.0720    0.4150   -1.7000 C.2     1  UNL1        0.0000
     11  C          6.9750   -0.6250   -2.1380 C.2     1  UNL1        0.0000
     12  C          8.3130   -0.4660   -2.4290 C.2     1  UNL1        0.0000
@<TRIPOS>BOND
     1    12    11    2
     2    12    10    1
     3    11     9    1
     4    10     8    2
     5     9     7    2
     6     8     7    1
     7     7     6    1
     8     1     6    1
     9     1     2    1
    10     2     4    1
    11     2     3    2
    12     5     4    1
