@<TRIPOS>MOLECULE
/home/cewinharhar/GITHUB/reincatalyze/data/processed/docking_pred/2023_Apr_20-15:07/d4c602a3745b48528a2ec664cc6a2c0711254731_ligand_2.pdbqt
 12 12 0 0 0
SMALL
GASTEIGER

@<TRIPOS>ATOM
      1  C          5.0860    1.7200    0.7070 C.3     1  UNL1        0.1270
      2  C          4.5950    1.0280    1.9220 C.2     1  UNL1        0.3030
      3  O          5.2830    0.1420    2.4880 O.2     1  UNL1       -0.2520
      4  O          3.3600    1.3400    2.4670 O.3     1  UNL1       -0.4810
      5  H          3.0510    2.3150    2.4810 H       1  UNL1        0.2960
      6  C          6.5840    1.7210    0.7380 C.3     1  UNL1        0.0470
      7  C          7.2020    0.9750   -0.3570 C.2     1  UNL1       -0.0470
      8  C          8.5090    1.2070   -0.7160 C.2     1  UNL1        0.0040
      9  C          6.4600    0.0310   -1.0280 C.2     1  UNL1        0.0040
     10  C          9.0340    0.4570   -1.7710 C.2     1  UNL1        0.0000
     11  C          6.9810   -0.7100   -2.0710 C.2     1  UNL1        0.0000
     12  C          8.2900   -0.4830   -2.4380 C.2     1  UNL1        0.0000
@<TRIPOS>BOND
     1    12    11    2
     2    12    10    1
     3    11     9    1
     4    10     8    2
     5     9     7    2
     6     8     7    1
     7     7     6    1
     8     1     6    1
     9     1     2    1
    10     2     4    1
    11     2     3    2
    12     4     5    1
