@<TRIPOS>MOLECULE
/home/cewinharhar/GITHUB/reincatalyze/data/processed/docking_pred/2023_Apr_20-15:07/d4c602a3745b48528a2ec664cc6a2c0711254731_ligand_2.pdbqt
 12 12 0 0 0
SMALL
GASTEIGER

@<TRIPOS>ATOM
      1  C          8.4190   -0.6280   -2.1450 C.3     1  UNL1        0.1270
      2  C          8.4620   -1.9010   -2.9030 C.2     1  UNL1        0.3030
      3  O          9.5440   -2.5090   -3.0940 O.2     1  UNL1       -0.2520
      4  O          7.3040   -2.4560   -3.4230 O.3     1  UNL1       -0.4810
      5  H          7.3660   -3.3130   -3.9810 H       1  UNL1        0.2960
      6  C          7.0040   -0.1380   -2.1260 C.3     1  UNL1        0.0470
      7  C          6.4620    0.0630   -0.7840 C.2     1  UNL1       -0.0470
      8  C          5.8220    1.2350   -0.4520 C.2     1  UNL1        0.0040
      9  C          6.5950   -0.9370    0.1510 C.2     1  UNL1        0.0040
     10  C          5.3280    1.3580    0.8490 C.2     1  UNL1        0.0000
     11  C          6.1070   -0.8140    1.4370 C.2     1  UNL1        0.0000
     12  C          5.4650    0.3570    1.7780 C.2     1  UNL1        0.0000
@<TRIPOS>BOND
     1     5     4    1
     2     4     2    1
     3     3     2    2
     4     2     1    1
     5     1     6    1
     6     6     7    1
     7     7     8    2
     8     7     9    1
     9     8    10    1
    10     9    11    2
    11    10    12    2
    12    11    12    1
