@<TRIPOS>MOLECULE
/home/cewinharhar/GITHUB/reincatalyze/data/processed/docking_pred/2023_Apr_20-15:07/d4c602a3745b48528a2ec664cc6a2c0711254731_ligand_2.pdbqt
 12 12 0 0 0
SMALL
GASTEIGER

@<TRIPOS>ATOM
      1  C          8.4500   -0.6180   -2.1580 C.3     1  UNL1        0.1270
      2  C          8.4820   -1.8980   -2.9040 C.2     1  UNL1        0.3030
      3  O          9.5590   -2.5160   -3.0910 O.2     1  UNL1       -0.2520
      4  O          7.3190   -2.4500   -3.4170 O.3     1  UNL1       -0.4810
      5  H          6.8200   -1.9600   -4.1650 H       1  UNL1        0.2960
      6  C          7.0350   -0.1260   -2.1280 C.3     1  UNL1        0.0470
      7  C          6.4880    0.0300   -0.7810 C.2     1  UNL1       -0.0470
      8  C          6.6110   -0.9760    0.1480 C.2     1  UNL1        0.0040
      9  C          5.8470    1.2010   -0.4480 C.2     1  UNL1        0.0040
     10  C          6.0660   -0.7590    1.4160 C.2     1  UNL1        0.0000
     11  C          5.3080    1.4140    0.8050 C.2     1  UNL1        0.0000
     12  C          5.4260    0.4110    1.7420 C.2     1  UNL1        0.0000
@<TRIPOS>BOND
     1     5     4    1
     2     4     2    1
     3     3     2    2
     4     2     1    1
     5     1     6    1
     6     6     7    1
     7     7     9    2
     8     7     8    1
     9     9    11    1
    10     8    10    2
    11    11    12    2
    12    10    12    1
