@<TRIPOS>MOLECULE
/home/cewinharhar/GITHUB/reincatalyze/data/processed/docking_pred/2023_Apr_20-15:07/d4c602a3745b48528a2ec664cc6a2c0711254731_ligand_2.pdbqt
 12 12 0 0 0
SMALL
GASTEIGER

@<TRIPOS>ATOM
      1  C          8.1610   -1.5240    1.1320 C.3     1  UNL1        0.1270
      2  C          8.4730   -2.7360    0.3380 C.2     1  UNL1        0.3030
      3  O          9.1300   -3.6860    0.8320 O.2     1  UNL1       -0.2520
      4  O          8.0460   -2.8540   -0.9750 O.3     1  UNL1       -0.4810
      5  H          8.7370   -2.8300   -1.7300 H       1  UNL1        0.2960
      6  C          6.6730   -1.4150    1.2600 C.3     1  UNL1        0.0470
      7  C          6.1250   -0.1500    0.7740 C.2     1  UNL1       -0.0470
      8  C          5.3630    0.6480    1.5950 C.2     1  UNL1        0.0040
      9  C          6.3810    0.2390   -0.5200 C.2     1  UNL1        0.0040
     10  C          4.8730    1.8440    1.0650 C.2     1  UNL1        0.0000
     11  C          5.8960    1.4210   -1.0430 C.2     1  UNL1        0.0000
     12  C          5.1310    2.2270   -0.2270 C.2     1  UNL1        0.0000
@<TRIPOS>BOND
     1     5     4    1
     2    11     9    1
     3    11    12    2
     4     4     2    1
     5     9     7    2
     6    12    10    1
     7     2     3    2
     8     2     1    1
     9     7     6    1
    10     7     8    1
    11    10     8    2
    12     1     6    1
