@<TRIPOS>MOLECULE
/home/cewinharhar/GITHUB/reincatalyze/data/processed/docking_pred/2023_Apr_20-15:07/d4c602a3745b48528a2ec664cc6a2c0711254731_ligand_2.pdbqt
 12 12 0 0 0
SMALL
GASTEIGER

@<TRIPOS>ATOM
      1  C          8.2580    0.1200   -2.1520 C.3     1  UNL1        0.1270
      2  C          9.3850    0.3110   -1.2090 C.2     1  UNL1        0.3030
      3  O          9.4890   -0.3870   -0.1700 O.2     1  UNL1       -0.2520
      4  O         10.3580    1.2680   -1.4490 O.3     1  UNL1       -0.4810
      5  H         11.3420    1.0300   -1.2980 H       1  UNL1        0.2960
      6  C          7.1690   -0.6240   -1.4400 C.3     1  UNL1        0.0470
      7  C          6.3740    0.2060   -0.5370 C.2     1  UNL1       -0.0470
      8  C          6.1210   -0.2020    0.7520 C.2     1  UNL1        0.0040
      9  C          5.8800    1.4080   -0.9890 C.2     1  UNL1        0.0040
     10  C          5.3550    0.6420    1.5600 C.2     1  UNL1        0.0000
     11  C          5.1230    2.2400   -0.1890 C.2     1  UNL1        0.0000
     12  C          4.8640    1.8390    1.1040 C.2     1  UNL1        0.0000
@<TRIPOS>BOND
     1     1     6    1
     2     1     2    1
     3     4     5    1
     4     4     2    1
     5     6     7    1
     6     2     3    2
     7     9     7    2
     8     9    11    1
     9     7     8    1
    10    11    12    2
    11     8    10    2
    12    12    10    1
