MODEL 1
REMARK VINA RESULT:      -7.4      0.000      0.000
REMARK SMILES O=C(O)CCc1ccccc1
REMARK SMILES IDX 4 1 2 2 1 3 3 4 5 6 6 7 7 8 11 9 8 10 10 11 9 12
REMARK H PARENT 3 5
REMARK Flexibility Score: inf
ROOT
ATOM      1  C   UNL     1       8.450  -0.618  -2.158  1.00  0.00     0.127 C 
ENDROOT
BRANCH   1   2
ATOM      2  C   UNL     1       8.482  -1.898  -2.904  1.00  0.00     0.303 C 
ATOM      3  O   UNL     1       9.559  -2.516  -3.091  1.00  0.00    -0.252 OA
BRANCH   2   4
ATOM      4  O   UNL     1       7.319  -2.450  -3.417  1.00  0.00    -0.481 OA
ATOM      5  H   UNL     1       6.820  -1.960  -4.165  1.00  0.00     0.296 HD
ENDBRANCH   2   4
ENDBRANCH   1   2
BRANCH   1   6
ATOM      6  C   UNL     1       7.035  -0.126  -2.128  1.00  0.00     0.047 C 
BRANCH   6   7
ATOM      7  C   UNL     1       6.488   0.030  -0.781  1.00  0.00    -0.047 A 
ATOM      8  C   UNL     1       6.611  -0.976   0.148  1.00  0.00     0.004 A 
ATOM      9  C   UNL     1       5.847   1.201  -0.448  1.00  0.00     0.004 A 
ATOM     10  C   UNL     1       6.066  -0.759   1.416  1.00  0.00     0.000 A 
ATOM     11  C   UNL     1       5.308   1.414   0.805  1.00  0.00     0.000 A 
ATOM     12  C   UNL     1       5.426   0.411   1.742  1.00  0.00     0.000 A 
ENDBRANCH   6   7
ENDBRANCH   1   6
TORSDOF 4
ENDMDL
MODEL 2
REMARK VINA RESULT:      -7.3      0.048      1.437
REMARK SMILES O=C(O)CCc1ccccc1
REMARK SMILES IDX 4 1 2 2 1 3 3 4 5 6 6 7 7 8 11 9 8 10 10 11 9 12
REMARK H PARENT 3 5
REMARK Flexibility Score: inf
ROOT
ATOM      1  C   UNL     1       8.419  -0.628  -2.145  1.00  0.00     0.127 C 
ENDROOT
BRANCH   1   2
ATOM      2  C   UNL     1       8.462  -1.901  -2.903  1.00  0.00     0.303 C 
ATOM      3  O   UNL     1       9.544  -2.509  -3.094  1.00  0.00    -0.252 OA
BRANCH   2   4
ATOM      4  O   UNL     1       7.304  -2.456  -3.423  1.00  0.00    -0.481 OA
ATOM      5  H   UNL     1       7.366  -3.313  -3.981  1.00  0.00     0.296 HD
ENDBRANCH   2   4
ENDBRANCH   1   2
BRANCH   1   6
ATOM      6  C   UNL     1       7.004  -0.138  -2.126  1.00  0.00     0.047 C 
BRANCH   6   7
ATOM      7  C   UNL     1       6.462   0.063  -0.784  1.00  0.00    -0.047 A 
ATOM      8  C   UNL     1       5.822   1.235  -0.452  1.00  0.00     0.004 A 
ATOM      9  C   UNL     1       6.595  -0.937   0.151  1.00  0.00     0.004 A 
ATOM     10  C   UNL     1       5.328   1.358   0.849  1.00  0.00     0.000 A 
ATOM     11  C   UNL     1       6.107  -0.814   1.437  1.00  0.00     0.000 A 
ATOM     12  C   UNL     1       5.465   0.357   1.778  1.00  0.00     0.000 A 
ENDBRANCH   6   7
ENDBRANCH   1   6
TORSDOF 4
ENDMDL
MODEL 3
REMARK VINA RESULT:      -6.7      3.338      5.047
REMARK SMILES O=C(O)CCc1ccccc1
REMARK SMILES IDX 4 1 2 2 1 3 3 4 5 6 6 7 7 8 11 9 8 10 10 11 9 12
REMARK H PARENT 3 5
REMARK Flexibility Score: inf
ROOT
ATOM      1  C   UNL     1       5.086   1.720   0.707  1.00  0.00     0.127 C 
ENDROOT
BRANCH   1   2
ATOM      2  C   UNL     1       4.595   1.028   1.922  1.00  0.00     0.303 C 
ATOM      3  O   UNL     1       5.283   0.142   2.488  1.00  0.00    -0.252 OA
BRANCH   2   4
ATOM      4  O   UNL     1       3.360   1.340   2.467  1.00  0.00    -0.481 OA
ATOM      5  H   UNL     1       3.051   2.315   2.481  1.00  0.00     0.296 HD
ENDBRANCH   2   4
ENDBRANCH   1   2
BRANCH   1   6
ATOM      6  C   UNL     1       6.584   1.721   0.738  1.00  0.00     0.047 C 
BRANCH   6   7
ATOM      7  C   UNL     1       7.202   0.975  -0.357  1.00  0.00    -0.047 A 
ATOM      8  C   UNL     1       8.509   1.207  -0.716  1.00  0.00     0.004 A 
ATOM      9  C   UNL     1       6.460   0.031  -1.028  1.00  0.00     0.004 A 
ATOM     10  C   UNL     1       9.034   0.457  -1.771  1.00  0.00     0.000 A 
ATOM     11  C   UNL     1       6.981  -0.710  -2.071  1.00  0.00     0.000 A 
ATOM     12  C   UNL     1       8.290  -0.483  -2.438  1.00  0.00     0.000 A 
ENDBRANCH   6   7
ENDBRANCH   1   6
TORSDOF 4
ENDMDL
MODEL 4
REMARK VINA RESULT:      -6.7      1.944      2.306
REMARK SMILES O=C(O)CCc1ccccc1
REMARK SMILES IDX 4 1 2 2 1 3 3 4 5 6 6 7 7 8 11 9 8 10 10 11 9 12
REMARK H PARENT 3 5
REMARK Flexibility Score: inf
ROOT
ATOM      1  C   UNL     1       8.258   0.120  -2.152  1.00  0.00     0.127 C 
ENDROOT
BRANCH   1   2
ATOM      2  C   UNL     1       9.385   0.311  -1.209  1.00  0.00     0.303 C 
ATOM      3  O   UNL     1       9.489  -0.387  -0.170  1.00  0.00    -0.252 OA
BRANCH   2   4
ATOM      4  O   UNL     1      10.358   1.268  -1.449  1.00  0.00    -0.481 OA
ATOM      5  H   UNL     1      11.342   1.030  -1.298  1.00  0.00     0.296 HD
ENDBRANCH   2   4
ENDBRANCH   1   2
BRANCH   1   6
ATOM      6  C   UNL     1       7.169  -0.624  -1.440  1.00  0.00     0.047 C 
BRANCH   6   7
ATOM      7  C   UNL     1       6.374   0.206  -0.537  1.00  0.00    -0.047 A 
ATOM      8  C   UNL     1       6.121  -0.202   0.752  1.00  0.00     0.004 A 
ATOM      9  C   UNL     1       5.880   1.408  -0.989  1.00  0.00     0.004 A 
ATOM     10  C   UNL     1       5.355   0.642   1.560  1.00  0.00     0.000 A 
ATOM     11  C   UNL     1       5.123   2.240  -0.189  1.00  0.00     0.000 A 
ATOM     12  C   UNL     1       4.864   1.839   1.104  1.00  0.00     0.000 A 
ENDBRANCH   6   7
ENDBRANCH   1   6
TORSDOF 4
ENDMDL
MODEL 5
REMARK VINA RESULT:      -6.6      1.877      2.848
REMARK SMILES O=C(O)CCc1ccccc1
REMARK SMILES IDX 4 1 2 2 1 3 3 4 5 6 6 7 7 8 11 9 8 10 10 11 9 12
REMARK H PARENT 3 5
REMARK Flexibility Score: inf
ROOT
ATOM      1  C   UNL     1       8.161  -1.524   1.132  1.00  0.00     0.127 C 
ENDROOT
BRANCH   1   2
ATOM      2  C   UNL     1       8.473  -2.736   0.338  1.00  0.00     0.303 C 
ATOM      3  O   UNL     1       9.130  -3.686   0.832  1.00  0.00    -0.252 OA
BRANCH   2   4
ATOM      4  O   UNL     1       8.046  -2.854  -0.975  1.00  0.00    -0.481 OA
ATOM      5  H   UNL     1       8.737  -2.830  -1.730  1.00  0.00     0.296 HD
ENDBRANCH   2   4
ENDBRANCH   1   2
BRANCH   1   6
ATOM      6  C   UNL     1       6.673  -1.415   1.260  1.00  0.00     0.047 C 
BRANCH   6   7
ATOM      7  C   UNL     1       6.125  -0.150   0.774  1.00  0.00    -0.047 A 
ATOM      8  C   UNL     1       5.363   0.648   1.595  1.00  0.00     0.004 A 
ATOM      9  C   UNL     1       6.381   0.239  -0.520  1.00  0.00     0.004 A 
ATOM     10  C   UNL     1       4.873   1.844   1.065  1.00  0.00     0.000 A 
ATOM     11  C   UNL     1       5.896   1.421  -1.043  1.00  0.00     0.000 A 
ATOM     12  C   UNL     1       5.131   2.227  -0.227  1.00  0.00     0.000 A 
ENDBRANCH   6   7
ENDBRANCH   1   6
TORSDOF 4
ENDMDL
