@<TRIPOS>MOLECULE
/home/cewinharhar/GITHUB/reincatalyze/data/processed/docking_pred/2023_Apr_20-15:07/d68da6ca94917019a71bc3feefe4e6b6d631e6ad_ligand_2.pdbqt
 12 12 0 0 0
SMALL
GASTEIGER

@<TRIPOS>ATOM
      1  C          5.0280    1.6640    0.6640 C.3     1  UNL1        0.1270
      2  C          4.6200    1.0110    1.9300 C.2     1  UNL1        0.3030
      3  O          5.3730    0.1900    2.5110 O.2     1  UNL1       -0.2520
      4  O          3.3920    1.2890    2.5090 O.3     1  UNL1       -0.4810
      5  H          2.7700    0.5160    2.7580 H       1  UNL1        0.2960
      6  C          6.5210    1.7890    0.6580 C.3     1  UNL1        0.0470
      7  C          7.1780    1.0210   -0.3980 C.2     1  UNL1       -0.0470
      8  C          8.5250    1.1640   -0.6390 C.2     1  UNL1        0.0040
      9  C          6.4320    0.1460   -1.1540 C.2     1  UNL1        0.0040
     10  C          9.0850    0.3980   -1.6640 C.2     1  UNL1        0.0000
     11  C          6.9880   -0.6100   -2.1670 C.2     1  UNL1        0.0000
     12  C          8.3370   -0.4720   -2.4150 C.2     1  UNL1        0.0000
@<TRIPOS>BOND
     1    12    11    2
     2    12    10    1
     3    11     9    1
     4    10     8    2
     5     9     7    2
     6     8     7    1
     7     7     6    1
     8     6     1    1
     9     1     2    1
    10     2     4    1
    11     2     3    2
    12     4     5    1
