@<TRIPOS>MOLECULE
/home/cewinharhar/GITHUB/reincatalyze/data/processed/docking_pred/2023_Apr_20-15:07/d68da6ca94917019a71bc3feefe4e6b6d631e6ad_ligand_2.pdbqt
 12 12 0 0 0
SMALL
GASTEIGER

@<TRIPOS>ATOM
      1  C          8.3440   -0.3670   -2.1250 C.3     1  UNL1        0.1270
      2  C          8.4150   -1.6880   -2.7940 C.2     1  UNL1        0.3030
      3  O          7.3780   -2.2680   -3.2020 O.2     1  UNL1       -0.2520
      4  O          9.6320   -2.3220   -2.9870 O.3     1  UNL1       -0.4810
      5  H          9.8440   -2.7320   -3.9000 H       1  UNL1        0.2960
      6  C          6.9070    0.0490   -2.0580 C.3     1  UNL1        0.0470
      7  C          6.3860    0.1720   -0.6970 C.2     1  UNL1       -0.0470
      8  C          5.7610    1.3260   -0.2850 C.2     1  UNL1        0.0040
      9  C          6.5260   -0.8840    0.1730 C.2     1  UNL1        0.0040
     10  C          5.2880    1.3730    1.0280 C.2     1  UNL1        0.0000
     11  C          6.0580   -0.8360    1.4710 C.2     1  UNL1        0.0000
     12  C          5.4310    0.3170    1.8920 C.2     1  UNL1        0.0000
@<TRIPOS>BOND
     1     5     4    1
     2     3     2    2
     3     4     2    1
     4     2     1    1
     5     1     6    1
     6     6     7    1
     7     7     8    2
     8     7     9    1
     9     8    10    1
    10     9    11    2
    11    10    12    2
    12    11    12    1
