@<TRIPOS>MOLECULE
/home/cewinharhar/GITHUB/reincatalyze/data/processed/docking_pred/2023_Apr_20-15:07/d68da6ca94917019a71bc3feefe4e6b6d631e6ad_ligand_2.pdbqt
 12 12 0 0 0
SMALL
GASTEIGER

@<TRIPOS>ATOM
      1  C          8.4800   -0.8900   -2.0670 C.3     1  UNL1        0.1270
      2  C          8.5900   -2.0380   -2.9980 C.2     1  UNL1        0.3030
      3  O          7.5720   -2.5370   -3.5400 O.2     1  UNL1       -0.2520
      4  O          9.8230   -2.5940   -3.2970 O.3     1  UNL1       -0.4810
      5  H         10.0120   -3.5650   -3.0340 H       1  UNL1        0.2960
      6  C          7.0630   -0.4030   -2.0860 C.3     1  UNL1        0.0470
      7  C          6.5130   -0.1230   -0.7610 C.2     1  UNL1       -0.0470
      8  C          6.6210   -1.0450    0.2540 C.2     1  UNL1        0.0040
      9  C          5.8840    1.0800   -0.5360 C.2     1  UNL1        0.0040
     10  C          6.0730   -0.7100    1.4950 C.2     1  UNL1        0.0000
     11  C          5.3430    1.4090    0.6910 C.2     1  UNL1        0.0000
     12  C          5.4460    0.4910    1.7140 C.2     1  UNL1        0.0000
@<TRIPOS>BOND
     1     3     2    2
     2     4     5    1
     3     4     2    1
     4     2     1    1
     5     6     1    1
     6     6     7    1
     7     7     9    2
     8     7     8    1
     9     9    11    1
    10     8    10    2
    11    11    12    2
    12    10    12    1
