@<TRIPOS>MOLECULE
/home/cewinharhar/GITHUB/reincatalyze/data/processed/docking_pred/2023_Apr_20-15:07/d68da6ca94917019a71bc3feefe4e6b6d631e6ad_ligand_2.pdbqt
 12 12 0 0 0
SMALL
GASTEIGER

@<TRIPOS>ATOM
      1  C          7.9830   -0.7900   -2.2400 C.3     1  UNL1        0.1270
      2  C          8.4140   -1.9690   -3.0280 C.2     1  UNL1        0.3030
      3  O          9.6140   -2.3370   -3.0460 O.2     1  UNL1       -0.2520
      4  O          7.4990   -2.6990   -3.7700 O.3     1  UNL1       -0.4810
      5  H          7.8140   -3.1860   -4.6140 H       1  UNL1        0.2960
      6  C          7.2620   -1.2770   -1.0200 C.3     1  UNL1        0.0470
      7  C          6.4940   -0.2420   -0.3310 C.2     1  UNL1       -0.0470
      8  C          6.1310    0.9150   -0.9810 C.2     1  UNL1        0.0040
      9  C          6.1340   -0.4360    0.9830 C.2     1  UNL1        0.0040
     10  C          5.3970    1.8600   -0.2600 C.2     1  UNL1        0.0000
     11  C          5.4090    0.5000    1.6930 C.2     1  UNL1        0.0000
     12  C          5.0410    1.6610    1.0500 C.2     1  UNL1        0.0000
@<TRIPOS>BOND
     1     5     4    1
     2     4     2    1
     3     3     2    2
     4     2     1    1
     5     1     6    1
     6     6     7    1
     7     8     7    2
     8     8    10    1
     9     7     9    1
    10    10    12    2
    11     9    11    2
    12    12    11    1
