MODEL 1
REMARK VINA RESULT:      -6.7      0.000      0.000
REMARK SMILES O=C(O)CCc1ccccc1
REMARK SMILES IDX 4 1 2 2 1 3 3 4 5 6 6 7 7 8 11 9 8 10 10 11 9 12
REMARK H PARENT 3 5
REMARK Flexibility Score: inf
ROOT
ATOM      1  C   UNL     1       5.012   1.786   0.716  1.00  0.00     0.127 C 
ENDROOT
BRANCH   1   2
ATOM      2  C   UNL     1       4.485   1.105   1.922  1.00  0.00     0.303 C 
ATOM      3  O   UNL     1       5.136   0.194   2.492  1.00  0.00    -0.252 OA
BRANCH   2   4
ATOM      4  O   UNL     1       3.256   1.456   2.456  1.00  0.00    -0.481 OA
ATOM      5  H   UNL     1       2.514   0.752   2.510  1.00  0.00     0.296 HD
ENDBRANCH   2   4
ENDBRANCH   1   2
BRANCH   1   6
ATOM      6  C   UNL     1       6.509   1.745   0.768  1.00  0.00     0.047 C 
BRANCH   6   7
ATOM      7  C   UNL     1       7.121   0.994  -0.327  1.00  0.00    -0.047 A 
ATOM      8  C   UNL     1       6.391   0.075  -1.044  1.00  0.00     0.004 A 
ATOM      9  C   UNL     1       8.442   1.219  -0.638  1.00  0.00     0.004 A 
ATOM     10  C   UNL     1       7.041  -0.604  -2.078  1.00  0.00     0.000 A 
ATOM     11  C   UNL     1       9.083   0.546  -1.660  1.00  0.00     0.000 A 
ATOM     12  C   UNL     1       8.359  -0.377  -2.383  1.00  0.00     0.000 A 
ENDBRANCH   6   7
ENDBRANCH   1   6
TORSDOF 4
ENDMDL
MODEL 2
REMARK VINA RESULT:      -6.7      3.279      5.097
REMARK SMILES O=C(O)CCc1ccccc1
REMARK SMILES IDX 4 1 2 2 1 3 3 4 5 6 6 7 7 8 11 9 8 10 10 11 9 12
REMARK H PARENT 3 5
REMARK Flexibility Score: inf
ROOT
ATOM      1  C   UNL     1       8.344  -0.367  -2.125  1.00  0.00     0.127 C 
ENDROOT
BRANCH   1   2
ATOM      2  C   UNL     1       8.415  -1.688  -2.794  1.00  0.00     0.303 C 
ATOM      3  O   UNL     1       7.378  -2.268  -3.202  1.00  0.00    -0.252 OA
BRANCH   2   4
ATOM      4  O   UNL     1       9.632  -2.322  -2.987  1.00  0.00    -0.481 OA
ATOM      5  H   UNL     1       9.844  -2.732  -3.900  1.00  0.00     0.296 HD
ENDBRANCH   2   4
ENDBRANCH   1   2
BRANCH   1   6
ATOM      6  C   UNL     1       6.907   0.049  -2.058  1.00  0.00     0.047 C 
BRANCH   6   7
ATOM      7  C   UNL     1       6.386   0.172  -0.697  1.00  0.00    -0.047 A 
ATOM      8  C   UNL     1       5.761   1.326  -0.285  1.00  0.00     0.004 A 
ATOM      9  C   UNL     1       6.526  -0.884   0.173  1.00  0.00     0.004 A 
ATOM     10  C   UNL     1       5.288   1.373   1.028  1.00  0.00     0.000 A 
ATOM     11  C   UNL     1       6.058  -0.836   1.471  1.00  0.00     0.000 A 
ATOM     12  C   UNL     1       5.431   0.317   1.892  1.00  0.00     0.000 A 
ENDBRANCH   6   7
ENDBRANCH   1   6
TORSDOF 4
ENDMDL
MODEL 3
REMARK VINA RESULT:      -6.6      0.149      1.442
REMARK SMILES O=C(O)CCc1ccccc1
REMARK SMILES IDX 4 1 2 2 1 3 3 4 5 6 6 7 7 8 11 9 8 10 10 11 9 12
REMARK H PARENT 3 5
REMARK Flexibility Score: inf
ROOT
ATOM      1  C   UNL     1       5.028   1.664   0.664  1.00  0.00     0.127 C 
ENDROOT
BRANCH   1   2
ATOM      2  C   UNL     1       4.620   1.011   1.930  1.00  0.00     0.303 C 
ATOM      3  O   UNL     1       5.373   0.190   2.511  1.00  0.00    -0.252 OA
BRANCH   2   4
ATOM      4  O   UNL     1       3.392   1.289   2.509  1.00  0.00    -0.481 OA
ATOM      5  H   UNL     1       2.770   0.516   2.758  1.00  0.00     0.296 HD
ENDBRANCH   2   4
ENDBRANCH   1   2
BRANCH   1   6
ATOM      6  C   UNL     1       6.521   1.789   0.658  1.00  0.00     0.047 C 
BRANCH   6   7
ATOM      7  C   UNL     1       7.178   1.021  -0.398  1.00  0.00    -0.047 A 
ATOM      8  C   UNL     1       8.525   1.164  -0.639  1.00  0.00     0.004 A 
ATOM      9  C   UNL     1       6.432   0.146  -1.154  1.00  0.00     0.004 A 
ATOM     10  C   UNL     1       9.085   0.398  -1.664  1.00  0.00     0.000 A 
ATOM     11  C   UNL     1       6.988  -0.610  -2.167  1.00  0.00     0.000 A 
ATOM     12  C   UNL     1       8.337  -0.472  -2.415  1.00  0.00     0.000 A 
ENDBRANCH   6   7
ENDBRANCH   1   6
TORSDOF 4
ENDMDL
MODEL 4
REMARK VINA RESULT:      -6.6      3.485      5.263
REMARK SMILES O=C(O)CCc1ccccc1
REMARK SMILES IDX 4 1 2 2 1 3 3 4 5 6 6 7 7 8 11 9 8 10 10 11 9 12
REMARK H PARENT 3 5
REMARK Flexibility Score: inf
ROOT
ATOM      1  C   UNL     1       8.480  -0.890  -2.067  1.00  0.00     0.127 C 
ENDROOT
BRANCH   1   2
ATOM      2  C   UNL     1       8.590  -2.038  -2.998  1.00  0.00     0.303 C 
ATOM      3  O   UNL     1       7.572  -2.537  -3.540  1.00  0.00    -0.252 OA
BRANCH   2   4
ATOM      4  O   UNL     1       9.823  -2.594  -3.297  1.00  0.00    -0.481 OA
ATOM      5  H   UNL     1      10.012  -3.565  -3.034  1.00  0.00     0.296 HD
ENDBRANCH   2   4
ENDBRANCH   1   2
BRANCH   1   6
ATOM      6  C   UNL     1       7.063  -0.403  -2.086  1.00  0.00     0.047 C 
BRANCH   6   7
ATOM      7  C   UNL     1       6.513  -0.123  -0.761  1.00  0.00    -0.047 A 
ATOM      8  C   UNL     1       6.621  -1.045   0.254  1.00  0.00     0.004 A 
ATOM      9  C   UNL     1       5.884   1.080  -0.536  1.00  0.00     0.004 A 
ATOM     10  C   UNL     1       6.073  -0.710   1.495  1.00  0.00     0.000 A 
ATOM     11  C   UNL     1       5.343   1.409   0.691  1.00  0.00     0.000 A 
ATOM     12  C   UNL     1       5.446   0.491   1.714  1.00  0.00     0.000 A 
ENDBRANCH   6   7
ENDBRANCH   1   6
TORSDOF 4
ENDMDL
MODEL 5
REMARK VINA RESULT:      -6.6      3.606      5.177
REMARK SMILES O=C(O)CCc1ccccc1
REMARK SMILES IDX 4 1 2 2 1 3 3 4 5 6 6 7 7 8 11 9 8 10 10 11 9 12
REMARK H PARENT 3 5
REMARK Flexibility Score: inf
ROOT
ATOM      1  C   UNL     1       7.983  -0.790  -2.240  1.00  0.00     0.127 C 
ENDROOT
BRANCH   1   2
ATOM      2  C   UNL     1       8.414  -1.969  -3.028  1.00  0.00     0.303 C 
ATOM      3  O   UNL     1       9.614  -2.337  -3.046  1.00  0.00    -0.252 OA
BRANCH   2   4
ATOM      4  O   UNL     1       7.499  -2.699  -3.770  1.00  0.00    -0.481 OA
ATOM      5  H   UNL     1       7.814  -3.186  -4.614  1.00  0.00     0.296 HD
ENDBRANCH   2   4
ENDBRANCH   1   2
BRANCH   1   6
ATOM      6  C   UNL     1       7.262  -1.277  -1.020  1.00  0.00     0.047 C 
BRANCH   6   7
ATOM      7  C   UNL     1       6.494  -0.242  -0.331  1.00  0.00    -0.047 A 
ATOM      8  C   UNL     1       6.131   0.915  -0.981  1.00  0.00     0.004 A 
ATOM      9  C   UNL     1       6.134  -0.436   0.983  1.00  0.00     0.004 A 
ATOM     10  C   UNL     1       5.397   1.860  -0.260  1.00  0.00     0.000 A 
ATOM     11  C   UNL     1       5.409   0.500   1.693  1.00  0.00     0.000 A 
ATOM     12  C   UNL     1       5.041   1.661   1.050  1.00  0.00     0.000 A 
ENDBRANCH   6   7
ENDBRANCH   1   6
TORSDOF 4
ENDMDL
