@<TRIPOS>MOLECULE
/home/cewinharhar/GITHUB/reincatalyze/data/processed/docking_pred/2023_Apr_20-15:07/d68da6ca94917019a71bc3feefe4e6b6d631e6ad_ligand_2.pdbqt
 12 12 0 0 0
SMALL
GASTEIGER

@<TRIPOS>ATOM
      1  C          5.0120    1.7860    0.7160 C.3     1  UNL1        0.1270
      2  C          4.4850    1.1050    1.9220 C.2     1  UNL1        0.3030
      3  O          5.1360    0.1940    2.4920 O.2     1  UNL1       -0.2520
      4  O          3.2560    1.4560    2.4560 O.3     1  UNL1       -0.4810
      5  H          2.5140    0.7520    2.5100 H       1  UNL1        0.2960
      6  C          6.5090    1.7450    0.7680 C.3     1  UNL1        0.0470
      7  C          7.1210    0.9940   -0.3270 C.2     1  UNL1       -0.0470
      8  C          6.3910    0.0750   -1.0440 C.2     1  UNL1        0.0040
      9  C          8.4420    1.2190   -0.6380 C.2     1  UNL1        0.0040
     10  C          7.0410   -0.6040   -2.0780 C.2     1  UNL1        0.0000
     11  C          9.0830    0.5460   -1.6600 C.2     1  UNL1        0.0000
     12  C          8.3590   -0.3770   -2.3830 C.2     1  UNL1        0.0000
@<TRIPOS>BOND
     1    12    10    2
     2    12    11    1
     3    10     8    1
     4    11     9    2
     5     8     7    2
     6     9     7    1
     7     7     6    1
     8     1     6    1
     9     1     2    1
    10     2     4    1
    11     2     3    2
    12     4     5    1
