@<TRIPOS>MOLECULE
/home/cewinharhar/GITHUB/reincatalyze/data/processed/docking_pred/2023_Apr_20-15:07/d6fa7c89c21ca11aa73af88b15ecc664e93337c3_ligand_2.pdbqt
 12 12 0 0 0
SMALL
GASTEIGER

@<TRIPOS>ATOM
      1  C          8.3580    0.3300   -2.0320 C.3     1  UNL1        0.1270
      2  C          9.4910    0.3910   -1.0790 C.2     1  UNL1        0.3030
      3  O          9.5430   -0.3690   -0.0800 O.2     1  UNL1       -0.2520
      4  O         10.5270    1.2920   -1.2650 O.3     1  UNL1       -0.4810
      5  H         11.0580    1.2720   -2.1400 H       1  UNL1        0.2960
      6  C          7.2740   -0.5050   -1.4210 C.3     1  UNL1        0.0470
      7  C          6.4310    0.2180   -0.4700 C.2     1  UNL1       -0.0470
      8  C          6.1940   -0.2880    0.7860 C.2     1  UNL1        0.0040
      9  C          5.8740    1.4200   -0.8450 C.2     1  UNL1        0.0040
     10  C          5.3800    0.4560    1.6430 C.2     1  UNL1        0.0000
     11  C          5.0690    2.1540    0.0030 C.2     1  UNL1        0.0000
     12  C          4.8260    1.6530    1.2630 C.2     1  UNL1        0.0000
@<TRIPOS>BOND
     1     5     4    1
     2     1     6    1
     3     1     2    1
     4     6     7    1
     5     4     2    1
     6     2     3    2
     7     9     7    2
     8     9    11    1
     9     7     8    1
    10    11    12    2
    11     8    10    2
    12    12    10    1
