MODEL 1
REMARK VINA RESULT:      -7.4      0.000      0.000
REMARK SMILES O=C(O)CCc1ccccc1
REMARK SMILES IDX 4 1 2 2 1 3 3 4 5 6 6 7 7 8 11 9 8 10 10 11 9 12
REMARK H PARENT 3 5
REMARK Flexibility Score: inf
ROOT
ATOM      1  C   UNL     1       8.486  -0.604  -2.183  1.00  0.00     0.127 C 
ENDROOT
BRANCH   1   2
ATOM      2  C   UNL     1       8.494  -1.898  -2.905  1.00  0.00     0.303 C 
ATOM      3  O   UNL     1       9.562  -2.532  -3.092  1.00  0.00    -0.252 OA
BRANCH   2   4
ATOM      4  O   UNL     1       7.320  -2.445  -3.395  1.00  0.00    -0.481 OA
ATOM      5  H   UNL     1       7.272  -3.452  -3.572  1.00  0.00     0.296 HD
ENDBRANCH   2   4
ENDBRANCH   1   2
BRANCH   1   6
ATOM      6  C   UNL     1       7.080  -0.086  -2.161  1.00  0.00     0.047 C 
BRANCH   6   7
ATOM      7  C   UNL     1       6.521   0.060  -0.818  1.00  0.00    -0.047 A 
ATOM      8  C   UNL     1       6.660  -0.942   0.115  1.00  0.00     0.004 A 
ATOM      9  C   UNL     1       5.853   1.217  -0.491  1.00  0.00     0.004 A 
ATOM     10  C   UNL     1       6.102  -0.734   1.378  1.00  0.00     0.000 A 
ATOM     11  C   UNL     1       5.301   1.421   0.758  1.00  0.00     0.000 A 
ATOM     12  C   UNL     1       5.435   0.422   1.698  1.00  0.00     0.000 A 
ENDBRANCH   6   7
ENDBRANCH   1   6
TORSDOF 4
ENDMDL
MODEL 2
REMARK VINA RESULT:      -7.3      0.110      1.440
REMARK SMILES O=C(O)CCc1ccccc1
REMARK SMILES IDX 4 1 2 2 1 3 3 4 5 6 6 7 7 8 11 9 8 10 10 11 9 12
REMARK H PARENT 3 5
REMARK Flexibility Score: inf
ROOT
ATOM      1  C   UNL     1       8.395  -0.600  -2.147  1.00  0.00     0.127 C 
ENDROOT
BRANCH   1   2
ATOM      2  C   UNL     1       8.452  -1.877  -2.897  1.00  0.00     0.303 C 
ATOM      3  O   UNL     1       9.543  -2.468  -3.094  1.00  0.00    -0.252 OA
BRANCH   2   4
ATOM      4  O   UNL     1       7.299  -2.455  -3.402  1.00  0.00    -0.481 OA
ATOM      5  H   UNL     1       6.437  -1.904  -3.442  1.00  0.00     0.296 HD
ENDBRANCH   2   4
ENDBRANCH   1   2
BRANCH   1   6
ATOM      6  C   UNL     1       6.970  -0.139  -2.110  1.00  0.00     0.047 C 
BRANCH   6   7
ATOM      7  C   UNL     1       6.441   0.051  -0.761  1.00  0.00    -0.047 A 
ATOM      8  C   UNL     1       5.816   1.224  -0.408  1.00  0.00     0.004 A 
ATOM      9  C   UNL     1       6.574  -0.963   0.160  1.00  0.00     0.004 A 
ATOM     10  C   UNL     1       5.334   1.335   0.898  1.00  0.00     0.000 A 
ATOM     11  C   UNL     1       6.097  -0.851   1.452  1.00  0.00     0.000 A 
ATOM     12  C   UNL     1       5.470   0.321   1.813  1.00  0.00     0.000 A 
ENDBRANCH   6   7
ENDBRANCH   1   6
TORSDOF 4
ENDMDL
MODEL 3
REMARK VINA RESULT:      -6.8      3.367      5.054
REMARK SMILES O=C(O)CCc1ccccc1
REMARK SMILES IDX 4 1 2 2 1 3 3 4 5 6 6 7 7 8 11 9 8 10 10 11 9 12
REMARK H PARENT 3 5
REMARK Flexibility Score: inf
ROOT
ATOM      1  C   UNL     1       5.004   1.767   0.716  1.00  0.00     0.127 C 
ENDROOT
BRANCH   1   2
ATOM      2  C   UNL     1       4.470   1.097   1.925  1.00  0.00     0.303 C 
ATOM      3  O   UNL     1       5.106   0.176   2.494  1.00  0.00    -0.252 OA
BRANCH   2   4
ATOM      4  O   UNL     1       3.247   1.469   2.461  1.00  0.00    -0.481 OA
ATOM      5  H   UNL     1       2.751   0.818   3.076  1.00  0.00     0.296 HD
ENDBRANCH   2   4
ENDBRANCH   1   2
BRANCH   1   6
ATOM      6  C   UNL     1       6.501   1.717   0.774  1.00  0.00     0.047 C 
BRANCH   6   7
ATOM      7  C   UNL     1       7.113   0.969  -0.323  1.00  0.00    -0.047 A 
ATOM      8  C   UNL     1       6.400   0.009  -1.003  1.00  0.00     0.004 A 
ATOM      9  C   UNL     1       8.416   1.236  -0.673  1.00  0.00     0.004 A 
ATOM     10  C   UNL     1       7.048  -0.666  -2.040  1.00  0.00     0.000 A 
ATOM     11  C   UNL     1       9.055   0.568  -1.698  1.00  0.00     0.000 A 
ATOM     12  C   UNL     1       8.349  -0.396  -2.384  1.00  0.00     0.000 A 
ENDBRANCH   6   7
ENDBRANCH   1   6
TORSDOF 4
ENDMDL
MODEL 4
REMARK VINA RESULT:      -6.6      1.996      2.344
REMARK SMILES O=C(O)CCc1ccccc1
REMARK SMILES IDX 4 1 2 2 1 3 3 4 5 6 6 7 7 8 11 9 8 10 10 11 9 12
REMARK H PARENT 3 5
REMARK Flexibility Score: inf
ROOT
ATOM      1  C   UNL     1       8.358   0.330  -2.032  1.00  0.00     0.127 C 
ENDROOT
BRANCH   1   2
ATOM      2  C   UNL     1       9.491   0.391  -1.079  1.00  0.00     0.303 C 
ATOM      3  O   UNL     1       9.543  -0.369  -0.080  1.00  0.00    -0.252 OA
BRANCH   2   4
ATOM      4  O   UNL     1      10.527   1.292  -1.265  1.00  0.00    -0.481 OA
ATOM      5  H   UNL     1      11.058   1.272  -2.140  1.00  0.00     0.296 HD
ENDBRANCH   2   4
ENDBRANCH   1   2
BRANCH   1   6
ATOM      6  C   UNL     1       7.274  -0.505  -1.421  1.00  0.00     0.047 C 
BRANCH   6   7
ATOM      7  C   UNL     1       6.431   0.218  -0.470  1.00  0.00    -0.047 A 
ATOM      8  C   UNL     1       6.194  -0.288   0.786  1.00  0.00     0.004 A 
ATOM      9  C   UNL     1       5.874   1.420  -0.845  1.00  0.00     0.004 A 
ATOM     10  C   UNL     1       5.380   0.456   1.643  1.00  0.00     0.000 A 
ATOM     11  C   UNL     1       5.069   2.154   0.003  1.00  0.00     0.000 A 
ATOM     12  C   UNL     1       4.826   1.653   1.263  1.00  0.00     0.000 A 
ENDBRANCH   6   7
ENDBRANCH   1   6
TORSDOF 4
ENDMDL
MODEL 5
REMARK VINA RESULT:      -6.6      1.879      2.861
REMARK SMILES O=C(O)CCc1ccccc1
REMARK SMILES IDX 4 1 2 2 1 3 3 4 5 6 6 7 7 8 11 9 8 10 10 11 9 12
REMARK H PARENT 3 5
REMARK Flexibility Score: inf
ROOT
ATOM      1  C   UNL     1       8.153  -1.579   1.156  1.00  0.00     0.127 C 
ENDROOT
BRANCH   1   2
ATOM      2  C   UNL     1       8.474  -2.783   0.353  1.00  0.00     0.303 C 
ATOM      3  O   UNL     1       9.134  -3.733   0.840  1.00  0.00    -0.252 OA
BRANCH   2   4
ATOM      4  O   UNL     1       8.052  -2.891  -0.963  1.00  0.00    -0.481 OA
ATOM      5  H   UNL     1       8.663  -3.343  -1.649  1.00  0.00     0.296 HD
ENDBRANCH   2   4
ENDBRANCH   1   2
BRANCH   1   6
ATOM      6  C   UNL     1       6.663  -1.462   1.253  1.00  0.00     0.047 C 
BRANCH   6   7
ATOM      7  C   UNL     1       6.134  -0.188   0.769  1.00  0.00    -0.047 A 
ATOM      8  C   UNL     1       5.389   0.624   1.593  1.00  0.00     0.004 A 
ATOM      9  C   UNL     1       6.391   0.197  -0.527  1.00  0.00     0.004 A 
ATOM     10  C   UNL     1       4.917   1.827   1.064  1.00  0.00     0.000 A 
ATOM     11  C   UNL     1       5.924   1.386  -1.049  1.00  0.00     0.000 A 
ATOM     12  C   UNL     1       5.176   2.205  -0.230  1.00  0.00     0.000 A 
ENDBRANCH   6   7
ENDBRANCH   1   6
TORSDOF 4
ENDMDL
