@<TRIPOS>MOLECULE
/home/cewinharhar/GITHUB/reincatalyze/data/processed/docking_pred/2023_Apr_20-15:07/d6fa7c89c21ca11aa73af88b15ecc664e93337c3_ligand_2.pdbqt
 12 12 0 0 0
SMALL
GASTEIGER

@<TRIPOS>ATOM
      1  C          5.0040    1.7670    0.7160 C.3     1  UNL1        0.1270
      2  C          4.4700    1.0970    1.9250 C.2     1  UNL1        0.3030
      3  O          5.1060    0.1760    2.4940 O.2     1  UNL1       -0.2520
      4  O          3.2470    1.4690    2.4610 O.3     1  UNL1       -0.4810
      5  H          2.7510    0.8180    3.0760 H       1  UNL1        0.2960
      6  C          6.5010    1.7170    0.7740 C.3     1  UNL1        0.0470
      7  C          7.1130    0.9690   -0.3230 C.2     1  UNL1       -0.0470
      8  C          6.4000    0.0090   -1.0030 C.2     1  UNL1        0.0040
      9  C          8.4160    1.2360   -0.6730 C.2     1  UNL1        0.0040
     10  C          7.0480   -0.6660   -2.0400 C.2     1  UNL1        0.0000
     11  C          9.0550    0.5680   -1.6980 C.2     1  UNL1        0.0000
     12  C          8.3490   -0.3960   -2.3840 C.2     1  UNL1        0.0000
@<TRIPOS>BOND
     1    12    10    2
     2    12    11    1
     3    10     8    1
     4    11     9    2
     5     8     7    2
     6     9     7    1
     7     7     6    1
     8     1     6    1
     9     1     2    1
    10     2     4    1
    11     2     3    2
    12     4     5    1
