@<TRIPOS>MOLECULE
/home/cewinharhar/GITHUB/reincatalyze/data/processed/docking_pred/2023_Apr_20-15:07/d6fa7c89c21ca11aa73af88b15ecc664e93337c3_ligand_2.pdbqt
 12 12 0 0 0
SMALL
GASTEIGER

@<TRIPOS>ATOM
      1  C          8.4860   -0.6040   -2.1830 C.3     1  UNL1        0.1270
      2  C          8.4940   -1.8980   -2.9050 C.2     1  UNL1        0.3030
      3  O          9.5620   -2.5320   -3.0920 O.2     1  UNL1       -0.2520
      4  O          7.3200   -2.4450   -3.3950 O.3     1  UNL1       -0.4810
      5  H          7.2720   -3.4520   -3.5720 H       1  UNL1        0.2960
      6  C          7.0800   -0.0860   -2.1610 C.3     1  UNL1        0.0470
      7  C          6.5210    0.0600   -0.8180 C.2     1  UNL1       -0.0470
      8  C          6.6600   -0.9420    0.1150 C.2     1  UNL1        0.0040
      9  C          5.8530    1.2170   -0.4910 C.2     1  UNL1        0.0040
     10  C          6.1020   -0.7340    1.3780 C.2     1  UNL1        0.0000
     11  C          5.3010    1.4210    0.7580 C.2     1  UNL1        0.0000
     12  C          5.4350    0.4220    1.6980 C.2     1  UNL1        0.0000
@<TRIPOS>BOND
     1     5     4    1
     2     4     2    1
     3     3     2    2
     4     2     1    1
     5     1     6    1
     6     6     7    1
     7     7     9    2
     8     7     8    1
     9     9    11    1
    10     8    10    2
    11    11    12    2
    12    10    12    1
