@<TRIPOS>MOLECULE
/home/cewinharhar/GITHUB/reincatalyze/data/processed/docking_pred/2023_Apr_20-15:07/d7d9c72b52c2e0a01b4806f6bcc2a503b8c9528b_ligand_2.pdbqt
 12 12 0 0 0
SMALL
GASTEIGER

@<TRIPOS>ATOM
      1  C          8.2130   -1.5710    0.8390 C.3     1  UNL1        0.1270
      2  C          8.3530   -2.7710   -0.0190 C.2     1  UNL1        0.3030
      3  O          8.8870   -3.8220    0.4140 O.2     1  UNL1       -0.2520
      4  O          7.8960   -2.7660   -1.3270 O.3     1  UNL1       -0.4810
      5  H          7.9270   -3.6320   -1.8720 H       1  UNL1        0.2960
      6  C          6.7940   -1.4940    1.3140 C.3     1  UNL1        0.0470
      7  C          6.1330   -0.2250    1.0090 C.2     1  UNL1       -0.0470
      8  C          5.3560    0.4070    1.9520 C.2     1  UNL1        0.0040
      9  C          6.2980    0.3350   -0.2360 C.2     1  UNL1        0.0040
     10  C          4.7560    1.6160    1.5920 C.2     1  UNL1        0.0000
     11  C          5.7040    1.5310   -0.5900 C.2     1  UNL1        0.0000
     12  C          4.9240    2.1700    0.3480 C.2     1  UNL1        0.0000
@<TRIPOS>BOND
     1     5     4    1
     2     4     2    1
     3    11     9    1
     4    11    12    2
     5     9     7    2
     6     2     3    2
     7     2     1    1
     8    12    10    1
     9     1     6    1
    10     7     6    1
    11     7     8    1
    12    10     8    2
