@<TRIPOS>MOLECULE
/home/cewinharhar/GITHUB/reincatalyze/data/processed/docking_pred/2023_Apr_20-15:07/d7d9c72b52c2e0a01b4806f6bcc2a503b8c9528b_ligand_2.pdbqt
 12 12 0 0 0
SMALL
GASTEIGER

@<TRIPOS>ATOM
      1  C          8.3260   -0.7830   -1.8750 C.3     1  UNL1        0.1270
      2  C          8.3230   -1.9220   -2.8220 C.2     1  UNL1        0.3030
      3  O          7.2490   -2.3880   -3.2770 O.2     1  UNL1       -0.2520
      4  O          9.5100   -2.5070   -3.2340 O.3     1  UNL1       -0.4810
      5  H          9.4800   -3.3850   -3.7580 H       1  UNL1        0.2960
      6  C          7.0050   -0.0820   -1.9770 C.3     1  UNL1        0.0470
      7  C          6.3870    0.2120   -0.6850 C.2     1  UNL1       -0.0470
      8  C          5.7230    1.3990   -0.4780 C.2     1  UNL1        0.0040
      9  C          6.4740   -0.7150    0.3280 C.2     1  UNL1        0.0040
     10  C          5.1560    1.6130    0.7810 C.2     1  UNL1        0.0000
     11  C          5.9130   -0.5020    1.5710 C.2     1  UNL1        0.0000
     12  C          5.2470    0.6850    1.7880 C.2     1  UNL1        0.0000
@<TRIPOS>BOND
     1     5     4    1
     2     3     2    2
     3     4     2    1
     4     2     1    1
     5     6     1    1
     6     6     7    1
     7     7     8    2
     8     7     9    1
     9     8    10    1
    10     9    11    2
    11    10    12    2
    12    11    12    1
