@<TRIPOS>MOLECULE
/home/cewinharhar/GITHUB/reincatalyze/data/processed/docking_pred/2023_Apr_20-15:07/d7d9c72b52c2e0a01b4806f6bcc2a503b8c9528b_ligand_2.pdbqt
 12 12 0 0 0
SMALL
GASTEIGER

@<TRIPOS>ATOM
      1  C          8.0500    0.2750   -2.0340 C.3     1  UNL1        0.1270
      2  C          9.2540    0.3290   -1.1720 C.2     1  UNL1        0.3030
      3  O          9.4020   -0.4630   -0.2090 O.2     1  UNL1       -0.2520
      4  O         10.2530    1.2600   -1.4060 O.3     1  UNL1       -0.4810
      5  H         11.0140    1.3610   -0.7280 H       1  UNL1        0.2960
      6  C          7.0180   -0.5670   -1.3480 C.3     1  UNL1        0.0470
      7  C          6.2810    0.1350   -0.2980 C.2     1  UNL1       -0.0470
      8  C          5.7460    1.3820   -0.5280 C.2     1  UNL1        0.0040
      9  C          6.1230   -0.4670    0.9280 C.2     1  UNL1        0.0040
     10  C          5.0540    1.9930    0.5200 C.2     1  UNL1        0.0000
     11  C          5.4390    0.1390    1.9630 C.2     1  UNL1        0.0000
     12  C          4.9010    1.3880    1.7420 C.2     1  UNL1        0.0000
@<TRIPOS>BOND
     1     1     6    1
     2     1     2    1
     3     4     2    1
     4     4     5    1
     5     6     7    1
     6     2     3    2
     7     8     7    2
     8     8    10    1
     9     7     9    1
    10    10    12    2
    11     9    11    2
    12    12    11    1
