@<TRIPOS>MOLECULE
/home/cewinharhar/GITHUB/reincatalyze/data/processed/docking_pred/2023_Apr_20-15:07/d7d9c72b52c2e0a01b4806f6bcc2a503b8c9528b_ligand_2.pdbqt
 12 12 0 0 0
SMALL
GASTEIGER

@<TRIPOS>ATOM
      1  C          8.4570   -0.6480   -2.0860 C.3     1  UNL1        0.1270
      2  C          8.4750   -1.8950   -2.8860 C.2     1  UNL1        0.3030
      3  O          9.5460   -2.5150   -3.1010 O.2     1  UNL1       -0.2520
      4  O          7.3060   -2.4130   -3.4200 O.3     1  UNL1       -0.4810
      5  H          6.7910   -3.1280   -2.8980 H       1  UNL1        0.2960
      6  C          7.0640   -0.0970   -2.1040 C.3     1  UNL1        0.0470
      7  C          6.4820    0.0930   -0.7770 C.2     1  UNL1       -0.0470
      8  C          6.5950   -0.8820    0.1870 C.2     1  UNL1        0.0040
      9  C          5.8160    1.2640   -0.4970 C.2     1  UNL1        0.0040
     10  C          6.0150   -0.6330    1.4330 C.2     1  UNL1        0.0000
     11  C          5.2430    1.5080    0.7350 C.2     1  UNL1        0.0000
     12  C          5.3520    0.5360    1.7060 C.2     1  UNL1        0.0000
@<TRIPOS>BOND
     1     4     5    1
     2     4     2    1
     3     3     2    2
     4     2     1    1
     5     6     1    1
     6     6     7    1
     7     7     9    2
     8     7     8    1
     9     9    11    1
    10     8    10    2
    11    11    12    2
    12    10    12    1
