@<TRIPOS>MOLECULE
/home/cewinharhar/GITHUB/reincatalyze/data/processed/docking_pred/2023_Apr_20-15:07/d7d9c72b52c2e0a01b4806f6bcc2a503b8c9528b_ligand_2.pdbqt
 12 12 0 0 0
SMALL
GASTEIGER

@<TRIPOS>ATOM
      1  C          5.0990    1.7130    0.6920 C.3     1  UNL1        0.1270
      2  C          4.6790    1.1090    1.9780 C.2     1  UNL1        0.3030
      3  O          5.3500    0.1950    2.5180 O.2     1  UNL1       -0.2520
      4  O          3.5300    1.5390    2.6230 O.3     1  UNL1       -0.4810
      5  H          2.7610    0.8800    2.7690 H       1  UNL1        0.2960
      6  C          6.5950    1.7910    0.6740 C.3     1  UNL1        0.0470
      7  C          7.2190    1.0050   -0.3900 C.2     1  UNL1       -0.0470
      8  C          8.5430    1.1890   -0.7150 C.2     1  UNL1        0.0040
      9  C          6.4660    0.0730   -1.0660 C.2     1  UNL1        0.0040
     10  C          9.0730    0.4030   -1.7410 C.2     1  UNL1        0.0000
     11  C          6.9920   -0.7020   -2.0800 C.2     1  UNL1        0.0000
     12  C          8.3170   -0.5240   -2.4130 C.2     1  UNL1        0.0000
@<TRIPOS>BOND
     1    12    11    2
     2    12    10    1
     3    11     9    1
     4    10     8    2
     5     9     7    2
     6     8     7    1
     7     7     6    1
     8     6     1    1
     9     1     2    1
    10     2     3    2
    11     2     4    1
    12     4     5    1
