MODEL 1
REMARK VINA RESULT:      -7.4      0.000      0.000
REMARK SMILES O=C(O)CCc1ccccc1
REMARK SMILES IDX 4 1 2 2 1 3 3 4 5 6 6 7 7 8 11 9 8 10 10 11 9 12
REMARK H PARENT 3 5
REMARK Flexibility Score: inf
ROOT
ATOM      1  C   UNL     1       8.455  -0.616  -2.113  1.00  0.00     0.127 C 
ENDROOT
BRANCH   1   2
ATOM      2  C   UNL     1       8.484  -1.882  -2.882  1.00  0.00     0.303 C 
ATOM      3  O   UNL     1       9.564  -2.483  -3.106  1.00  0.00    -0.252 OA
BRANCH   2   4
ATOM      4  O   UNL     1       7.317  -2.440  -3.378  1.00  0.00    -0.481 OA
ATOM      5  H   UNL     1       6.650  -2.865  -2.728  1.00  0.00     0.296 HD
ENDBRANCH   2   4
ENDBRANCH   1   2
BRANCH   1   6
ATOM      6  C   UNL     1       7.051  -0.092  -2.123  1.00  0.00     0.047 C 
BRANCH   6   7
ATOM      7  C   UNL     1       6.480   0.105  -0.792  1.00  0.00    -0.047 A 
ATOM      8  C   UNL     1       5.809   1.264  -0.478  1.00  0.00     0.004 A 
ATOM      9  C   UNL     1       6.618  -0.888   0.151  1.00  0.00     0.004 A 
ATOM     10  C   UNL     1       5.289   1.383   0.812  1.00  0.00     0.000 A 
ATOM     11  C   UNL     1       6.103  -0.768   1.427  1.00  0.00     0.000 A 
ATOM     12  C   UNL     1       5.431   0.390   1.749  1.00  0.00     0.000 A 
ENDBRANCH   6   7
ENDBRANCH   1   6
TORSDOF 4
ENDMDL
MODEL 2
REMARK VINA RESULT:      -7.2      0.146      1.733
REMARK SMILES O=C(O)CCc1ccccc1
REMARK SMILES IDX 4 1 2 2 1 3 3 4 5 6 6 7 7 8 11 9 8 10 10 11 9 12
REMARK H PARENT 3 5
REMARK Flexibility Score: inf
ROOT
ATOM      1  C   UNL     1       8.381  -0.531  -2.236  1.00  0.00     0.127 C 
ENDROOT
BRANCH   1   2
ATOM      2  C   UNL     1       8.374  -1.847  -2.919  1.00  0.00     0.303 C 
ATOM      3  O   UNL     1       7.297  -2.414  -3.229  1.00  0.00    -0.252 OA
BRANCH   2   4
ATOM      4  O   UNL     1       9.561  -2.489  -3.234  1.00  0.00    -0.481 OA
ATOM      5  H   UNL     1      10.439  -1.964  -3.201  1.00  0.00     0.296 HD
ENDBRANCH   2   4
ENDBRANCH   1   2
BRANCH   1   6
ATOM      6  C   UNL     1       6.965  -0.052  -2.125  1.00  0.00     0.047 C 
BRANCH   6   7
ATOM      7  C   UNL     1       6.471   0.026  -0.751  1.00  0.00    -0.047 A 
ATOM      8  C   UNL     1       6.611  -1.038   0.108  1.00  0.00     0.004 A 
ATOM      9  C   UNL     1       5.862   1.183  -0.322  1.00  0.00     0.004 A 
ATOM     10  C   UNL     1       6.116  -0.893   1.406  1.00  0.00     0.000 A 
ATOM     11  C   UNL     1       5.373   1.325   0.961  1.00  0.00     0.000 A 
ATOM     12  C   UNL     1       5.508   0.262   1.829  1.00  0.00     0.000 A 
ENDBRANCH   6   7
ENDBRANCH   1   6
TORSDOF 4
ENDMDL
MODEL 3
REMARK VINA RESULT:      -7.1      0.647      1.608
REMARK SMILES O=C(O)CCc1ccccc1
REMARK SMILES IDX 4 1 2 2 1 3 3 4 5 6 6 7 7 8 11 9 8 10 10 11 9 12
REMARK H PARENT 3 5
REMARK Flexibility Score: inf
ROOT
ATOM      1  C   UNL     1       8.277  -1.019  -1.710  1.00  0.00     0.127 C 
ENDROOT
BRANCH   1   2
ATOM      2  C   UNL     1       8.443  -2.021  -2.790  1.00  0.00     0.303 C 
ATOM      3  O   UNL     1       9.578  -2.462  -3.099  1.00  0.00    -0.252 OA
BRANCH   2   4
ATOM      4  O   UNL     1       7.347  -2.499  -3.490  1.00  0.00    -0.481 OA
ATOM      5  H   UNL     1       6.425  -2.486  -3.046  1.00  0.00     0.296 HD
ENDBRANCH   2   4
ENDBRANCH   1   2
BRANCH   1   6
ATOM      6  C   UNL     1       7.177  -1.482  -0.804  1.00  0.00     0.047 C 
BRANCH   6   7
ATOM      7  C   UNL     1       6.454  -0.396  -0.144  1.00  0.00    -0.047 A 
ATOM      8  C   UNL     1       6.023  -0.526   1.156  1.00  0.00     0.004 A 
ATOM      9  C   UNL     1       6.208   0.766  -0.839  1.00  0.00     0.004 A 
ATOM     10  C   UNL     1       5.340   0.552   1.723  1.00  0.00     0.000 A 
ATOM     11  C   UNL     1       5.532   1.830  -0.276  1.00  0.00     0.000 A 
ATOM     12  C   UNL     1       5.096   1.708   1.025  1.00  0.00     0.000 A 
ENDBRANCH   6   7
ENDBRANCH   1   6
TORSDOF 4
ENDMDL
MODEL 4
REMARK VINA RESULT:      -6.8      3.352      5.039
REMARK SMILES O=C(O)CCc1ccccc1
REMARK SMILES IDX 4 1 2 2 1 3 3 4 5 6 6 7 7 8 11 9 8 10 10 11 9 12
REMARK H PARENT 3 5
REMARK Flexibility Score: inf
ROOT
ATOM      1  C   UNL     1       5.011   1.779   0.677  1.00  0.00     0.127 C 
ENDROOT
BRANCH   1   2
ATOM      2  C   UNL     1       4.509   1.109   1.900  1.00  0.00     0.303 C 
ATOM      3  O   UNL     1       5.181   0.218   2.477  1.00  0.00    -0.252 OA
BRANCH   2   4
ATOM      4  O   UNL     1       3.280   1.449   2.442  1.00  0.00    -0.481 OA
ATOM      5  H   UNL     1       2.427   1.052   2.038  1.00  0.00     0.296 HD
ENDBRANCH   2   4
ENDBRANCH   1   2
BRANCH   1   6
ATOM      6  C   UNL     1       6.508   1.802   0.733  1.00  0.00     0.047 C 
BRANCH   6   7
ATOM      7  C   UNL     1       7.155   1.048  -0.339  1.00  0.00    -0.047 A 
ATOM      8  C   UNL     1       8.486   1.239  -0.628  1.00  0.00     0.004 A 
ATOM      9  C   UNL     1       6.417   0.137  -1.059  1.00  0.00     0.004 A 
ATOM     10  C   UNL     1       9.039   0.484  -1.665  1.00  0.00     0.000 A 
ATOM     11  C   UNL     1       6.965  -0.608  -2.084  1.00  0.00     0.000 A 
ATOM     12  C   UNL     1       8.298  -0.423  -2.381  1.00  0.00     0.000 A 
ENDBRANCH   6   7
ENDBRANCH   1   6
TORSDOF 4
ENDMDL
MODEL 5
REMARK VINA RESULT:      -6.6      2.011      2.303
REMARK SMILES O=C(O)CCc1ccccc1
REMARK SMILES IDX 4 1 2 2 1 3 3 4 5 6 6 7 7 8 11 9 8 10 10 11 9 12
REMARK H PARENT 3 5
REMARK Flexibility Score: inf
ROOT
ATOM      1  C   UNL     1       8.399   0.522  -1.825  1.00  0.00     0.127 C 
ENDROOT
BRANCH   1   2
ATOM      2  C   UNL     1       9.544   0.252  -0.924  1.00  0.00     0.303 C 
ATOM      3  O   UNL     1       9.434  -0.532   0.051  1.00  0.00    -0.252 OA
BRANCH   2   4
ATOM      4  O   UNL     1      10.771   0.859  -1.134  1.00  0.00    -0.481 OA
ATOM      5  H   UNL     1      11.031   1.672  -0.568  1.00  0.00     0.296 HD
ENDBRANCH   2   4
ENDBRANCH   1   2
BRANCH   1   6
ATOM      6  C   UNL     1       7.246  -0.330  -1.389  1.00  0.00     0.047 C 
BRANCH   6   7
ATOM      7  C   UNL     1       6.384   0.301  -0.391  1.00  0.00    -0.047 A 
ATOM      8  C   UNL     1       5.788   1.515  -0.643  1.00  0.00     0.004 A 
ATOM      9  C   UNL     1       6.170  -0.335   0.810  1.00  0.00     0.004 A 
ATOM     10  C   UNL     1       4.977   2.058   0.356  1.00  0.00     0.000 A 
ATOM     11  C   UNL     1       5.368   0.204   1.796  1.00  0.00     0.000 A 
ATOM     12  C   UNL     1       4.768   1.420   1.552  1.00  0.00     0.000 A 
ENDBRANCH   6   7
ENDBRANCH   1   6
TORSDOF 4
ENDMDL
