@<TRIPOS>MOLECULE
/home/cewinharhar/GITHUB/reincatalyze/data/processed/docking_pred/2023_Apr_20-15:07/da55d276f49f8aea3f2b333b6115ea57fe53d1b0_ligand_2.pdbqt
 12 12 0 0 0
SMALL
GASTEIGER

@<TRIPOS>ATOM
      1  C          8.3810   -0.5310   -2.2360 C.3     1  UNL1        0.1270
      2  C          8.3740   -1.8470   -2.9190 C.2     1  UNL1        0.3030
      3  O          7.2970   -2.4140   -3.2290 O.2     1  UNL1       -0.2520
      4  O          9.5610   -2.4890   -3.2340 O.3     1  UNL1       -0.4810
      5  H         10.4390   -1.9640   -3.2010 H       1  UNL1        0.2960
      6  C          6.9650   -0.0520   -2.1250 C.3     1  UNL1        0.0470
      7  C          6.4710    0.0260   -0.7510 C.2     1  UNL1       -0.0470
      8  C          6.6110   -1.0380    0.1080 C.2     1  UNL1        0.0040
      9  C          5.8620    1.1830   -0.3220 C.2     1  UNL1        0.0040
     10  C          6.1160   -0.8930    1.4060 C.2     1  UNL1        0.0000
     11  C          5.3730    1.3250    0.9610 C.2     1  UNL1        0.0000
     12  C          5.5080    0.2620    1.8290 C.2     1  UNL1        0.0000
@<TRIPOS>BOND
     1     4     5    1
     2     4     2    1
     3     3     2    2
     4     2     1    1
     5     1     6    1
     6     6     7    1
     7     7     9    2
     8     7     8    1
     9     9    11    1
    10     8    10    2
    11    11    12    2
    12    10    12    1
