@<TRIPOS>MOLECULE
/home/cewinharhar/GITHUB/reincatalyze/data/processed/docking_pred/2023_Apr_20-15:07/da55d276f49f8aea3f2b333b6115ea57fe53d1b0_ligand_2.pdbqt
 12 12 0 0 0
SMALL
GASTEIGER

@<TRIPOS>ATOM
      1  C          8.2770   -1.0190   -1.7100 C.3     1  UNL1        0.1270
      2  C          8.4430   -2.0210   -2.7900 C.2     1  UNL1        0.3030
      3  O          9.5780   -2.4620   -3.0990 O.2     1  UNL1       -0.2520
      4  O          7.3470   -2.4990   -3.4900 O.3     1  UNL1       -0.4810
      5  H          6.4250   -2.4860   -3.0460 H       1  UNL1        0.2960
      6  C          7.1770   -1.4820   -0.8040 C.3     1  UNL1        0.0470
      7  C          6.4540   -0.3960   -0.1440 C.2     1  UNL1       -0.0470
      8  C          6.0230   -0.5260    1.1560 C.2     1  UNL1        0.0040
      9  C          6.2080    0.7660   -0.8390 C.2     1  UNL1        0.0040
     10  C          5.3400    0.5520    1.7230 C.2     1  UNL1        0.0000
     11  C          5.5320    1.8300   -0.2760 C.2     1  UNL1        0.0000
     12  C          5.0960    1.7080    1.0250 C.2     1  UNL1        0.0000
@<TRIPOS>BOND
     1     4     5    1
     2     4     2    1
     3     3     2    2
     4     2     1    1
     5     1     6    1
     6     9    11    1
     7     9     7    2
     8     6     7    1
     9    11    12    2
    10     7     8    1
    11    12    10    1
    12     8    10    2
