@<TRIPOS>MOLECULE
/home/cewinharhar/GITHUB/reincatalyze/data/processed/docking_pred/2023_Apr_20-15:07/da55d276f49f8aea3f2b333b6115ea57fe53d1b0_ligand_2.pdbqt
 12 12 0 0 0
SMALL
GASTEIGER

@<TRIPOS>ATOM
      1  C          5.0110    1.7790    0.6770 C.3     1  UNL1        0.1270
      2  C          4.5090    1.1090    1.9000 C.2     1  UNL1        0.3030
      3  O          5.1810    0.2180    2.4770 O.2     1  UNL1       -0.2520
      4  O          3.2800    1.4490    2.4420 O.3     1  UNL1       -0.4810
      5  H          2.4270    1.0520    2.0380 H       1  UNL1        0.2960
      6  C          6.5080    1.8020    0.7330 C.3     1  UNL1        0.0470
      7  C          7.1550    1.0480   -0.3390 C.2     1  UNL1       -0.0470
      8  C          8.4860    1.2390   -0.6280 C.2     1  UNL1        0.0040
      9  C          6.4170    0.1370   -1.0590 C.2     1  UNL1        0.0040
     10  C          9.0390    0.4840   -1.6650 C.2     1  UNL1        0.0000
     11  C          6.9650   -0.6080   -2.0840 C.2     1  UNL1        0.0000
     12  C          8.2980   -0.4230   -2.3810 C.2     1  UNL1        0.0000
@<TRIPOS>BOND
     1    12    11    2
     2    12    10    1
     3    11     9    1
     4    10     8    2
     5     9     7    2
     6     8     7    1
     7     7     6    1
     8     1     6    1
     9     1     2    1
    10     2     4    1
    11     2     3    2
    12     5     4    1
