@<TRIPOS>MOLECULE
/home/cewinharhar/GITHUB/reincatalyze/data/processed/docking_pred/2023_Apr_20-15:07/da55d276f49f8aea3f2b333b6115ea57fe53d1b0_ligand_2.pdbqt
 12 12 0 0 0
SMALL
GASTEIGER

@<TRIPOS>ATOM
      1  C          8.3990    0.5220   -1.8250 C.3     1  UNL1        0.1270
      2  C          9.5440    0.2520   -0.9240 C.2     1  UNL1        0.3030
      3  O          9.4340   -0.5320    0.0510 O.2     1  UNL1       -0.2520
      4  O         10.7710    0.8590   -1.1340 O.3     1  UNL1       -0.4810
      5  H         11.0310    1.6720   -0.5680 H       1  UNL1        0.2960
      6  C          7.2460   -0.3300   -1.3890 C.3     1  UNL1        0.0470
      7  C          6.3840    0.3010   -0.3910 C.2     1  UNL1       -0.0470
      8  C          5.7880    1.5150   -0.6430 C.2     1  UNL1        0.0040
      9  C          6.1700   -0.3350    0.8100 C.2     1  UNL1        0.0040
     10  C          4.9770    2.0580    0.3560 C.2     1  UNL1        0.0000
     11  C          5.3680    0.2040    1.7960 C.2     1  UNL1        0.0000
     12  C          4.7680    1.4200    1.5520 C.2     1  UNL1        0.0000
@<TRIPOS>BOND
     1     1     6    1
     2     1     2    1
     3     6     7    1
     4     4     2    1
     5     4     5    1
     6     2     3    2
     7     8     7    2
     8     8    10    1
     9     7     9    1
    10    10    12    2
    11     9    11    2
    12    12    11    1
