@<TRIPOS>MOLECULE
/home/cewinharhar/GITHUB/reincatalyze/data/processed/docking_pred/2023_Apr_20-15:07/da55d276f49f8aea3f2b333b6115ea57fe53d1b0_ligand_2.pdbqt
 12 12 0 0 0
SMALL
GASTEIGER

@<TRIPOS>ATOM
      1  C          8.4550   -0.6160   -2.1130 C.3     1  UNL1        0.1270
      2  C          8.4840   -1.8820   -2.8820 C.2     1  UNL1        0.3030
      3  O          9.5640   -2.4830   -3.1060 O.2     1  UNL1       -0.2520
      4  O          7.3170   -2.4400   -3.3780 O.3     1  UNL1       -0.4810
      5  H          6.6500   -2.8650   -2.7280 H       1  UNL1        0.2960
      6  C          7.0510   -0.0920   -2.1230 C.3     1  UNL1        0.0470
      7  C          6.4800    0.1050   -0.7920 C.2     1  UNL1       -0.0470
      8  C          5.8090    1.2640   -0.4780 C.2     1  UNL1        0.0040
      9  C          6.6180   -0.8880    0.1510 C.2     1  UNL1        0.0040
     10  C          5.2890    1.3830    0.8120 C.2     1  UNL1        0.0000
     11  C          6.1030   -0.7680    1.4270 C.2     1  UNL1        0.0000
     12  C          5.4310    0.3900    1.7490 C.2     1  UNL1        0.0000
@<TRIPOS>BOND
     1     4     2    1
     2     4     5    1
     3     3     2    2
     4     2     1    1
     5     6     1    1
     6     6     7    1
     7     7     8    2
     8     7     9    1
     9     8    10    1
    10     9    11    2
    11    10    12    2
    12    11    12    1
