@<TRIPOS>MOLECULE
/home/cewinharhar/GITHUB/reincatalyze/data/processed/docking_pred/2023_Apr_20-15:07/db57195a81496af8cffcd6b4d9524a1fe0637e4f_ligand_2.pdbqt
 12 12 0 0 0
SMALL
GASTEIGER

@<TRIPOS>ATOM
      1  C          6.0580    1.4350    1.1950 C.3     1  UNL1        0.1270
      2  C          5.2180    0.5320    2.0180 C.2     1  UNL1        0.3030
      3  O          5.6230   -0.6100    2.3500 O.2     1  UNL1       -0.2520
      4  O          3.9590    0.9240    2.4430 O.3     1  UNL1       -0.4810
      5  H          3.3070    0.2180    2.7950 H       1  UNL1        0.2960
      6  C          5.7650    1.1640   -0.2490 C.3     1  UNL1        0.0470
      7  C          6.8730    0.5440   -0.9740 C.2     1  UNL1       -0.0470
      8  C          8.1530    1.0350   -0.8570 C.2     1  UNL1        0.0040
      9  C          6.6240   -0.5440   -1.7780 C.2     1  UNL1        0.0040
     10  C          9.1620    0.3920   -1.5770 C.2     1  UNL1        0.0000
     11  C          7.6230   -1.1780   -2.4890 C.2     1  UNL1        0.0000
     12  C          8.9070   -0.6920   -2.3780 C.2     1  UNL1        0.0000
@<TRIPOS>BOND
     1    11    12    2
     2    11     9    1
     3    12    10    1
     4     9     7    2
     5    10     8    2
     6     7     8    1
     7     7     6    1
     8     6     1    1
     9     1     2    1
    10     2     3    2
    11     2     4    1
    12     4     5    1
