@<TRIPOS>MOLECULE
/home/cewinharhar/GITHUB/reincatalyze/data/processed/docking_pred/2023_Apr_20-15:07/db57195a81496af8cffcd6b4d9524a1fe0637e4f_ligand_2.pdbqt
 12 12 0 0 0
SMALL
GASTEIGER

@<TRIPOS>ATOM
      1  C          5.9510   -0.7480    1.7500 C.3     1  UNL1        0.1270
      2  C          5.2670    0.5460    1.9870 C.2     1  UNL1        0.3030
      3  O          4.1140    0.5910    2.4830 O.2     1  UNL1       -0.2520
      4  O          5.8850    1.7440    1.6670 O.3     1  UNL1       -0.4810
      5  H          5.4700    2.6230    1.9900 H       1  UNL1        0.2960
      6  C          7.3810   -0.4670    1.4010 C.3     1  UNL1        0.0470
      7  C          7.6430   -0.4190   -0.0360 C.2     1  UNL1       -0.0470
      8  C          6.9580   -1.2360   -0.9050 C.2     1  UNL1        0.0040
      9  C          8.5870    0.4600   -0.5170 C.2     1  UNL1        0.0040
     10  C          7.2590   -1.1350   -2.2650 C.2     1  UNL1        0.0000
     11  C          8.8840    0.5580   -1.8610 C.2     1  UNL1        0.0000
     12  C          8.2020   -0.2580   -2.7380 C.2     1  UNL1        0.0000
@<TRIPOS>BOND
     1    12    10    2
     2    12    11    1
     3    10     8    1
     4    11     9    2
     5     8     7    2
     6     9     7    1
     7     7     6    1
     8     6     1    1
     9     4     2    1
    10     4     5    1
    11     1     2    1
    12     2     3    2
