@<TRIPOS>MOLECULE
/home/cewinharhar/GITHUB/reincatalyze/data/processed/docking_pred/2023_Apr_20-15:07/db57195a81496af8cffcd6b4d9524a1fe0637e4f_ligand_2.pdbqt
 12 12 0 0 0
SMALL
GASTEIGER

@<TRIPOS>ATOM
      1  C          8.4290   -0.5570   -2.2310 C.3     1  UNL1        0.1270
      2  C          8.4810   -1.8590   -2.9370 C.2     1  UNL1        0.3030
      3  O          9.5700   -2.4580   -3.1180 O.2     1  UNL1       -0.2520
      4  O          7.3250   -2.4530   -3.4170 O.3     1  UNL1       -0.4810
      5  H          7.1050   -2.3850   -4.4150 H       1  UNL1        0.2960
      6  C          6.9920   -0.1620   -2.0770 C.3     1  UNL1        0.0470
      7  C          6.5370   -0.1050   -0.6890 C.2     1  UNL1       -0.0470
      8  C          5.8700    1.0000   -0.2120 C.2     1  UNL1        0.0040
      9  C          6.7810   -1.1740    0.1420 C.2     1  UNL1        0.0040
     10  C          5.4640    0.9850    1.1240 C.2     1  UNL1        0.0000
     11  C          6.3790   -1.1860    1.4630 C.2     1  UNL1        0.0000
     12  C          5.7110   -0.0830    1.9490 C.2     1  UNL1        0.0000
@<TRIPOS>BOND
     1     5     4    1
     2     4     2    1
     3     3     2    2
     4     2     1    1
     5     1     6    1
     6     6     7    1
     7     7     8    2
     8     7     9    1
     9     8    10    1
    10     9    11    2
    11    10    12    2
    12    11    12    1
