MODEL 1
REMARK VINA RESULT:      -7.3      0.000      0.000
REMARK SMILES O=C(O)CCc1ccccc1
REMARK SMILES IDX 4 1 2 2 1 3 3 4 5 6 6 7 7 8 11 9 8 10 10 11 9 12
REMARK H PARENT 3 5
REMARK Flexibility Score: inf
ROOT
ATOM      1  C   UNL     1       8.429  -0.557  -2.231  1.00  0.00     0.127 C 
ENDROOT
BRANCH   1   2
ATOM      2  C   UNL     1       8.481  -1.859  -2.937  1.00  0.00     0.303 C 
ATOM      3  O   UNL     1       9.570  -2.458  -3.118  1.00  0.00    -0.252 OA
BRANCH   2   4
ATOM      4  O   UNL     1       7.325  -2.453  -3.417  1.00  0.00    -0.481 OA
ATOM      5  H   UNL     1       7.105  -2.385  -4.415  1.00  0.00     0.296 HD
ENDBRANCH   2   4
ENDBRANCH   1   2
BRANCH   1   6
ATOM      6  C   UNL     1       6.992  -0.162  -2.077  1.00  0.00     0.047 C 
BRANCH   6   7
ATOM      7  C   UNL     1       6.537  -0.105  -0.689  1.00  0.00    -0.047 A 
ATOM      8  C   UNL     1       5.870   1.000  -0.212  1.00  0.00     0.004 A 
ATOM      9  C   UNL     1       6.781  -1.174   0.142  1.00  0.00     0.004 A 
ATOM     10  C   UNL     1       5.464   0.985   1.124  1.00  0.00     0.000 A 
ATOM     11  C   UNL     1       6.379  -1.186   1.463  1.00  0.00     0.000 A 
ATOM     12  C   UNL     1       5.711  -0.083   1.949  1.00  0.00     0.000 A 
ENDBRANCH   6   7
ENDBRANCH   1   6
TORSDOF 4
ENDMDL
MODEL 2
REMARK VINA RESULT:      -7.3      0.063      1.438
REMARK SMILES O=C(O)CCc1ccccc1
REMARK SMILES IDX 4 1 2 2 1 3 3 4 5 6 6 7 7 8 11 9 8 10 10 11 9 12
REMARK H PARENT 3 5
REMARK Flexibility Score: inf
ROOT
ATOM      1  C   UNL     1       8.490  -0.586  -2.205  1.00  0.00     0.127 C 
ENDROOT
BRANCH   1   2
ATOM      2  C   UNL     1       8.504  -1.882  -2.925  1.00  0.00     0.303 C 
ATOM      3  O   UNL     1       9.574  -2.516  -3.101  1.00  0.00    -0.252 OA
BRANCH   2   4
ATOM      4  O   UNL     1       7.334  -2.430  -3.424  1.00  0.00    -0.481 OA
ATOM      5  H   UNL     1       6.987  -2.123  -4.337  1.00  0.00     0.296 HD
ENDBRANCH   2   4
ENDBRANCH   1   2
BRANCH   1   6
ATOM      6  C   UNL     1       7.065  -0.147  -2.055  1.00  0.00     0.047 C 
BRANCH   6   7
ATOM      7  C   UNL     1       6.584  -0.152  -0.675  1.00  0.00    -0.047 A 
ATOM      8  C   UNL     1       6.799  -1.239   0.141  1.00  0.00     0.004 A 
ATOM      9  C   UNL     1       5.910   0.947  -0.194  1.00  0.00     0.004 A 
ATOM     10  C   UNL     1       6.313  -1.174   1.449  1.00  0.00     0.000 A 
ATOM     11  C   UNL     1       5.430   1.009   1.098  1.00  0.00     0.000 A 
ATOM     12  C   UNL     1       5.641  -0.075   1.922  1.00  0.00     0.000 A 
ENDBRANCH   6   7
ENDBRANCH   1   6
TORSDOF 4
ENDMDL
MODEL 3
REMARK VINA RESULT:      -6.6      3.211      4.984
REMARK SMILES O=C(O)CCc1ccccc1
REMARK SMILES IDX 4 1 2 2 1 3 3 4 5 6 6 7 7 8 11 9 8 10 10 11 9 12
REMARK H PARENT 3 5
REMARK Flexibility Score: inf
ROOT
ATOM      1  C   UNL     1       5.951  -0.748   1.750  1.00  0.00     0.127 C 
ENDROOT
BRANCH   1   2
ATOM      2  C   UNL     1       5.267   0.546   1.987  1.00  0.00     0.303 C 
ATOM      3  O   UNL     1       4.114   0.591   2.483  1.00  0.00    -0.252 OA
BRANCH   2   4
ATOM      4  O   UNL     1       5.885   1.744   1.667  1.00  0.00    -0.481 OA
ATOM      5  H   UNL     1       5.470   2.623   1.990  1.00  0.00     0.296 HD
ENDBRANCH   2   4
ENDBRANCH   1   2
BRANCH   1   6
ATOM      6  C   UNL     1       7.381  -0.467   1.401  1.00  0.00     0.047 C 
BRANCH   6   7
ATOM      7  C   UNL     1       7.643  -0.419  -0.036  1.00  0.00    -0.047 A 
ATOM      8  C   UNL     1       6.958  -1.236  -0.905  1.00  0.00     0.004 A 
ATOM      9  C   UNL     1       8.587   0.460  -0.517  1.00  0.00     0.004 A 
ATOM     10  C   UNL     1       7.259  -1.135  -2.265  1.00  0.00     0.000 A 
ATOM     11  C   UNL     1       8.884   0.558  -1.861  1.00  0.00     0.000 A 
ATOM     12  C   UNL     1       8.202  -0.258  -2.738  1.00  0.00     0.000 A 
ENDBRANCH   6   7
ENDBRANCH   1   6
TORSDOF 4
ENDMDL
MODEL 4
REMARK VINA RESULT:      -6.6      3.104      4.795
REMARK SMILES O=C(O)CCc1ccccc1
REMARK SMILES IDX 4 1 2 2 1 3 3 4 5 6 6 7 7 8 11 9 8 10 10 11 9 12
REMARK H PARENT 3 5
REMARK Flexibility Score: inf
ROOT
ATOM      1  C   UNL     1       6.058   1.435   1.195  1.00  0.00     0.127 C 
ENDROOT
BRANCH   1   2
ATOM      2  C   UNL     1       5.218   0.532   2.018  1.00  0.00     0.303 C 
ATOM      3  O   UNL     1       5.623  -0.610   2.350  1.00  0.00    -0.252 OA
BRANCH   2   4
ATOM      4  O   UNL     1       3.959   0.924   2.443  1.00  0.00    -0.481 OA
ATOM      5  H   UNL     1       3.307   0.218   2.795  1.00  0.00     0.296 HD
ENDBRANCH   2   4
ENDBRANCH   1   2
BRANCH   1   6
ATOM      6  C   UNL     1       5.765   1.164  -0.249  1.00  0.00     0.047 C 
BRANCH   6   7
ATOM      7  C   UNL     1       6.873   0.544  -0.974  1.00  0.00    -0.047 A 
ATOM      8  C   UNL     1       8.153   1.035  -0.857  1.00  0.00     0.004 A 
ATOM      9  C   UNL     1       6.624  -0.544  -1.778  1.00  0.00     0.004 A 
ATOM     10  C   UNL     1       9.162   0.392  -1.577  1.00  0.00     0.000 A 
ATOM     11  C   UNL     1       7.623  -1.178  -2.489  1.00  0.00     0.000 A 
ATOM     12  C   UNL     1       8.907  -0.692  -2.378  1.00  0.00     0.000 A 
ENDBRANCH   6   7
ENDBRANCH   1   6
TORSDOF 4
ENDMDL
MODEL 5
REMARK VINA RESULT:      -6.3      1.901      2.070
REMARK SMILES O=C(O)CCc1ccccc1
REMARK SMILES IDX 4 1 2 2 1 3 3 4 5 6 6 7 7 8 11 9 8 10 10 11 9 12
REMARK H PARENT 3 5
REMARK Flexibility Score: inf
ROOT
ATOM      1  C   UNL     1       8.361  -0.560  -2.114  1.00  0.00     0.127 C 
ENDROOT
BRANCH   1   2
ATOM      2  C   UNL     1       9.343   0.322  -1.439  1.00  0.00     0.303 C 
ATOM      3  O   UNL     1       9.695   1.414  -1.950  1.00  0.00    -0.252 OA
BRANCH   2   4
ATOM      4  O   UNL     1       9.900  -0.036  -0.222  1.00  0.00    -0.481 OA
ATOM      5  H   UNL     1       9.356  -0.609   0.429  1.00  0.00     0.296 HD
ENDBRANCH   2   4
ENDBRANCH   1   2
BRANCH   1   6
ATOM      6  C   UNL     1       6.997   0.037  -1.945  1.00  0.00     0.047 C 
BRANCH   6   7
ATOM      7  C   UNL     1       6.489  -0.020  -0.575  1.00  0.00    -0.047 A 
ATOM      8  C   UNL     1       5.890   1.077  -0.001  1.00  0.00     0.004 A 
ATOM      9  C   UNL     1       6.615  -1.188   0.140  1.00  0.00     0.004 A 
ATOM     10  C   UNL     1       5.427   0.952   1.310  1.00  0.00     0.000 A 
ATOM     11  C   UNL     1       6.158  -1.311   1.437  1.00  0.00     0.000 A 
ATOM     12  C   UNL     1       5.556  -0.216   2.019  1.00  0.00     0.000 A 
ENDBRANCH   6   7
ENDBRANCH   1   6
TORSDOF 4
ENDMDL
