@<TRIPOS>MOLECULE
/home/cewinharhar/GITHUB/reincatalyze/data/processed/docking_pred/2023_Apr_20-15:07/db57195a81496af8cffcd6b4d9524a1fe0637e4f_ligand_2.pdbqt
 12 12 0 0 0
SMALL
GASTEIGER

@<TRIPOS>ATOM
      1  C          8.4900   -0.5860   -2.2050 C.3     1  UNL1        0.1270
      2  C          8.5040   -1.8820   -2.9250 C.2     1  UNL1        0.3030
      3  O          9.5740   -2.5160   -3.1010 O.2     1  UNL1       -0.2520
      4  O          7.3340   -2.4300   -3.4240 O.3     1  UNL1       -0.4810
      5  H          6.9870   -2.1230   -4.3370 H       1  UNL1        0.2960
      6  C          7.0650   -0.1470   -2.0550 C.3     1  UNL1        0.0470
      7  C          6.5840   -0.1520   -0.6750 C.2     1  UNL1       -0.0470
      8  C          6.7990   -1.2390    0.1410 C.2     1  UNL1        0.0040
      9  C          5.9100    0.9470   -0.1940 C.2     1  UNL1        0.0040
     10  C          6.3130   -1.1740    1.4490 C.2     1  UNL1        0.0000
     11  C          5.4300    1.0090    1.0980 C.2     1  UNL1        0.0000
     12  C          5.6410   -0.0750    1.9220 C.2     1  UNL1        0.0000
@<TRIPOS>BOND
     1     5     4    1
     2     4     2    1
     3     3     2    2
     4     2     1    1
     5     1     6    1
     6     6     7    1
     7     7     9    2
     8     7     8    1
     9     9    11    1
    10     8    10    2
    11    11    12    2
    12    10    12    1
