@<TRIPOS>MOLECULE
/home/cewinharhar/GITHUB/reincatalyze/data/processed/docking_pred/2023_Apr_20-15:07/db57195a81496af8cffcd6b4d9524a1fe0637e4f_ligand_2.pdbqt
 12 12 0 0 0
SMALL
GASTEIGER

@<TRIPOS>ATOM
      1  C          8.3610   -0.5600   -2.1140 C.3     1  UNL1        0.1270
      2  C          9.3430    0.3220   -1.4390 C.2     1  UNL1        0.3030
      3  O          9.6950    1.4140   -1.9500 O.2     1  UNL1       -0.2520
      4  O          9.9000   -0.0360   -0.2220 O.3     1  UNL1       -0.4810
      5  H          9.3560   -0.6090    0.4290 H       1  UNL1        0.2960
      6  C          6.9970    0.0370   -1.9450 C.3     1  UNL1        0.0470
      7  C          6.4890   -0.0200   -0.5750 C.2     1  UNL1       -0.0470
      8  C          5.8900    1.0770   -0.0010 C.2     1  UNL1        0.0040
      9  C          6.6150   -1.1880    0.1400 C.2     1  UNL1        0.0040
     10  C          5.4270    0.9520    1.3100 C.2     1  UNL1        0.0000
     11  C          6.1580   -1.3110    1.4370 C.2     1  UNL1        0.0000
     12  C          5.5560   -0.2160    2.0190 C.2     1  UNL1        0.0000
@<TRIPOS>BOND
     1     1     6    1
     2     1     2    1
     3     3     2    2
     4     6     7    1
     5     2     4    1
     6     7     8    2
     7     7     9    1
     8     4     5    1
     9     8    10    1
    10     9    11    2
    11    10    12    2
    12    11    12    1
