@<TRIPOS>MOLECULE
/home/cewinharhar/GITHUB/reincatalyze/data/processed/docking_pred/2023_Apr_20-15:07/db6d960fae65c9d90f474a1e8ae318b6f28ec3f2_ligand_2.pdbqt
 12 12 0 0 0
SMALL
GASTEIGER

@<TRIPOS>ATOM
      1  C          8.4260   -0.6860   -2.0480 C.3     1  UNL1        0.1270
      2  C          8.3850   -1.9180   -2.8710 C.2     1  UNL1        0.3030
      3  O          7.2930   -2.4160   -3.2420 O.2     1  UNL1       -0.2520
      4  O          9.5530   -2.5570   -3.2530 O.3     1  UNL1       -0.4810
      5  H         10.4540   -2.1110   -3.0580 H       1  UNL1        0.2960
      6  C          7.0640   -0.0630   -2.0640 C.3     1  UNL1        0.0470
      7  C          6.4740    0.1120   -0.7380 C.2     1  UNL1       -0.0470
      8  C          6.5930   -0.8680    0.2200 C.2     1  UNL1        0.0040
      9  C          5.7970    1.2750   -0.4530 C.2     1  UNL1        0.0040
     10  C          6.0060   -0.6330    1.4650 C.2     1  UNL1        0.0000
     11  C          5.2160    1.5050    0.7790 C.2     1  UNL1        0.0000
     12  C          5.3300    0.5280    1.7430 C.2     1  UNL1        0.0000
@<TRIPOS>BOND
     1     4     5    1
     2     4     2    1
     3     3     2    2
     4     2     1    1
     5     6     1    1
     6     6     7    1
     7     7     9    2
     8     7     8    1
     9     9    11    1
    10     8    10    2
    11    11    12    2
    12    10    12    1
