@<TRIPOS>MOLECULE
/home/cewinharhar/GITHUB/reincatalyze/data/processed/docking_pred/2023_Apr_20-15:07/db6d960fae65c9d90f474a1e8ae318b6f28ec3f2_ligand_2.pdbqt
 12 12 0 0 0
SMALL
GASTEIGER

@<TRIPOS>ATOM
      1  C          5.3130    2.8540   -0.0120 C.3     1  UNL1        0.1270
      2  C          6.1420    3.7620    0.8150 C.2     1  UNL1        0.3030
      3  O          6.1930    3.6400    2.0640 O.2     1  UNL1       -0.2520
      4  O          6.8850    4.7750    0.2300 O.3     1  UNL1       -0.4810
      5  H          7.3180    4.6140   -0.6840 H       1  UNL1        0.2960
      6  C          5.1810    1.5480    0.7110 C.3     1  UNL1        0.0470
      7  C          6.0460    0.4900    0.1900 C.2     1  UNL1       -0.0470
      8  C          6.3970    0.4600   -1.1390 C.2     1  UNL1        0.0040
      9  C          6.5100   -0.4800    1.0480 C.2     1  UNL1        0.0040
     10  C          7.2270   -0.5790   -1.5670 C.2     1  UNL1        0.0000
     11  C          7.3290   -1.5070    0.6240 C.2     1  UNL1        0.0000
     12  C          7.6860   -1.5450   -0.7070 C.2     1  UNL1        0.0000
@<TRIPOS>BOND
     1    10     8    1
     2    10    12    2
     3     8     7    2
     4    12    11    1
     5     5     4    1
     6     1     6    1
     7     1     2    1
     8     7     6    1
     9     7     9    1
    10     4     2    1
    11    11     9    2
    12     2     3    2
