@<TRIPOS>MOLECULE
/home/cewinharhar/GITHUB/reincatalyze/data/processed/docking_pred/2023_Apr_20-15:07/db6d960fae65c9d90f474a1e8ae318b6f28ec3f2_ligand_2.pdbqt
 12 12 0 0 0
SMALL
GASTEIGER

@<TRIPOS>ATOM
      1  C          8.1560    0.2300   -2.1070 C.3     1  UNL1        0.1270
      2  C          9.3290    0.3570   -1.2090 C.2     1  UNL1        0.3030
      3  O          9.4590   -0.3820   -0.2020 O.2     1  UNL1       -0.2520
      4  O         10.3160    1.2960   -1.4580 O.3     1  UNL1       -0.4810
      5  H         11.0800    1.0630   -2.0980 H       1  UNL1        0.2960
      6  C          7.1230   -0.6060   -1.4170 C.3     1  UNL1        0.0470
      7  C          6.3480    0.1170   -0.4100 C.2     1  UNL1       -0.0470
      8  C          5.8140    1.3540   -0.6870 C.2     1  UNL1        0.0040
      9  C          6.1540   -0.4550    0.8270 C.2     1  UNL1        0.0040
     10  C          5.0840    1.9860    0.3220 C.2     1  UNL1        0.0000
     11  C          5.4330    0.1720    1.8230 C.2     1  UNL1        0.0000
     12  C          4.8950    1.4110    1.5530 C.2     1  UNL1        0.0000
@<TRIPOS>BOND
     1     1     6    1
     2     1     2    1
     3     5     4    1
     4     4     2    1
     5     6     7    1
     6     2     3    2
     7     8     7    2
     8     8    10    1
     9     7     9    1
    10    10    12    2
    11     9    11    2
    12    12    11    1
