@<TRIPOS>MOLECULE
/home/cewinharhar/GITHUB/reincatalyze/data/processed/docking_pred/2023_Apr_20-15:07/db6d960fae65c9d90f474a1e8ae318b6f28ec3f2_ligand_2.pdbqt
 12 12 0 0 0
SMALL
GASTEIGER

@<TRIPOS>ATOM
      1  C          8.4240   -0.5500   -2.2220 C.3     1  UNL1        0.1270
      2  C          8.4870   -1.8600   -2.9130 C.2     1  UNL1        0.3030
      3  O          9.5780   -2.4610   -3.0690 O.2     1  UNL1       -0.2520
      4  O          7.3390   -2.4580   -3.4070 O.3     1  UNL1       -0.4810
      5  H          6.5920   -1.8700   -3.7870 H       1  UNL1        0.2960
      6  C          6.9920   -0.1110   -2.1750 C.3     1  UNL1        0.0470
      7  C          6.4700    0.0660   -0.8210 C.2     1  UNL1       -0.0470
      8  C          5.8460    1.2360   -0.4550 C.2     1  UNL1        0.0040
      9  C          6.6060   -0.9560    0.0900 C.2     1  UNL1        0.0040
     10  C          5.3700    1.3350    0.8540 C.2     1  UNL1        0.0000
     11  C          6.1350   -0.8560    1.3850 C.2     1  UNL1        0.0000
     12  C          5.5100    0.3130    1.7590 C.2     1  UNL1        0.0000
@<TRIPOS>BOND
     1     5     4    1
     2     4     2    1
     3     3     2    2
     4     2     1    1
     5     1     6    1
     6     6     7    1
     7     7     8    2
     8     7     9    1
     9     8    10    1
    10     9    11    2
    11    10    12    2
    12    11    12    1
