@<TRIPOS>MOLECULE
/home/cewinharhar/GITHUB/reincatalyze/data/processed/docking_pred/2023_Apr_20-15:07/db6d960fae65c9d90f474a1e8ae318b6f28ec3f2_ligand_2.pdbqt
 12 12 0 0 0
SMALL
GASTEIGER

@<TRIPOS>ATOM
      1  C          5.0470    1.7760    0.6880 C.3     1  UNL1        0.1270
      2  C          4.5870    1.0770    1.9110 C.2     1  UNL1        0.3030
      3  O          5.3030    0.2140    2.4760 O.2     1  UNL1       -0.2520
      4  O          3.3490    1.3580    2.4660 O.3     1  UNL1       -0.4810
      5  H          3.2090    2.2460    2.9560 H       1  UNL1        0.2960
      6  C          6.5460    1.7920    0.6910 C.3     1  UNL1        0.0470
      7  C          7.1500    1.0080   -0.3850 C.2     1  UNL1       -0.0470
      8  C          6.4020    0.1040   -1.1020 C.2     1  UNL1        0.0040
      9  C          8.4830    1.1850   -0.6770 C.2     1  UNL1        0.0040
     10  C          7.0450   -0.6100   -2.1160 C.2     1  UNL1        0.0000
     11  C          9.1170    0.4780   -1.6800 C.2     1  UNL1        0.0000
     12  C          8.3740   -0.4300   -2.4030 C.2     1  UNL1        0.0000
@<TRIPOS>BOND
     1    12    10    2
     2    12    11    1
     3    10     8    1
     4    11     9    2
     5     8     7    2
     6     9     7    1
     7     7     6    1
     8     1     6    1
     9     1     2    1
    10     2     4    1
    11     2     3    2
    12     4     5    1
