MODEL 1
REMARK VINA RESULT:      -7.3      0.000      0.000
REMARK SMILES O=C(O)CCc1ccccc1
REMARK SMILES IDX 4 1 2 2 1 3 3 4 5 6 6 7 7 8 11 9 8 10 10 11 9 12
REMARK H PARENT 3 5
REMARK Flexibility Score: inf
ROOT
ATOM      1  C   UNL     1       8.424  -0.550  -2.222  1.00  0.00     0.127 C 
ENDROOT
BRANCH   1   2
ATOM      2  C   UNL     1       8.487  -1.860  -2.913  1.00  0.00     0.303 C 
ATOM      3  O   UNL     1       9.578  -2.461  -3.069  1.00  0.00    -0.252 OA
BRANCH   2   4
ATOM      4  O   UNL     1       7.339  -2.458  -3.407  1.00  0.00    -0.481 OA
ATOM      5  H   UNL     1       6.592  -1.870  -3.787  1.00  0.00     0.296 HD
ENDBRANCH   2   4
ENDBRANCH   1   2
BRANCH   1   6
ATOM      6  C   UNL     1       6.992  -0.111  -2.175  1.00  0.00     0.047 C 
BRANCH   6   7
ATOM      7  C   UNL     1       6.470   0.066  -0.821  1.00  0.00    -0.047 A 
ATOM      8  C   UNL     1       5.846   1.236  -0.455  1.00  0.00     0.004 A 
ATOM      9  C   UNL     1       6.606  -0.956   0.090  1.00  0.00     0.004 A 
ATOM     10  C   UNL     1       5.370   1.335   0.854  1.00  0.00     0.000 A 
ATOM     11  C   UNL     1       6.135  -0.856   1.385  1.00  0.00     0.000 A 
ATOM     12  C   UNL     1       5.510   0.313   1.759  1.00  0.00     0.000 A 
ENDBRANCH   6   7
ENDBRANCH   1   6
TORSDOF 4
ENDMDL
MODEL 2
REMARK VINA RESULT:      -7.2      0.192      1.737
REMARK SMILES O=C(O)CCc1ccccc1
REMARK SMILES IDX 4 1 2 2 1 3 3 4 5 6 6 7 7 8 11 9 8 10 10 11 9 12
REMARK H PARENT 3 5
REMARK Flexibility Score: inf
ROOT
ATOM      1  C   UNL     1       8.426  -0.686  -2.048  1.00  0.00     0.127 C 
ENDROOT
BRANCH   1   2
ATOM      2  C   UNL     1       8.385  -1.918  -2.871  1.00  0.00     0.303 C 
ATOM      3  O   UNL     1       7.293  -2.416  -3.242  1.00  0.00    -0.252 OA
BRANCH   2   4
ATOM      4  O   UNL     1       9.553  -2.557  -3.253  1.00  0.00    -0.481 OA
ATOM      5  H   UNL     1      10.454  -2.111  -3.058  1.00  0.00     0.296 HD
ENDBRANCH   2   4
ENDBRANCH   1   2
BRANCH   1   6
ATOM      6  C   UNL     1       7.064  -0.063  -2.064  1.00  0.00     0.047 C 
BRANCH   6   7
ATOM      7  C   UNL     1       6.474   0.112  -0.738  1.00  0.00    -0.047 A 
ATOM      8  C   UNL     1       6.593  -0.868   0.220  1.00  0.00     0.004 A 
ATOM      9  C   UNL     1       5.797   1.275  -0.453  1.00  0.00     0.004 A 
ATOM     10  C   UNL     1       6.006  -0.633   1.465  1.00  0.00     0.000 A 
ATOM     11  C   UNL     1       5.216   1.505   0.779  1.00  0.00     0.000 A 
ATOM     12  C   UNL     1       5.330   0.528   1.743  1.00  0.00     0.000 A 
ENDBRANCH   6   7
ENDBRANCH   1   6
TORSDOF 4
ENDMDL
MODEL 3
REMARK VINA RESULT:      -6.7      3.349      5.040
REMARK SMILES O=C(O)CCc1ccccc1
REMARK SMILES IDX 4 1 2 2 1 3 3 4 5 6 6 7 7 8 11 9 8 10 10 11 9 12
REMARK H PARENT 3 5
REMARK Flexibility Score: inf
ROOT
ATOM      1  C   UNL     1       5.047   1.776   0.688  1.00  0.00     0.127 C 
ENDROOT
BRANCH   1   2
ATOM      2  C   UNL     1       4.587   1.077   1.911  1.00  0.00     0.303 C 
ATOM      3  O   UNL     1       5.303   0.214   2.476  1.00  0.00    -0.252 OA
BRANCH   2   4
ATOM      4  O   UNL     1       3.349   1.358   2.466  1.00  0.00    -0.481 OA
ATOM      5  H   UNL     1       3.209   2.246   2.956  1.00  0.00     0.296 HD
ENDBRANCH   2   4
ENDBRANCH   1   2
BRANCH   1   6
ATOM      6  C   UNL     1       6.546   1.792   0.691  1.00  0.00     0.047 C 
BRANCH   6   7
ATOM      7  C   UNL     1       7.150   1.008  -0.385  1.00  0.00    -0.047 A 
ATOM      8  C   UNL     1       6.402   0.104  -1.102  1.00  0.00     0.004 A 
ATOM      9  C   UNL     1       8.483   1.185  -0.677  1.00  0.00     0.004 A 
ATOM     10  C   UNL     1       7.045  -0.610  -2.116  1.00  0.00     0.000 A 
ATOM     11  C   UNL     1       9.117   0.478  -1.680  1.00  0.00     0.000 A 
ATOM     12  C   UNL     1       8.374  -0.430  -2.403  1.00  0.00     0.000 A 
ENDBRANCH   6   7
ENDBRANCH   1   6
TORSDOF 4
ENDMDL
MODEL 4
REMARK VINA RESULT:      -6.6      1.925      2.231
REMARK SMILES O=C(O)CCc1ccccc1
REMARK SMILES IDX 4 1 2 2 1 3 3 4 5 6 6 7 7 8 11 9 8 10 10 11 9 12
REMARK H PARENT 3 5
REMARK Flexibility Score: inf
ROOT
ATOM      1  C   UNL     1       8.156   0.230  -2.107  1.00  0.00     0.127 C 
ENDROOT
BRANCH   1   2
ATOM      2  C   UNL     1       9.329   0.357  -1.209  1.00  0.00     0.303 C 
ATOM      3  O   UNL     1       9.459  -0.382  -0.202  1.00  0.00    -0.252 OA
BRANCH   2   4
ATOM      4  O   UNL     1      10.316   1.296  -1.458  1.00  0.00    -0.481 OA
ATOM      5  H   UNL     1      11.080   1.063  -2.098  1.00  0.00     0.296 HD
ENDBRANCH   2   4
ENDBRANCH   1   2
BRANCH   1   6
ATOM      6  C   UNL     1       7.123  -0.606  -1.417  1.00  0.00     0.047 C 
BRANCH   6   7
ATOM      7  C   UNL     1       6.348   0.117  -0.410  1.00  0.00    -0.047 A 
ATOM      8  C   UNL     1       5.814   1.354  -0.687  1.00  0.00     0.004 A 
ATOM      9  C   UNL     1       6.154  -0.455   0.827  1.00  0.00     0.004 A 
ATOM     10  C   UNL     1       5.084   1.986   0.322  1.00  0.00     0.000 A 
ATOM     11  C   UNL     1       5.433   0.172   1.823  1.00  0.00     0.000 A 
ATOM     12  C   UNL     1       4.895   1.411   1.553  1.00  0.00     0.000 A 
ENDBRANCH   6   7
ENDBRANCH   1   6
TORSDOF 4
ENDMDL
MODEL 5
REMARK VINA RESULT:      -6.5      3.685      4.916
REMARK SMILES O=C(O)CCc1ccccc1
REMARK SMILES IDX 4 1 2 2 1 3 3 4 5 6 6 7 7 8 11 9 8 10 10 11 9 12
REMARK H PARENT 3 5
REMARK Flexibility Score: inf
ROOT
ATOM      1  C   UNL     1       5.313   2.854  -0.012  1.00  0.00     0.127 C 
ENDROOT
BRANCH   1   2
ATOM      2  C   UNL     1       6.142   3.762   0.815  1.00  0.00     0.303 C 
ATOM      3  O   UNL     1       6.193   3.640   2.064  1.00  0.00    -0.252 OA
BRANCH   2   4
ATOM      4  O   UNL     1       6.885   4.775   0.230  1.00  0.00    -0.481 OA
ATOM      5  H   UNL     1       7.318   4.614  -0.684  1.00  0.00     0.296 HD
ENDBRANCH   2   4
ENDBRANCH   1   2
BRANCH   1   6
ATOM      6  C   UNL     1       5.181   1.548   0.711  1.00  0.00     0.047 C 
BRANCH   6   7
ATOM      7  C   UNL     1       6.046   0.490   0.190  1.00  0.00    -0.047 A 
ATOM      8  C   UNL     1       6.397   0.460  -1.139  1.00  0.00     0.004 A 
ATOM      9  C   UNL     1       6.510  -0.480   1.048  1.00  0.00     0.004 A 
ATOM     10  C   UNL     1       7.227  -0.579  -1.567  1.00  0.00     0.000 A 
ATOM     11  C   UNL     1       7.329  -1.507   0.624  1.00  0.00     0.000 A 
ATOM     12  C   UNL     1       7.686  -1.545  -0.707  1.00  0.00     0.000 A 
ENDBRANCH   6   7
ENDBRANCH   1   6
TORSDOF 4
ENDMDL
