@<TRIPOS>MOLECULE
/home/cewinharhar/GITHUB/reincatalyze/data/processed/docking_pred/2023_Apr_20-15:07/dba3942d2f0306a5a819952336ad453bb769fd78_ligand_2.pdbqt
 12 12 0 0 0
SMALL
GASTEIGER

@<TRIPOS>ATOM
      1  C          8.4920    0.6750   -1.6600 C.3     1  UNL1        0.1270
      2  C          9.6400    0.2830   -0.8100 C.2     1  UNL1        0.3030
      3  O          9.4980   -0.5170    0.1480 O.2     1  UNL1       -0.2520
      4  O         10.9070    0.7910   -1.0490 O.3     1  UNL1       -0.4810
      5  H         11.0190    1.5670   -1.7070 H       1  UNL1        0.2960
      6  C          7.3320   -0.2120   -1.3220 C.3     1  UNL1        0.0470
      7  C          6.4230    0.3520   -0.3260 C.2     1  UNL1       -0.0470
      8  C          5.8110    1.5650   -0.5380 C.2     1  UNL1        0.0040
      9  C          6.1820   -0.3470    0.8350 C.2     1  UNL1        0.0040
     10  C          4.9540    2.0430    0.4560 C.2     1  UNL1        0.0000
     11  C          5.3350    0.1270    1.8170 C.2     1  UNL1        0.0000
     12  C          4.7180    1.3420    1.6120 C.2     1  UNL1        0.0000
@<TRIPOS>BOND
     1     5     4    1
     2     1     6    1
     3     1     2    1
     4     6     7    1
     5     4     2    1
     6     2     3    2
     7     8     7    2
     8     8    10    1
     9     7     9    1
    10    10    12    2
    11     9    11    2
    12    12    11    1
