@<TRIPOS>MOLECULE
/home/cewinharhar/GITHUB/reincatalyze/data/processed/docking_pred/2023_Apr_20-15:07/dba3942d2f0306a5a819952336ad453bb769fd78_ligand_2.pdbqt
 12 12 0 0 0
SMALL
GASTEIGER

@<TRIPOS>ATOM
      1  C          5.3670    2.7920    0.0350 C.3     1  UNL1        0.1270
      2  C          6.1440    3.8230    0.7620 C.2     1  UNL1        0.3030
      3  O          6.8660    4.6470    0.1480 O.2     1  UNL1       -0.2520
      4  O          6.0950    3.9050    2.1450 O.3     1  UNL1       -0.4810
      5  H          5.4090    3.3430    2.6560 H       1  UNL1        0.2960
      6  C          4.9170    1.7580    1.0230 C.3     1  UNL1        0.0470
      7  C          5.7470    0.5550    1.0450 C.2     1  UNL1       -0.0470
      8  C          5.7940   -0.2470    2.1610 C.2     1  UNL1        0.0040
      9  C          6.4850    0.2290   -0.0700 C.2     1  UNL1        0.0040
     10  C          6.6080   -1.3810    2.1110 C.2     1  UNL1        0.0000
     11  C          7.2890   -0.8920   -0.1170 C.2     1  UNL1        0.0000
     12  C          7.3420   -1.7010    0.9970 C.2     1  UNL1        0.0000
@<TRIPOS>BOND
     1    11     9    1
     2    11    12    2
     3     9     7    2
     4     1     2    1
     5     1     6    1
     6     3     2    2
     7     2     4    1
     8    12    10    1
     9     6     7    1
    10     7     8    1
    11    10     8    2
    12     4     5    1
