@<TRIPOS>MOLECULE
/home/cewinharhar/GITHUB/reincatalyze/data/processed/docking_pred/2023_Apr_20-15:07/dba3942d2f0306a5a819952336ad453bb769fd78_ligand_2.pdbqt
 12 12 0 0 0
SMALL
GASTEIGER

@<TRIPOS>ATOM
      1  C          5.0110    1.6780    0.6610 C.3     1  UNL1        0.1270
      2  C          4.5720    1.0250    1.9170 C.2     1  UNL1        0.3030
      3  O          5.2980    0.1830    2.5010 O.2     1  UNL1       -0.2520
      4  O          3.3440    1.3280    2.4840 O.3     1  UNL1       -0.4810
      5  H          2.5230    0.7730    2.2270 H       1  UNL1        0.2960
      6  C          6.5060    1.7680    0.6750 C.3     1  UNL1        0.0470
      7  C          7.1580    1.0050   -0.3880 C.2     1  UNL1       -0.0470
      8  C          6.4460    0.1020   -1.1430 C.2     1  UNL1        0.0040
      9  C          8.4980    1.2010   -0.6310 C.2     1  UNL1        0.0040
     10  C          7.1320   -0.5910   -2.1430 C.2     1  UNL1        0.0000
     11  C          9.1750    0.5140   -1.6190 C.2     1  UNL1        0.0000
     12  C          8.4690   -0.3930   -2.3790 C.2     1  UNL1        0.0000
@<TRIPOS>BOND
     1    12    10    2
     2    12    11    1
     3    10     8    1
     4    11     9    2
     5     8     7    2
     6     9     7    1
     7     7     6    1
     8     1     6    1
     9     1     2    1
    10     2     4    1
    11     2     3    2
    12     5     4    1
