@<TRIPOS>MOLECULE
/home/cewinharhar/GITHUB/reincatalyze/data/processed/docking_pred/2023_Apr_20-15:07/dba3942d2f0306a5a819952336ad453bb769fd78_ligand_2.pdbqt
 12 12 0 0 0
SMALL
GASTEIGER

@<TRIPOS>ATOM
      1  C          8.4470   -0.6070   -2.1390 C.3     1  UNL1        0.1270
      2  C          8.3990   -1.8850   -2.8880 C.2     1  UNL1        0.3030
      3  O          7.3050   -2.4090   -3.2120 O.2     1  UNL1       -0.2520
      4  O          9.5660   -2.5380   -3.2520 O.3     1  UNL1       -0.4810
      5  H          9.5650   -3.1390   -4.0810 H       1  UNL1        0.2960
      6  C          7.0650   -0.0290   -2.1050 C.3     1  UNL1        0.0470
      7  C          6.5030    0.0890   -0.7600 C.2     1  UNL1       -0.0470
      8  C          6.6350   -0.9340    0.1490 C.2     1  UNL1        0.0040
      9  C          5.8390    1.2420   -0.4100 C.2     1  UNL1        0.0040
     10  C          6.0740   -0.7520    1.4160 C.2     1  UNL1        0.0000
     11  C          5.2850    1.4200    0.8430 C.2     1  UNL1        0.0000
     12  C          5.4120    0.4000    1.7600 C.2     1  UNL1        0.0000
@<TRIPOS>BOND
     1     5     4    1
     2     4     2    1
     3     3     2    2
     4     2     1    1
     5     1     6    1
     6     6     7    1
     7     7     9    2
     8     7     8    1
     9     9    11    1
    10     8    10    2
    11    11    12    2
    12    10    12    1
