@<TRIPOS>MOLECULE
/home/cewinharhar/GITHUB/reincatalyze/data/processed/docking_pred/2023_Apr_20-15:07/dba3942d2f0306a5a819952336ad453bb769fd78_ligand_2.pdbqt
 12 12 0 0 0
SMALL
GASTEIGER

@<TRIPOS>ATOM
      1  C          8.4260   -0.5790   -2.1840 C.3     1  UNL1        0.1270
      2  C          8.4800   -1.8680   -2.9130 C.2     1  UNL1        0.3030
      3  O          9.5670   -2.4690   -3.0930 O.2     1  UNL1       -0.2520
      4  O          7.3260   -2.4470   -3.4180 O.3     1  UNL1       -0.4810
      5  H          7.3430   -3.4290   -3.7060 H       1  UNL1        0.2960
      6  C          7.0010   -0.1170   -2.1490 C.3     1  UNL1        0.0470
      7  C          6.4690    0.0670   -0.8000 C.2     1  UNL1       -0.0470
      8  C          5.8400    1.2380   -0.4460 C.2     1  UNL1        0.0040
      9  C          6.6000   -0.9490    0.1180 C.2     1  UNL1        0.0040
     10  C          5.3550    1.3450    0.8600 C.2     1  UNL1        0.0000
     11  C          6.1210   -0.8420    1.4080 C.2     1  UNL1        0.0000
     12  C          5.4900    0.3280    1.7720 C.2     1  UNL1        0.0000
@<TRIPOS>BOND
     1     5     4    1
     2     4     2    1
     3     3     2    2
     4     2     1    1
     5     1     6    1
     6     6     7    1
     7     7     8    2
     8     7     9    1
     9     8    10    1
    10     9    11    2
    11    10    12    2
    12    11    12    1
