MODEL 1
REMARK VINA RESULT:      -7.3      0.000      0.000
REMARK SMILES O=C(O)CCc1ccccc1
REMARK SMILES IDX 4 1 2 2 1 3 3 4 5 6 6 7 7 8 11 9 8 10 10 11 9 12
REMARK H PARENT 3 5
REMARK Flexibility Score: inf
ROOT
ATOM      1  C   UNL     1       8.426  -0.579  -2.184  1.00  0.00     0.127 C 
ENDROOT
BRANCH   1   2
ATOM      2  C   UNL     1       8.480  -1.868  -2.913  1.00  0.00     0.303 C 
ATOM      3  O   UNL     1       9.567  -2.469  -3.093  1.00  0.00    -0.252 OA
BRANCH   2   4
ATOM      4  O   UNL     1       7.326  -2.447  -3.418  1.00  0.00    -0.481 OA
ATOM      5  H   UNL     1       7.343  -3.429  -3.706  1.00  0.00     0.296 HD
ENDBRANCH   2   4
ENDBRANCH   1   2
BRANCH   1   6
ATOM      6  C   UNL     1       7.001  -0.117  -2.149  1.00  0.00     0.047 C 
BRANCH   6   7
ATOM      7  C   UNL     1       6.469   0.067  -0.800  1.00  0.00    -0.047 A 
ATOM      8  C   UNL     1       5.840   1.238  -0.446  1.00  0.00     0.004 A 
ATOM      9  C   UNL     1       6.600  -0.949   0.118  1.00  0.00     0.004 A 
ATOM     10  C   UNL     1       5.355   1.345   0.860  1.00  0.00     0.000 A 
ATOM     11  C   UNL     1       6.121  -0.842   1.408  1.00  0.00     0.000 A 
ATOM     12  C   UNL     1       5.490   0.328   1.772  1.00  0.00     0.000 A 
ENDBRANCH   6   7
ENDBRANCH   1   6
TORSDOF 4
ENDMDL
MODEL 2
REMARK VINA RESULT:      -7.3      0.112      1.731
REMARK SMILES O=C(O)CCc1ccccc1
REMARK SMILES IDX 4 1 2 2 1 3 3 4 5 6 6 7 7 8 11 9 8 10 10 11 9 12
REMARK H PARENT 3 5
REMARK Flexibility Score: inf
ROOT
ATOM      1  C   UNL     1       8.447  -0.607  -2.139  1.00  0.00     0.127 C 
ENDROOT
BRANCH   1   2
ATOM      2  C   UNL     1       8.399  -1.885  -2.888  1.00  0.00     0.303 C 
ATOM      3  O   UNL     1       7.305  -2.409  -3.212  1.00  0.00    -0.252 OA
BRANCH   2   4
ATOM      4  O   UNL     1       9.566  -2.538  -3.252  1.00  0.00    -0.481 OA
ATOM      5  H   UNL     1       9.565  -3.139  -4.081  1.00  0.00     0.296 HD
ENDBRANCH   2   4
ENDBRANCH   1   2
BRANCH   1   6
ATOM      6  C   UNL     1       7.065  -0.029  -2.105  1.00  0.00     0.047 C 
BRANCH   6   7
ATOM      7  C   UNL     1       6.503   0.089  -0.760  1.00  0.00    -0.047 A 
ATOM      8  C   UNL     1       6.635  -0.934   0.149  1.00  0.00     0.004 A 
ATOM      9  C   UNL     1       5.839   1.242  -0.410  1.00  0.00     0.004 A 
ATOM     10  C   UNL     1       6.074  -0.752   1.416  1.00  0.00     0.000 A 
ATOM     11  C   UNL     1       5.285   1.420   0.843  1.00  0.00     0.000 A 
ATOM     12  C   UNL     1       5.412   0.400   1.760  1.00  0.00     0.000 A 
ENDBRANCH   6   7
ENDBRANCH   1   6
TORSDOF 4
ENDMDL
MODEL 3
REMARK VINA RESULT:      -6.7      3.352      5.049
REMARK SMILES O=C(O)CCc1ccccc1
REMARK SMILES IDX 4 1 2 2 1 3 3 4 5 6 6 7 7 8 11 9 8 10 10 11 9 12
REMARK H PARENT 3 5
REMARK Flexibility Score: inf
ROOT
ATOM      1  C   UNL     1       5.011   1.678   0.661  1.00  0.00     0.127 C 
ENDROOT
BRANCH   1   2
ATOM      2  C   UNL     1       4.572   1.025   1.917  1.00  0.00     0.303 C 
ATOM      3  O   UNL     1       5.298   0.183   2.501  1.00  0.00    -0.252 OA
BRANCH   2   4
ATOM      4  O   UNL     1       3.344   1.328   2.484  1.00  0.00    -0.481 OA
ATOM      5  H   UNL     1       2.523   0.773   2.227  1.00  0.00     0.296 HD
ENDBRANCH   2   4
ENDBRANCH   1   2
BRANCH   1   6
ATOM      6  C   UNL     1       6.506   1.768   0.675  1.00  0.00     0.047 C 
BRANCH   6   7
ATOM      7  C   UNL     1       7.158   1.005  -0.388  1.00  0.00    -0.047 A 
ATOM      8  C   UNL     1       6.446   0.102  -1.143  1.00  0.00     0.004 A 
ATOM      9  C   UNL     1       8.498   1.201  -0.631  1.00  0.00     0.004 A 
ATOM     10  C   UNL     1       7.132  -0.591  -2.143  1.00  0.00     0.000 A 
ATOM     11  C   UNL     1       9.175   0.514  -1.619  1.00  0.00     0.000 A 
ATOM     12  C   UNL     1       8.469  -0.393  -2.379  1.00  0.00     0.000 A 
ENDBRANCH   6   7
ENDBRANCH   1   6
TORSDOF 4
ENDMDL
MODEL 4
REMARK VINA RESULT:      -6.6      3.777      4.983
REMARK SMILES O=C(O)CCc1ccccc1
REMARK SMILES IDX 4 1 2 2 1 3 3 4 5 6 6 7 7 8 11 9 8 10 10 11 9 12
REMARK H PARENT 3 5
REMARK Flexibility Score: inf
ROOT
ATOM      1  C   UNL     1       5.367   2.792   0.035  1.00  0.00     0.127 C 
ENDROOT
BRANCH   1   2
ATOM      2  C   UNL     1       6.144   3.823   0.762  1.00  0.00     0.303 C 
ATOM      3  O   UNL     1       6.866   4.647   0.148  1.00  0.00    -0.252 OA
BRANCH   2   4
ATOM      4  O   UNL     1       6.095   3.905   2.145  1.00  0.00    -0.481 OA
ATOM      5  H   UNL     1       5.409   3.343   2.656  1.00  0.00     0.296 HD
ENDBRANCH   2   4
ENDBRANCH   1   2
BRANCH   1   6
ATOM      6  C   UNL     1       4.917   1.758   1.023  1.00  0.00     0.047 C 
BRANCH   6   7
ATOM      7  C   UNL     1       5.747   0.555   1.045  1.00  0.00    -0.047 A 
ATOM      8  C   UNL     1       5.794  -0.247   2.161  1.00  0.00     0.004 A 
ATOM      9  C   UNL     1       6.485   0.229  -0.070  1.00  0.00     0.004 A 
ATOM     10  C   UNL     1       6.608  -1.381   2.111  1.00  0.00     0.000 A 
ATOM     11  C   UNL     1       7.289  -0.892  -0.117  1.00  0.00     0.000 A 
ATOM     12  C   UNL     1       7.342  -1.701   0.997  1.00  0.00     0.000 A 
ENDBRANCH   6   7
ENDBRANCH   1   6
TORSDOF 4
ENDMDL
MODEL 5
REMARK VINA RESULT:      -6.5      2.081      2.373
REMARK SMILES O=C(O)CCc1ccccc1
REMARK SMILES IDX 4 1 2 2 1 3 3 4 5 6 6 7 7 8 11 9 8 10 10 11 9 12
REMARK H PARENT 3 5
REMARK Flexibility Score: inf
ROOT
ATOM      1  C   UNL     1       8.492   0.675  -1.660  1.00  0.00     0.127 C 
ENDROOT
BRANCH   1   2
ATOM      2  C   UNL     1       9.640   0.283  -0.810  1.00  0.00     0.303 C 
ATOM      3  O   UNL     1       9.498  -0.517   0.148  1.00  0.00    -0.252 OA
BRANCH   2   4
ATOM      4  O   UNL     1      10.907   0.791  -1.049  1.00  0.00    -0.481 OA
ATOM      5  H   UNL     1      11.019   1.567  -1.707  1.00  0.00     0.296 HD
ENDBRANCH   2   4
ENDBRANCH   1   2
BRANCH   1   6
ATOM      6  C   UNL     1       7.332  -0.212  -1.322  1.00  0.00     0.047 C 
BRANCH   6   7
ATOM      7  C   UNL     1       6.423   0.352  -0.326  1.00  0.00    -0.047 A 
ATOM      8  C   UNL     1       5.811   1.565  -0.538  1.00  0.00     0.004 A 
ATOM      9  C   UNL     1       6.182  -0.347   0.835  1.00  0.00     0.004 A 
ATOM     10  C   UNL     1       4.954   2.043   0.456  1.00  0.00     0.000 A 
ATOM     11  C   UNL     1       5.335   0.127   1.817  1.00  0.00     0.000 A 
ATOM     12  C   UNL     1       4.718   1.342   1.612  1.00  0.00     0.000 A 
ENDBRANCH   6   7
ENDBRANCH   1   6
TORSDOF 4
ENDMDL
