@<TRIPOS>MOLECULE
/home/cewinharhar/GITHUB/reincatalyze/data/processed/docking_pred/2023_Apr_20-15:07/dd626561b0241c753f5aa586a778cbbb50e2da15_ligand_2.pdbqt
 12 12 0 0 0
SMALL
GASTEIGER

@<TRIPOS>ATOM
      1  C          8.4480   -0.6570   -2.1110 C.3     1  UNL1        0.1270
      2  C          8.4720   -1.9020   -2.9130 C.2     1  UNL1        0.3030
      3  O          9.5410   -2.5330   -3.1050 O.2     1  UNL1       -0.2520
      4  O          7.3110   -2.4060   -3.4770 O.3     1  UNL1       -0.4810
      5  H          6.5250   -1.7740   -3.6550 H       1  UNL1        0.2960
      6  C          7.0480   -0.1230   -2.1110 C.3     1  UNL1        0.0470
      7  C          6.4820    0.0620   -0.7760 C.2     1  UNL1       -0.0470
      8  C          5.8380    1.2310   -0.4410 C.2     1  UNL1        0.0040
      9  C          6.5970   -0.9500    0.1480 C.2     1  UNL1        0.0040
     10  C          5.3210    1.3380    0.8520 C.2     1  UNL1        0.0000
     11  C          6.0860   -0.8430    1.4260 C.2     1  UNL1        0.0000
     12  C          5.4400    0.3250    1.7700 C.2     1  UNL1        0.0000
@<TRIPOS>BOND
     1     5     4    1
     2     4     2    1
     3     3     2    2
     4     2     1    1
     5     1     6    1
     6     6     7    1
     7     7     8    2
     8     7     9    1
     9     8    10    1
    10     9    11    2
    11    10    12    2
    12    11    12    1
