@<TRIPOS>MOLECULE
/home/cewinharhar/GITHUB/reincatalyze/data/processed/docking_pred/2023_Apr_20-15:07/dd626561b0241c753f5aa586a778cbbb50e2da15_ligand_2.pdbqt
 12 12 0 0 0
SMALL
GASTEIGER

@<TRIPOS>ATOM
      1  C          8.4940   -0.6390   -2.1360 C.3     1  UNL1        0.1270
      2  C          8.4950   -1.9090   -2.9000 C.2     1  UNL1        0.3030
      3  O          9.5600   -2.5380   -3.1150 O.2     1  UNL1       -0.2520
      4  O          7.3160   -2.4380   -3.3990 O.3     1  UNL1       -0.4810
      5  H          6.5570   -2.6690   -2.7510 H       1  UNL1        0.2960
      6  C          7.0990   -0.0920   -2.1340 C.3     1  UNL1        0.0470
      7  C          6.5240    0.0630   -0.7990 C.2     1  UNL1       -0.0470
      8  C          6.6590   -0.9280    0.1450 C.2     1  UNL1        0.0040
      9  C          5.8440    1.2190   -0.4910 C.2     1  UNL1        0.0040
     10  C          6.0850   -0.7110    1.4000 C.2     1  UNL1        0.0000
     11  C          5.2770    1.4320    0.7490 C.2     1  UNL1        0.0000
     12  C          5.4070    0.4430    1.7000 C.2     1  UNL1        0.0000
@<TRIPOS>BOND
     1     4     2    1
     2     4     5    1
     3     3     2    2
     4     2     1    1
     5     1     6    1
     6     6     7    1
     7     7     9    2
     8     7     8    1
     9     9    11    1
    10     8    10    2
    11    11    12    2
    12    10    12    1
