MODEL 1
REMARK VINA RESULT:      -7.4      0.000      0.000
REMARK SMILES O=C(O)CCc1ccccc1
REMARK SMILES IDX 4 1 2 2 1 3 3 4 5 6 6 7 7 8 11 9 8 10 10 11 9 12
REMARK H PARENT 3 5
REMARK Flexibility Score: inf
ROOT
ATOM      1  C   UNL     1       8.494  -0.639  -2.136  1.00  0.00     0.127 C 
ENDROOT
BRANCH   1   2
ATOM      2  C   UNL     1       8.495  -1.909  -2.900  1.00  0.00     0.303 C 
ATOM      3  O   UNL     1       9.560  -2.538  -3.115  1.00  0.00    -0.252 OA
BRANCH   2   4
ATOM      4  O   UNL     1       7.316  -2.438  -3.399  1.00  0.00    -0.481 OA
ATOM      5  H   UNL     1       6.557  -2.669  -2.751  1.00  0.00     0.296 HD
ENDBRANCH   2   4
ENDBRANCH   1   2
BRANCH   1   6
ATOM      6  C   UNL     1       7.099  -0.092  -2.134  1.00  0.00     0.047 C 
BRANCH   6   7
ATOM      7  C   UNL     1       6.524   0.063  -0.799  1.00  0.00    -0.047 A 
ATOM      8  C   UNL     1       6.659  -0.928   0.145  1.00  0.00     0.004 A 
ATOM      9  C   UNL     1       5.844   1.219  -0.491  1.00  0.00     0.004 A 
ATOM     10  C   UNL     1       6.085  -0.711   1.400  1.00  0.00     0.000 A 
ATOM     11  C   UNL     1       5.277   1.432   0.749  1.00  0.00     0.000 A 
ATOM     12  C   UNL     1       5.407   0.443   1.700  1.00  0.00     0.000 A 
ENDBRANCH   6   7
ENDBRANCH   1   6
TORSDOF 4
ENDMDL
MODEL 2
REMARK VINA RESULT:      -7.4      0.088      1.439
REMARK SMILES O=C(O)CCc1ccccc1
REMARK SMILES IDX 4 1 2 2 1 3 3 4 5 6 6 7 7 8 11 9 8 10 10 11 9 12
REMARK H PARENT 3 5
REMARK Flexibility Score: inf
ROOT
ATOM      1  C   UNL     1       8.448  -0.657  -2.111  1.00  0.00     0.127 C 
ENDROOT
BRANCH   1   2
ATOM      2  C   UNL     1       8.472  -1.902  -2.913  1.00  0.00     0.303 C 
ATOM      3  O   UNL     1       9.541  -2.533  -3.105  1.00  0.00    -0.252 OA
BRANCH   2   4
ATOM      4  O   UNL     1       7.311  -2.406  -3.477  1.00  0.00    -0.481 OA
ATOM      5  H   UNL     1       6.525  -1.774  -3.655  1.00  0.00     0.296 HD
ENDBRANCH   2   4
ENDBRANCH   1   2
BRANCH   1   6
ATOM      6  C   UNL     1       7.048  -0.123  -2.111  1.00  0.00     0.047 C 
BRANCH   6   7
ATOM      7  C   UNL     1       6.482   0.062  -0.776  1.00  0.00    -0.047 A 
ATOM      8  C   UNL     1       5.838   1.231  -0.441  1.00  0.00     0.004 A 
ATOM      9  C   UNL     1       6.597  -0.950   0.148  1.00  0.00     0.004 A 
ATOM     10  C   UNL     1       5.321   1.338   0.852  1.00  0.00     0.000 A 
ATOM     11  C   UNL     1       6.086  -0.843   1.426  1.00  0.00     0.000 A 
ATOM     12  C   UNL     1       5.440   0.325   1.770  1.00  0.00     0.000 A 
ENDBRANCH   6   7
ENDBRANCH   1   6
TORSDOF 4
ENDMDL
MODEL 3
REMARK VINA RESULT:      -7.1      0.680      1.109
REMARK SMILES O=C(O)CCc1ccccc1
REMARK SMILES IDX 4 1 2 2 1 3 3 4 5 6 6 7 7 8 11 9 8 10 10 11 9 12
REMARK H PARENT 3 5
REMARK Flexibility Score: inf
ROOT
ATOM      1  C   UNL     1       8.350  -1.100  -1.614  1.00  0.00     0.127 C 
ENDROOT
BRANCH   1   2
ATOM      2  C   UNL     1       8.463  -2.044  -2.751  1.00  0.00     0.303 C 
ATOM      3  O   UNL     1       9.580  -2.468  -3.136  1.00  0.00    -0.252 OA
BRANCH   2   4
ATOM      4  O   UNL     1       7.334  -2.484  -3.423  1.00  0.00    -0.481 OA
ATOM      5  H   UNL     1       6.433  -2.494  -2.936  1.00  0.00     0.296 HD
ENDBRANCH   2   4
ENDBRANCH   1   2
BRANCH   1   6
ATOM      6  C   UNL     1       7.191  -1.524  -0.764  1.00  0.00     0.047 C 
BRANCH   6   7
ATOM      7  C   UNL     1       6.465  -0.412  -0.153  1.00  0.00    -0.047 A 
ATOM      8  C   UNL     1       6.063  -0.472   1.161  1.00  0.00     0.004 A 
ATOM      9  C   UNL     1       6.186   0.704  -0.908  1.00  0.00     0.004 A 
ATOM     10  C   UNL     1       5.375   0.627   1.680  1.00  0.00     0.000 A 
ATOM     11  C   UNL     1       5.505   1.789  -0.394  1.00  0.00     0.000 A 
ATOM     12  C   UNL     1       5.098   1.737   0.922  1.00  0.00     0.000 A 
ENDBRANCH   6   7
ENDBRANCH   1   6
TORSDOF 4
ENDMDL
MODEL 4
REMARK VINA RESULT:      -6.8      3.365      5.073
REMARK SMILES O=C(O)CCc1ccccc1
REMARK SMILES IDX 4 1 2 2 1 3 3 4 5 6 6 7 7 8 11 9 8 10 10 11 9 12
REMARK H PARENT 3 5
REMARK Flexibility Score: inf
ROOT
ATOM      1  C   UNL     1       4.990   1.812   0.689  1.00  0.00     0.127 C 
ENDROOT
BRANCH   1   2
ATOM      2  C   UNL     1       4.494   1.127   1.906  1.00  0.00     0.303 C 
ATOM      3  O   UNL     1       5.173   0.235   2.473  1.00  0.00    -0.252 OA
BRANCH   2   4
ATOM      4  O   UNL     1       3.264   1.455   2.453  1.00  0.00    -0.481 OA
ATOM      5  H   UNL     1       3.212   1.736   3.436  1.00  0.00     0.296 HD
ENDBRANCH   2   4
ENDBRANCH   1   2
BRANCH   1   6
ATOM      6  C   UNL     1       6.488   1.819   0.730  1.00  0.00     0.047 C 
BRANCH   6   7
ATOM      7  C   UNL     1       7.116   1.069  -0.356  1.00  0.00    -0.047 A 
ATOM      8  C   UNL     1       6.376   0.214  -1.140  1.00  0.00     0.004 A 
ATOM      9  C   UNL     1       8.462   1.228  -0.591  1.00  0.00     0.004 A 
ATOM     10  C   UNL     1       7.042  -0.470  -2.160  1.00  0.00     0.000 A 
ATOM     11  C   UNL     1       9.119   0.551  -1.600  1.00  0.00     0.000 A 
ATOM     12  C   UNL     1       8.385  -0.308  -2.389  1.00  0.00     0.000 A 
ENDBRANCH   6   7
ENDBRANCH   1   6
TORSDOF 4
ENDMDL
MODEL 5
REMARK VINA RESULT:      -6.7      3.830      5.020
REMARK SMILES O=C(O)CCc1ccccc1
REMARK SMILES IDX 4 1 2 2 1 3 3 4 5 6 6 7 7 8 11 9 8 10 10 11 9 12
REMARK H PARENT 3 5
REMARK Flexibility Score: inf
ROOT
ATOM      1  C   UNL     1       5.400   2.899   0.047  1.00  0.00     0.127 C 
ENDROOT
BRANCH   1   2
ATOM      2  C   UNL     1       6.229   3.859   0.815  1.00  0.00     0.303 C 
ATOM      3  O   UNL     1       6.886   4.759   0.236  1.00  0.00    -0.252 OA
BRANCH   2   4
ATOM      4  O   UNL     1       6.302   3.787   2.197  1.00  0.00    -0.481 OA
ATOM      5  H   UNL     1       5.444   3.645   2.737  1.00  0.00     0.296 HD
ENDBRANCH   2   4
ENDBRANCH   1   2
BRANCH   1   6
ATOM      6  C   UNL     1       4.923   1.833   0.986  1.00  0.00     0.047 C 
BRANCH   6   7
ATOM      7  C   UNL     1       5.722   0.610   0.951  1.00  0.00    -0.047 A 
ATOM      8  C   UNL     1       6.376   0.229  -0.198  1.00  0.00     0.004 A 
ATOM      9  C   UNL     1       5.817  -0.163   2.086  1.00  0.00     0.004 A 
ATOM     10  C   UNL     1       7.121  -0.952  -0.158  1.00  0.00     0.000 A 
ATOM     11  C   UNL     1       6.554  -1.330   2.123  1.00  0.00     0.000 A 
ATOM     12  C   UNL     1       7.211  -1.719   0.976  1.00  0.00     0.000 A 
ENDBRANCH   6   7
ENDBRANCH   1   6
TORSDOF 4
ENDMDL
