@<TRIPOS>MOLECULE
/home/cewinharhar/GITHUB/reincatalyze/data/processed/docking_pred/2023_Apr_20-15:07/dd626561b0241c753f5aa586a778cbbb50e2da15_ligand_2.pdbqt
 12 12 0 0 0
SMALL
GASTEIGER

@<TRIPOS>ATOM
      1  C          8.3500   -1.1000   -1.6140 C.3     1  UNL1        0.1270
      2  C          8.4630   -2.0440   -2.7510 C.2     1  UNL1        0.3030
      3  O          9.5800   -2.4680   -3.1360 O.2     1  UNL1       -0.2520
      4  O          7.3340   -2.4840   -3.4230 O.3     1  UNL1       -0.4810
      5  H          6.4330   -2.4940   -2.9360 H       1  UNL1        0.2960
      6  C          7.1910   -1.5240   -0.7640 C.3     1  UNL1        0.0470
      7  C          6.4650   -0.4120   -0.1530 C.2     1  UNL1       -0.0470
      8  C          6.0630   -0.4720    1.1610 C.2     1  UNL1        0.0040
      9  C          6.1860    0.7040   -0.9080 C.2     1  UNL1        0.0040
     10  C          5.3750    0.6270    1.6800 C.2     1  UNL1        0.0000
     11  C          5.5050    1.7890   -0.3940 C.2     1  UNL1        0.0000
     12  C          5.0980    1.7370    0.9220 C.2     1  UNL1        0.0000
@<TRIPOS>BOND
     1     4     5    1
     2     4     2    1
     3     3     2    2
     4     2     1    1
     5     1     6    1
     6     9    11    1
     7     9     7    2
     8     6     7    1
     9    11    12    2
    10     7     8    1
    11    12    10    1
    12     8    10    2
