@<TRIPOS>MOLECULE
/home/cewinharhar/GITHUB/reincatalyze/data/processed/docking_pred/2023_Apr_20-15:07/dd626561b0241c753f5aa586a778cbbb50e2da15_ligand_2.pdbqt
 12 12 0 0 0
SMALL
GASTEIGER

@<TRIPOS>ATOM
      1  C          4.9900    1.8120    0.6890 C.3     1  UNL1        0.1270
      2  C          4.4940    1.1270    1.9060 C.2     1  UNL1        0.3030
      3  O          5.1730    0.2350    2.4730 O.2     1  UNL1       -0.2520
      4  O          3.2640    1.4550    2.4530 O.3     1  UNL1       -0.4810
      5  H          3.2120    1.7360    3.4360 H       1  UNL1        0.2960
      6  C          6.4880    1.8190    0.7300 C.3     1  UNL1        0.0470
      7  C          7.1160    1.0690   -0.3560 C.2     1  UNL1       -0.0470
      8  C          6.3760    0.2140   -1.1400 C.2     1  UNL1        0.0040
      9  C          8.4620    1.2280   -0.5910 C.2     1  UNL1        0.0040
     10  C          7.0420   -0.4700   -2.1600 C.2     1  UNL1        0.0000
     11  C          9.1190    0.5510   -1.6000 C.2     1  UNL1        0.0000
     12  C          8.3850   -0.3080   -2.3890 C.2     1  UNL1        0.0000
@<TRIPOS>BOND
     1    12    10    2
     2    12    11    1
     3    10     8    1
     4    11     9    2
     5     8     7    2
     6     9     7    1
     7     7     6    1
     8     1     6    1
     9     1     2    1
    10     2     4    1
    11     2     3    2
    12     4     5    1
