@<TRIPOS>MOLECULE
/home/cewinharhar/GITHUB/reincatalyze/data/processed/docking_pred/2023_Apr_20-15:07/dd626561b0241c753f5aa586a778cbbb50e2da15_ligand_2.pdbqt
 12 12 0 0 0
SMALL
GASTEIGER

@<TRIPOS>ATOM
      1  C          5.4000    2.8990    0.0470 C.3     1  UNL1        0.1270
      2  C          6.2290    3.8590    0.8150 C.2     1  UNL1        0.3030
      3  O          6.8860    4.7590    0.2360 O.2     1  UNL1       -0.2520
      4  O          6.3020    3.7870    2.1970 O.3     1  UNL1       -0.4810
      5  H          5.4440    3.6450    2.7370 H       1  UNL1        0.2960
      6  C          4.9230    1.8330    0.9860 C.3     1  UNL1        0.0470
      7  C          5.7220    0.6100    0.9510 C.2     1  UNL1       -0.0470
      8  C          6.3760    0.2290   -0.1980 C.2     1  UNL1        0.0040
      9  C          5.8170   -0.1630    2.0860 C.2     1  UNL1        0.0040
     10  C          7.1210   -0.9520   -0.1580 C.2     1  UNL1        0.0000
     11  C          6.5540   -1.3300    2.1230 C.2     1  UNL1        0.0000
     12  C          7.2110   -1.7190    0.9760 C.2     1  UNL1        0.0000
@<TRIPOS>BOND
     1     8    10    1
     2     8     7    2
     3    10    12    2
     4     1     2    1
     5     1     6    1
     6     3     2    2
     7     2     4    1
     8     7     6    1
     9     7     9    1
    10    12    11    1
    11     9    11    2
    12     4     5    1
