@<TRIPOS>MOLECULE
/home/cewinharhar/GITHUB/reincatalyze/data/processed/docking_pred/2023_Apr_20-15:07/ddb46e737fe602632681221f3e2121514b9159c3_ligand_2.pdbqt
 12 12 0 0 0
SMALL
GASTEIGER

@<TRIPOS>ATOM
      1  C          8.4480   -0.6350   -2.1140 C.3     1  UNL1        0.1270
      2  C          8.4780   -1.8950   -2.8930 C.2     1  UNL1        0.3030
      3  O          9.5570   -2.5030   -3.1060 O.2     1  UNL1       -0.2520
      4  O          7.3130   -2.4390   -3.4090 O.3     1  UNL1       -0.4810
      5  H          7.3510   -2.9630   -4.2870 H       1  UNL1        0.2960
      6  C          7.0420   -0.1180   -2.1100 C.3     1  UNL1        0.0470
      7  C          6.4810    0.0670   -0.7730 C.2     1  UNL1       -0.0470
      8  C          5.8350    1.2330   -0.4360 C.2     1  UNL1        0.0040
      9  C          6.6030   -0.9450    0.1520 C.2     1  UNL1        0.0040
     10  C          5.3230    1.3400    0.8590 C.2     1  UNL1        0.0000
     11  C          6.0960   -0.8380    1.4320 C.2     1  UNL1        0.0000
     12  C          5.4480    0.3280    1.7780 C.2     1  UNL1        0.0000
@<TRIPOS>BOND
     1     5     4    1
     2     4     2    1
     3     3     2    2
     4     2     1    1
     5     1     6    1
     6     6     7    1
     7     7     8    2
     8     7     9    1
     9     8    10    1
    10     9    11    2
    11    10    12    2
    12    11    12    1
