@<TRIPOS>MOLECULE
/home/cewinharhar/GITHUB/reincatalyze/data/processed/docking_pred/2023_Apr_20-15:07/ddb46e737fe602632681221f3e2121514b9159c3_ligand_2.pdbqt
 12 12 0 0 0
SMALL
GASTEIGER

@<TRIPOS>ATOM
      1  C          7.2960   -1.3260   -2.1180 C.3     1  UNL1        0.1270
      2  C          8.7210   -1.3880   -2.5220 C.2     1  UNL1        0.3030
      3  O          9.5380   -0.5030   -2.1660 O.2     1  UNL1       -0.2520
      4  O          9.1910   -2.4290   -3.3070 O.3     1  UNL1       -0.4810
      5  H          8.5340   -3.1380   -3.6450 H       1  UNL1        0.2960
      6  C          7.2310   -1.3230   -0.6210 C.3     1  UNL1        0.0470
      7  C          6.4260   -0.2380   -0.0630 C.2     1  UNL1       -0.0470
      8  C          5.9380   -0.3130    1.2210 C.2     1  UNL1        0.0040
      9  C          6.1600    0.8670   -0.8380 C.2     1  UNL1        0.0040
     10  C          5.1770    0.7610    1.6890 C.2     1  UNL1        0.0000
     11  C          5.4070    1.9280   -0.3740 C.2     1  UNL1        0.0000
     12  C          4.9140    1.8610    0.9110 C.2     1  UNL1        0.0000
@<TRIPOS>BOND
     1     5     4    1
     2     4     2    1
     3     2     3    2
     4     2     1    1
     5     1     6    1
     6     9    11    1
     7     9     7    2
     8     6     7    1
     9    11    12    2
    10     7     8    1
    11    12    10    1
    12     8    10    2
