MODEL 1
REMARK VINA RESULT:      -7.4      0.000      0.000
REMARK SMILES O=C(O)CCc1ccccc1
REMARK SMILES IDX 4 1 2 2 1 3 3 4 5 6 6 7 7 8 11 9 8 10 10 11 9 12
REMARK H PARENT 3 5
REMARK Flexibility Score: inf
ROOT
ATOM      1  C   UNL     1       8.447  -0.627  -2.161  1.00  0.00     0.127 C 
ENDROOT
BRANCH   1   2
ATOM      2  C   UNL     1       8.475  -1.901  -2.917  1.00  0.00     0.303 C 
ATOM      3  O   UNL     1       9.549  -2.528  -3.095  1.00  0.00    -0.252 OA
BRANCH   2   4
ATOM      4  O   UNL     1       7.313  -2.437  -3.448  1.00  0.00    -0.481 OA
ATOM      5  H   UNL     1       7.212  -2.505  -4.465  1.00  0.00     0.296 HD
ENDBRANCH   2   4
ENDBRANCH   1   2
BRANCH   1   6
ATOM      6  C   UNL     1       7.035  -0.126  -2.135  1.00  0.00     0.047 C 
BRANCH   6   7
ATOM      7  C   UNL     1       6.487   0.037  -0.790  1.00  0.00    -0.047 A 
ATOM      8  C   UNL     1       6.616  -0.961   0.148  1.00  0.00     0.004 A 
ATOM      9  C   UNL     1       5.838   1.206  -0.467  1.00  0.00     0.004 A 
ATOM     10  C   UNL     1       6.069  -0.736   1.413  1.00  0.00     0.000 A 
ATOM     11  C   UNL     1       5.297   1.427   0.785  1.00  0.00     0.000 A 
ATOM     12  C   UNL     1       5.422   0.432   1.730  1.00  0.00     0.000 A 
ENDBRANCH   6   7
ENDBRANCH   1   6
TORSDOF 4
ENDMDL
MODEL 2
REMARK VINA RESULT:      -7.3      0.066      1.438
REMARK SMILES O=C(O)CCc1ccccc1
REMARK SMILES IDX 4 1 2 2 1 3 3 4 5 6 6 7 7 8 11 9 8 10 10 11 9 12
REMARK H PARENT 3 5
REMARK Flexibility Score: inf
ROOT
ATOM      1  C   UNL     1       8.448  -0.635  -2.114  1.00  0.00     0.127 C 
ENDROOT
BRANCH   1   2
ATOM      2  C   UNL     1       8.478  -1.895  -2.893  1.00  0.00     0.303 C 
ATOM      3  O   UNL     1       9.557  -2.503  -3.106  1.00  0.00    -0.252 OA
BRANCH   2   4
ATOM      4  O   UNL     1       7.313  -2.439  -3.409  1.00  0.00    -0.481 OA
ATOM      5  H   UNL     1       7.351  -2.963  -4.287  1.00  0.00     0.296 HD
ENDBRANCH   2   4
ENDBRANCH   1   2
BRANCH   1   6
ATOM      6  C   UNL     1       7.042  -0.118  -2.110  1.00  0.00     0.047 C 
BRANCH   6   7
ATOM      7  C   UNL     1       6.481   0.067  -0.773  1.00  0.00    -0.047 A 
ATOM      8  C   UNL     1       5.835   1.233  -0.436  1.00  0.00     0.004 A 
ATOM      9  C   UNL     1       6.603  -0.945   0.152  1.00  0.00     0.004 A 
ATOM     10  C   UNL     1       5.323   1.340   0.859  1.00  0.00     0.000 A 
ATOM     11  C   UNL     1       6.096  -0.838   1.432  1.00  0.00     0.000 A 
ATOM     12  C   UNL     1       5.448   0.328   1.778  1.00  0.00     0.000 A 
ENDBRANCH   6   7
ENDBRANCH   1   6
TORSDOF 4
ENDMDL
MODEL 3
REMARK VINA RESULT:      -7.0      0.985      1.515
REMARK SMILES O=C(O)CCc1ccccc1
REMARK SMILES IDX 4 1 2 2 1 3 3 4 5 6 6 7 7 8 11 9 8 10 10 11 9 12
REMARK H PARENT 3 5
REMARK Flexibility Score: inf
ROOT
ATOM      1  C   UNL     1       7.296  -1.326  -2.118  1.00  0.00     0.127 C 
ENDROOT
BRANCH   1   2
ATOM      2  C   UNL     1       8.721  -1.388  -2.522  1.00  0.00     0.303 C 
ATOM      3  O   UNL     1       9.538  -0.503  -2.166  1.00  0.00    -0.252 OA
BRANCH   2   4
ATOM      4  O   UNL     1       9.191  -2.429  -3.307  1.00  0.00    -0.481 OA
ATOM      5  H   UNL     1       8.534  -3.138  -3.645  1.00  0.00     0.296 HD
ENDBRANCH   2   4
ENDBRANCH   1   2
BRANCH   1   6
ATOM      6  C   UNL     1       7.231  -1.323  -0.621  1.00  0.00     0.047 C 
BRANCH   6   7
ATOM      7  C   UNL     1       6.426  -0.238  -0.063  1.00  0.00    -0.047 A 
ATOM      8  C   UNL     1       5.938  -0.313   1.221  1.00  0.00     0.004 A 
ATOM      9  C   UNL     1       6.160   0.867  -0.838  1.00  0.00     0.004 A 
ATOM     10  C   UNL     1       5.177   0.761   1.689  1.00  0.00     0.000 A 
ATOM     11  C   UNL     1       5.407   1.928  -0.374  1.00  0.00     0.000 A 
ATOM     12  C   UNL     1       4.914   1.861   0.911  1.00  0.00     0.000 A 
ENDBRANCH   6   7
ENDBRANCH   1   6
TORSDOF 4
ENDMDL
MODEL 4
REMARK VINA RESULT:      -6.8      3.383      5.078
REMARK SMILES O=C(O)CCc1ccccc1
REMARK SMILES IDX 4 1 2 2 1 3 3 4 5 6 6 7 7 8 11 9 8 10 10 11 9 12
REMARK H PARENT 3 5
REMARK Flexibility Score: inf
ROOT
ATOM      1  C   UNL     1       4.981   1.818   0.687  1.00  0.00     0.127 C 
ENDROOT
BRANCH   1   2
ATOM      2  C   UNL     1       4.478   1.122   1.895  1.00  0.00     0.303 C 
ATOM      3  O   UNL     1       5.143   0.209   2.444  1.00  0.00    -0.252 OA
BRANCH   2   4
ATOM      4  O   UNL     1       3.256   1.461   2.452  1.00  0.00    -0.481 OA
ATOM      5  H   UNL     1       2.956   2.440   2.445  1.00  0.00     0.296 HD
ENDBRANCH   2   4
ENDBRANCH   1   2
BRANCH   1   6
ATOM      6  C   UNL     1       6.478   1.829   0.739  1.00  0.00     0.047 C 
BRANCH   6   7
ATOM      7  C   UNL     1       7.116   1.086  -0.347  1.00  0.00    -0.047 A 
ATOM      8  C   UNL     1       6.385   0.229  -1.137  1.00  0.00     0.004 A 
ATOM      9  C   UNL     1       8.462   1.253  -0.575  1.00  0.00     0.004 A 
ATOM     10  C   UNL     1       7.059  -0.447  -2.157  1.00  0.00     0.000 A 
ATOM     11  C   UNL     1       9.127   0.584  -1.583  1.00  0.00     0.000 A 
ATOM     12  C   UNL     1       8.403  -0.277  -2.379  1.00  0.00     0.000 A 
ENDBRANCH   6   7
ENDBRANCH   1   6
TORSDOF 4
ENDMDL
MODEL 5
REMARK VINA RESULT:      -6.6      1.923      2.622
REMARK SMILES O=C(O)CCc1ccccc1
REMARK SMILES IDX 4 1 2 2 1 3 3 4 5 6 6 7 7 8 11 9 8 10 10 11 9 12
REMARK H PARENT 3 5
REMARK Flexibility Score: inf
ROOT
ATOM      1  C   UNL     1       8.256   0.322  -2.185  1.00  0.00     0.127 C 
ENDROOT
BRANCH   1   2
ATOM      2  C   UNL     1       9.393   0.332  -1.234  1.00  0.00     0.303 C 
ATOM      3  O   UNL     1       9.418  -0.438  -0.242  1.00  0.00    -0.252 OA
BRANCH   2   4
ATOM      4  O   UNL     1      10.462   1.194  -1.415  1.00  0.00    -0.481 OA
ATOM      5  H   UNL     1      10.642   1.581  -2.345  1.00  0.00     0.296 HD
ENDBRANCH   2   4
ENDBRANCH   1   2
BRANCH   1   6
ATOM      6  C   UNL     1       7.144  -0.480  -1.581  1.00  0.00     0.047 C 
BRANCH   6   7
ATOM      7  C   UNL     1       6.359   0.247  -0.585  1.00  0.00    -0.047 A 
ATOM      8  C   UNL     1       5.800   1.467  -0.884  1.00  0.00     0.004 A 
ATOM      9  C   UNL     1       6.181  -0.305   0.663  1.00  0.00     0.004 A 
ATOM     10  C   UNL     1       5.062   2.105   0.116  1.00  0.00     0.000 A 
ATOM     11  C   UNL     1       5.452   0.326   1.650  1.00  0.00     0.000 A 
ATOM     12  C   UNL     1       4.889   1.550   1.359  1.00  0.00     0.000 A 
ENDBRANCH   6   7
ENDBRANCH   1   6
TORSDOF 4
ENDMDL
