@<TRIPOS>MOLECULE
/home/cewinharhar/GITHUB/reincatalyze/data/processed/docking_pred/2023_Apr_20-15:07/ddb46e737fe602632681221f3e2121514b9159c3_ligand_2.pdbqt
 12 12 0 0 0
SMALL
GASTEIGER

@<TRIPOS>ATOM
      1  C          8.2560    0.3220   -2.1850 C.3     1  UNL1        0.1270
      2  C          9.3930    0.3320   -1.2340 C.2     1  UNL1        0.3030
      3  O          9.4180   -0.4380   -0.2420 O.2     1  UNL1       -0.2520
      4  O         10.4620    1.1940   -1.4150 O.3     1  UNL1       -0.4810
      5  H         10.6420    1.5810   -2.3450 H       1  UNL1        0.2960
      6  C          7.1440   -0.4800   -1.5810 C.3     1  UNL1        0.0470
      7  C          6.3590    0.2470   -0.5850 C.2     1  UNL1       -0.0470
      8  C          5.8000    1.4670   -0.8840 C.2     1  UNL1        0.0040
      9  C          6.1810   -0.3050    0.6630 C.2     1  UNL1        0.0040
     10  C          5.0620    2.1050    0.1160 C.2     1  UNL1        0.0000
     11  C          5.4520    0.3260    1.6500 C.2     1  UNL1        0.0000
     12  C          4.8890    1.5500    1.3590 C.2     1  UNL1        0.0000
@<TRIPOS>BOND
     1     5     4    1
     2     1     6    1
     3     1     2    1
     4     6     7    1
     5     4     2    1
     6     2     3    2
     7     8     7    2
     8     8    10    1
     9     7     9    1
    10    10    12    2
    11     9    11    2
    12    12    11    1
