@<TRIPOS>MOLECULE
/home/cewinharhar/GITHUB/reincatalyze/data/processed/docking_pred/2023_Apr_20-15:07/ddb46e737fe602632681221f3e2121514b9159c3_ligand_2.pdbqt
 12 12 0 0 0
SMALL
GASTEIGER

@<TRIPOS>ATOM
      1  C          8.4470   -0.6270   -2.1610 C.3     1  UNL1        0.1270
      2  C          8.4750   -1.9010   -2.9170 C.2     1  UNL1        0.3030
      3  O          9.5490   -2.5280   -3.0950 O.2     1  UNL1       -0.2520
      4  O          7.3130   -2.4370   -3.4480 O.3     1  UNL1       -0.4810
      5  H          7.2120   -2.5050   -4.4650 H       1  UNL1        0.2960
      6  C          7.0350   -0.1260   -2.1350 C.3     1  UNL1        0.0470
      7  C          6.4870    0.0370   -0.7900 C.2     1  UNL1       -0.0470
      8  C          6.6160   -0.9610    0.1480 C.2     1  UNL1        0.0040
      9  C          5.8380    1.2060   -0.4670 C.2     1  UNL1        0.0040
     10  C          6.0690   -0.7360    1.4130 C.2     1  UNL1        0.0000
     11  C          5.2970    1.4270    0.7850 C.2     1  UNL1        0.0000
     12  C          5.4220    0.4320    1.7300 C.2     1  UNL1        0.0000
@<TRIPOS>BOND
     1     5     4    1
     2     4     2    1
     3     3     2    2
     4     2     1    1
     5     1     6    1
     6     6     7    1
     7     7     9    2
     8     7     8    1
     9     9    11    1
    10     8    10    2
    11    11    12    2
    12    10    12    1
