@<TRIPOS>MOLECULE
/home/cewinharhar/GITHUB/reincatalyze/data/processed/docking_pred/2023_Apr_20-15:07/ddb46e737fe602632681221f3e2121514b9159c3_ligand_2.pdbqt
 12 12 0 0 0
SMALL
GASTEIGER

@<TRIPOS>ATOM
      1  C          4.9810    1.8180    0.6870 C.3     1  UNL1        0.1270
      2  C          4.4780    1.1220    1.8950 C.2     1  UNL1        0.3030
      3  O          5.1430    0.2090    2.4440 O.2     1  UNL1       -0.2520
      4  O          3.2560    1.4610    2.4520 O.3     1  UNL1       -0.4810
      5  H          2.9560    2.4400    2.4450 H       1  UNL1        0.2960
      6  C          6.4780    1.8290    0.7390 C.3     1  UNL1        0.0470
      7  C          7.1160    1.0860   -0.3470 C.2     1  UNL1       -0.0470
      8  C          6.3850    0.2290   -1.1370 C.2     1  UNL1        0.0040
      9  C          8.4620    1.2530   -0.5750 C.2     1  UNL1        0.0040
     10  C          7.0590   -0.4470   -2.1570 C.2     1  UNL1        0.0000
     11  C          9.1270    0.5840   -1.5830 C.2     1  UNL1        0.0000
     12  C          8.4030   -0.2770   -2.3790 C.2     1  UNL1        0.0000
@<TRIPOS>BOND
     1    12    10    2
     2    12    11    1
     3    10     8    1
     4    11     9    2
     5     8     7    2
     6     9     7    1
     7     7     6    1
     8     1     6    1
     9     1     2    1
    10     2     3    2
    11     2     4    1
    12     5     4    1
