@<TRIPOS>MOLECULE
/home/cewinharhar/GITHUB/reincatalyze/data/processed/docking_pred/2023_Apr_20-15:07/de552809cd3cf8423e47c41d2ed627091c55f56d_ligand_2.pdbqt
 12 12 0 0 0
SMALL
GASTEIGER

@<TRIPOS>ATOM
      1  C          8.4550   -0.6020   -2.1560 C.3     1  UNL1        0.1270
      2  C          8.4830   -1.8830   -2.9000 C.2     1  UNL1        0.3030
      3  O          9.5590   -2.5010   -3.0910 O.2     1  UNL1       -0.2520
      4  O          7.3170   -2.4340   -3.4070 O.3     1  UNL1       -0.4810
      5  H          7.3720   -3.2760   -3.9880 H       1  UNL1        0.2960
      6  C          7.0440   -0.0970   -2.1390 C.3     1  UNL1        0.0470
      7  C          6.4910    0.0750   -0.7970 C.2     1  UNL1       -0.0470
      8  C          5.8520    1.2410   -0.4440 C.2     1  UNL1        0.0040
      9  C          6.6130   -0.9470    0.1160 C.2     1  UNL1        0.0040
     10  C          5.3460    1.3360    0.8550 C.2     1  UNL1        0.0000
     11  C          6.1130   -0.8510    1.4000 C.2     1  UNL1        0.0000
     12  C          5.4720    0.3140    1.7610 C.2     1  UNL1        0.0000
@<TRIPOS>BOND
     1     5     4    1
     2     4     2    1
     3     3     2    2
     4     2     1    1
     5     1     6    1
     6     6     7    1
     7     7     8    2
     8     7     9    1
     9     8    10    1
    10     9    11    2
    11    10    12    2
    12    11    12    1
