@<TRIPOS>MOLECULE
/home/cewinharhar/GITHUB/reincatalyze/data/processed/docking_pred/2023_Apr_20-15:07/de552809cd3cf8423e47c41d2ed627091c55f56d_ligand_2.pdbqt
 12 12 0 0 0
SMALL
GASTEIGER

@<TRIPOS>ATOM
      1  C          8.3850   -0.5720   -2.1940 C.3     1  UNL1        0.1270
      2  C          8.3550   -1.8610   -2.9240 C.2     1  UNL1        0.3030
      3  O          7.2680   -2.3930   -3.2600 O.2     1  UNL1       -0.2520
      4  O          9.5290   -2.5170   -3.2570 O.3     1  UNL1       -0.4810
      5  H          9.5900   -3.5310   -3.1290 H       1  UNL1        0.2960
      6  C          6.9860   -0.0430   -2.1140 C.3     1  UNL1        0.0470
      7  C          6.4650    0.0570   -0.7520 C.2     1  UNL1       -0.0470
      8  C          6.6000   -0.9890    0.1320 C.2     1  UNL1        0.0040
      9  C          5.8370    1.2150   -0.3570 C.2     1  UNL1        0.0040
     10  C          6.0800   -0.8230    1.4170 C.2     1  UNL1        0.0000
     11  C          5.3230    1.3780    0.9140 C.2     1  UNL1        0.0000
     12  C          5.4530    0.3340    1.8050 C.2     1  UNL1        0.0000
@<TRIPOS>BOND
     1     3     2    2
     2     4     5    1
     3     4     2    1
     4     2     1    1
     5     1     6    1
     6     6     7    1
     7     7     9    2
     8     7     8    1
     9     9    11    1
    10     8    10    2
    11    11    12    2
    12    10    12    1
