@<TRIPOS>MOLECULE
/home/cewinharhar/GITHUB/reincatalyze/data/processed/docking_pred/2023_Apr_20-15:07/de552809cd3cf8423e47c41d2ed627091c55f56d_ligand_2.pdbqt
 12 12 0 0 0
SMALL
GASTEIGER

@<TRIPOS>ATOM
      1  C          8.3340    0.3160   -1.9710 C.3     1  UNL1        0.1270
      2  C          9.4670    0.2010   -1.0220 C.2     1  UNL1        0.3030
      3  O          9.3970   -0.5410   -0.0120 O.2     1  UNL1       -0.2520
      4  O         10.6380    0.9130   -1.2250 O.3     1  UNL1       -0.4810
      5  H         10.6610    1.6480   -1.9380 H       1  UNL1        0.2960
      6  C          7.1850   -0.4780   -1.4300 C.3     1  UNL1        0.0470
      7  C          6.3680    0.2460   -0.4570 C.2     1  UNL1       -0.0470
      8  C          5.8240    1.4710   -0.7680 C.2     1  UNL1        0.0040
      9  C          6.1440   -0.3130    0.7800 C.2     1  UNL1        0.0040
     10  C          5.0540    2.1050    0.2100 C.2     1  UNL1        0.0000
     11  C          5.3830    0.3150    1.7450 C.2     1  UNL1        0.0000
     12  C          4.8350    1.5430    1.4420 C.2     1  UNL1        0.0000
@<TRIPOS>BOND
     1     1     6    1
     2     1     2    1
     3     5     4    1
     4     6     7    1
     5     4     2    1
     6     2     3    2
     7     8     7    2
     8     8    10    1
     9     7     9    1
    10    10    12    2
    11     9    11    2
    12    12    11    1
