MODEL 1
REMARK VINA RESULT:      -7.3      0.000      0.000
REMARK SMILES O=C(O)CCc1ccccc1
REMARK SMILES IDX 4 1 2 2 1 3 3 4 5 6 6 7 7 8 11 9 8 10 10 11 9 12
REMARK H PARENT 3 5
REMARK Flexibility Score: inf
ROOT
ATOM      1  C   UNL     1       8.455  -0.602  -2.156  1.00  0.00     0.127 C 
ENDROOT
BRANCH   1   2
ATOM      2  C   UNL     1       8.483  -1.883  -2.900  1.00  0.00     0.303 C 
ATOM      3  O   UNL     1       9.559  -2.501  -3.091  1.00  0.00    -0.252 OA
BRANCH   2   4
ATOM      4  O   UNL     1       7.317  -2.434  -3.407  1.00  0.00    -0.481 OA
ATOM      5  H   UNL     1       7.372  -3.276  -3.988  1.00  0.00     0.296 HD
ENDBRANCH   2   4
ENDBRANCH   1   2
BRANCH   1   6
ATOM      6  C   UNL     1       7.044  -0.097  -2.139  1.00  0.00     0.047 C 
BRANCH   6   7
ATOM      7  C   UNL     1       6.491   0.075  -0.797  1.00  0.00    -0.047 A 
ATOM      8  C   UNL     1       5.852   1.241  -0.444  1.00  0.00     0.004 A 
ATOM      9  C   UNL     1       6.613  -0.947   0.116  1.00  0.00     0.004 A 
ATOM     10  C   UNL     1       5.346   1.336   0.855  1.00  0.00     0.000 A 
ATOM     11  C   UNL     1       6.113  -0.851   1.400  1.00  0.00     0.000 A 
ATOM     12  C   UNL     1       5.472   0.314   1.761  1.00  0.00     0.000 A 
ENDBRANCH   6   7
ENDBRANCH   1   6
TORSDOF 4
ENDMDL
MODEL 2
REMARK VINA RESULT:      -7.2      0.100      1.731
REMARK SMILES O=C(O)CCc1ccccc1
REMARK SMILES IDX 4 1 2 2 1 3 3 4 5 6 6 7 7 8 11 9 8 10 10 11 9 12
REMARK H PARENT 3 5
REMARK Flexibility Score: inf
ROOT
ATOM      1  C   UNL     1       8.385  -0.572  -2.194  1.00  0.00     0.127 C 
ENDROOT
BRANCH   1   2
ATOM      2  C   UNL     1       8.355  -1.861  -2.924  1.00  0.00     0.303 C 
ATOM      3  O   UNL     1       7.268  -2.393  -3.260  1.00  0.00    -0.252 OA
BRANCH   2   4
ATOM      4  O   UNL     1       9.529  -2.517  -3.257  1.00  0.00    -0.481 OA
ATOM      5  H   UNL     1       9.590  -3.531  -3.129  1.00  0.00     0.296 HD
ENDBRANCH   2   4
ENDBRANCH   1   2
BRANCH   1   6
ATOM      6  C   UNL     1       6.986  -0.043  -2.114  1.00  0.00     0.047 C 
BRANCH   6   7
ATOM      7  C   UNL     1       6.465   0.057  -0.752  1.00  0.00    -0.047 A 
ATOM      8  C   UNL     1       6.600  -0.989   0.132  1.00  0.00     0.004 A 
ATOM      9  C   UNL     1       5.837   1.215  -0.357  1.00  0.00     0.004 A 
ATOM     10  C   UNL     1       6.080  -0.823   1.417  1.00  0.00     0.000 A 
ATOM     11  C   UNL     1       5.323   1.378   0.914  1.00  0.00     0.000 A 
ATOM     12  C   UNL     1       5.453   0.334   1.805  1.00  0.00     0.000 A 
ENDBRANCH   6   7
ENDBRANCH   1   6
TORSDOF 4
ENDMDL
MODEL 3
REMARK VINA RESULT:      -7.1      0.631      1.619
REMARK SMILES O=C(O)CCc1ccccc1
REMARK SMILES IDX 4 1 2 2 1 3 3 4 5 6 6 7 7 8 11 9 8 10 10 11 9 12
REMARK H PARENT 3 5
REMARK Flexibility Score: inf
ROOT
ATOM      1  C   UNL     1       8.327  -1.000  -1.764  1.00  0.00     0.127 C 
ENDROOT
BRANCH   1   2
ATOM      2  C   UNL     1       8.421  -2.056  -2.800  1.00  0.00     0.303 C 
ATOM      3  O   UNL     1       9.524  -2.574  -3.103  1.00  0.00    -0.252 OA
BRANCH   2   4
ATOM      4  O   UNL     1       7.289  -2.501  -3.464  1.00  0.00    -0.481 OA
ATOM      5  H   UNL     1       7.367  -2.802  -4.440  1.00  0.00     0.296 HD
ENDBRANCH   2   4
ENDBRANCH   1   2
BRANCH   1   6
ATOM      6  C   UNL     1       7.418  -1.487  -0.677  1.00  0.00     0.047 C 
BRANCH   6   7
ATOM      7  C   UNL     1       6.594  -0.438  -0.078  1.00  0.00    -0.047 A 
ATOM      8  C   UNL     1       6.135  -0.557   1.214  1.00  0.00     0.004 A 
ATOM      9  C   UNL     1       6.281   0.677  -0.820  1.00  0.00     0.004 A 
ATOM     10  C   UNL     1       5.354   0.484   1.722  1.00  0.00     0.000 A 
ATOM     11  C   UNL     1       5.508   1.704  -0.317  1.00  0.00     0.000 A 
ATOM     12  C   UNL     1       5.044   1.593   0.976  1.00  0.00     0.000 A 
ENDBRANCH   6   7
ENDBRANCH   1   6
TORSDOF 4
ENDMDL
MODEL 4
REMARK VINA RESULT:      -6.6      3.332      5.008
REMARK SMILES O=C(O)CCc1ccccc1
REMARK SMILES IDX 4 1 2 2 1 3 3 4 5 6 6 7 7 8 11 9 8 10 10 11 9 12
REMARK H PARENT 3 5
REMARK Flexibility Score: inf
ROOT
ATOM      1  C   UNL     1       5.061   1.709   0.710  1.00  0.00     0.127 C 
ENDROOT
BRANCH   1   2
ATOM      2  C   UNL     1       4.612   1.010   1.937  1.00  0.00     0.303 C 
ATOM      3  O   UNL     1       5.335   0.149   2.496  1.00  0.00    -0.252 OA
BRANCH   2   4
ATOM      4  O   UNL     1       3.377   1.288   2.501  1.00  0.00    -0.481 OA
ATOM      5  H   UNL     1       3.316   1.972   3.261  1.00  0.00     0.296 HD
ENDBRANCH   2   4
ENDBRANCH   1   2
BRANCH   1   6
ATOM      6  C   UNL     1       6.558   1.770   0.723  1.00  0.00     0.047 C 
BRANCH   6   7
ATOM      7  C   UNL     1       7.193   1.026  -0.363  1.00  0.00    -0.047 A 
ATOM      8  C   UNL     1       8.518   1.227  -0.673  1.00  0.00     0.004 A 
ATOM      9  C   UNL     1       6.450   0.114  -1.076  1.00  0.00     0.004 A 
ATOM     10  C   UNL     1       9.059   0.481  -1.722  1.00  0.00     0.000 A 
ATOM     11  C   UNL     1       6.986  -0.623  -2.113  1.00  0.00     0.000 A 
ATOM     12  C   UNL     1       8.313  -0.426  -2.431  1.00  0.00     0.000 A 
ENDBRANCH   6   7
ENDBRANCH   1   6
TORSDOF 4
ENDMDL
MODEL 5
REMARK VINA RESULT:      -6.5      1.972      2.281
REMARK SMILES O=C(O)CCc1ccccc1
REMARK SMILES IDX 4 1 2 2 1 3 3 4 5 6 6 7 7 8 11 9 8 10 10 11 9 12
REMARK H PARENT 3 5
REMARK Flexibility Score: inf
ROOT
ATOM      1  C   UNL     1       8.334   0.316  -1.971  1.00  0.00     0.127 C 
ENDROOT
BRANCH   1   2
ATOM      2  C   UNL     1       9.467   0.201  -1.022  1.00  0.00     0.303 C 
ATOM      3  O   UNL     1       9.397  -0.541  -0.012  1.00  0.00    -0.252 OA
BRANCH   2   4
ATOM      4  O   UNL     1      10.638   0.913  -1.225  1.00  0.00    -0.481 OA
ATOM      5  H   UNL     1      10.661   1.648  -1.938  1.00  0.00     0.296 HD
ENDBRANCH   2   4
ENDBRANCH   1   2
BRANCH   1   6
ATOM      6  C   UNL     1       7.185  -0.478  -1.430  1.00  0.00     0.047 C 
BRANCH   6   7
ATOM      7  C   UNL     1       6.368   0.246  -0.457  1.00  0.00    -0.047 A 
ATOM      8  C   UNL     1       5.824   1.471  -0.768  1.00  0.00     0.004 A 
ATOM      9  C   UNL     1       6.144  -0.313   0.780  1.00  0.00     0.004 A 
ATOM     10  C   UNL     1       5.054   2.105   0.210  1.00  0.00     0.000 A 
ATOM     11  C   UNL     1       5.383   0.315   1.745  1.00  0.00     0.000 A 
ATOM     12  C   UNL     1       4.835   1.543   1.442  1.00  0.00     0.000 A 
ENDBRANCH   6   7
ENDBRANCH   1   6
TORSDOF 4
ENDMDL
