@<TRIPOS>MOLECULE
/home/cewinharhar/GITHUB/reincatalyze/data/processed/docking_pred/2023_Apr_20-15:07/de552809cd3cf8423e47c41d2ed627091c55f56d_ligand_2.pdbqt
 12 12 0 0 0
SMALL
GASTEIGER

@<TRIPOS>ATOM
      1  C          8.3270   -1.0000   -1.7640 C.3     1  UNL1        0.1270
      2  C          8.4210   -2.0560   -2.8000 C.2     1  UNL1        0.3030
      3  O          9.5240   -2.5740   -3.1030 O.2     1  UNL1       -0.2520
      4  O          7.2890   -2.5010   -3.4640 O.3     1  UNL1       -0.4810
      5  H          7.3670   -2.8020   -4.4400 H       1  UNL1        0.2960
      6  C          7.4180   -1.4870   -0.6770 C.3     1  UNL1        0.0470
      7  C          6.5940   -0.4380   -0.0780 C.2     1  UNL1       -0.0470
      8  C          6.1350   -0.5570    1.2140 C.2     1  UNL1        0.0040
      9  C          6.2810    0.6770   -0.8200 C.2     1  UNL1        0.0040
     10  C          5.3540    0.4840    1.7220 C.2     1  UNL1        0.0000
     11  C          5.5080    1.7040   -0.3170 C.2     1  UNL1        0.0000
     12  C          5.0440    1.5930    0.9760 C.2     1  UNL1        0.0000
@<TRIPOS>BOND
     1     5     4    1
     2     4     2    1
     3     3     2    2
     4     2     1    1
     5     1     6    1
     6     9    11    1
     7     9     7    2
     8     6     7    1
     9    11    12    2
    10     7     8    1
    11    12    10    1
    12     8    10    2
