@<TRIPOS>MOLECULE
/home/cewinharhar/GITHUB/reincatalyze/data/processed/docking_pred/2023_Apr_20-15:07/de552809cd3cf8423e47c41d2ed627091c55f56d_ligand_2.pdbqt
 12 12 0 0 0
SMALL
GASTEIGER

@<TRIPOS>ATOM
      1  C          5.0610    1.7090    0.7100 C.3     1  UNL1        0.1270
      2  C          4.6120    1.0100    1.9370 C.2     1  UNL1        0.3030
      3  O          5.3350    0.1490    2.4960 O.2     1  UNL1       -0.2520
      4  O          3.3770    1.2880    2.5010 O.3     1  UNL1       -0.4810
      5  H          3.3160    1.9720    3.2610 H       1  UNL1        0.2960
      6  C          6.5580    1.7700    0.7230 C.3     1  UNL1        0.0470
      7  C          7.1930    1.0260   -0.3630 C.2     1  UNL1       -0.0470
      8  C          8.5180    1.2270   -0.6730 C.2     1  UNL1        0.0040
      9  C          6.4500    0.1140   -1.0760 C.2     1  UNL1        0.0040
     10  C          9.0590    0.4810   -1.7220 C.2     1  UNL1        0.0000
     11  C          6.9860   -0.6230   -2.1130 C.2     1  UNL1        0.0000
     12  C          8.3130   -0.4260   -2.4310 C.2     1  UNL1        0.0000
@<TRIPOS>BOND
     1    12    11    2
     2    12    10    1
     3    11     9    1
     4    10     8    2
     5     9     7    2
     6     8     7    1
     7     7     6    1
     8     1     6    1
     9     1     2    1
    10     2     3    2
    11     2     4    1
    12     4     5    1
