@<TRIPOS>MOLECULE
/home/cewinharhar/GITHUB/reincatalyze/data/processed/docking_pred/2023_Apr_20-15:07/e1ac879641feb84a16575019a922afe40680d27c_ligand_2.pdbqt
 12 12 0 0 0
SMALL
GASTEIGER

@<TRIPOS>ATOM
      1  C          5.4470    2.8700   -0.0160 C.3     1  UNL1        0.1270
      2  C          6.2380    3.8300    0.7880 C.2     1  UNL1        0.3030
      3  O          6.8870    4.7570    0.2430 O.2     1  UNL1       -0.2520
      4  O          6.2840    3.7310    2.1690 O.3     1  UNL1       -0.4810
      5  H          6.7330    4.4750    2.7110 H       1  UNL1        0.2960
      6  C          4.9170    1.8110    0.9020 C.3     1  UNL1        0.0470
      7  C          5.7110    0.5830    0.9150 C.2     1  UNL1       -0.0470
      8  C          6.3830    0.1690   -0.2120 C.2     1  UNL1        0.0040
      9  C          5.7830   -0.1570    2.0720 C.2     1  UNL1        0.0040
     10  C          7.1230   -1.0130   -0.1270 C.2     1  UNL1        0.0000
     11  C          6.5150   -1.3250    2.1540 C.2     1  UNL1        0.0000
     12  C          7.1910   -1.7480    1.0290 C.2     1  UNL1        0.0000
@<TRIPOS>BOND
     1     8    10    1
     2     8     7    2
     3    10    12    2
     4     1     2    1
     5     1     6    1
     6     3     2    2
     7     2     4    1
     8     6     7    1
     9     7     9    1
    10    12    11    1
    11     9    11    2
    12     4     5    1
