@<TRIPOS>MOLECULE
/home/cewinharhar/GITHUB/reincatalyze/data/processed/docking_pred/2023_Apr_20-15:07/e1ac879641feb84a16575019a922afe40680d27c_ligand_2.pdbqt
 12 12 0 0 0
SMALL
GASTEIGER

@<TRIPOS>ATOM
      1  C          4.9990    1.7780    0.6610 C.3     1  UNL1        0.1270
      2  C          4.4920    1.1160    1.8860 C.2     1  UNL1        0.3030
      3  O          5.1510    0.2130    2.4580 O.2     1  UNL1       -0.2520
      4  O          3.2710    1.4760    2.4340 O.3     1  UNL1       -0.4810
      5  H          2.8980    2.4120    2.2530 H       1  UNL1        0.2960
      6  C          6.4960    1.7990    0.7220 C.3     1  UNL1        0.0470
      7  C          7.1450    1.0400   -0.3460 C.2     1  UNL1       -0.0470
      8  C          8.4700    1.2480   -0.6500 C.2     1  UNL1        0.0040
      9  C          6.4150    0.1090   -1.0470 C.2     1  UNL1        0.0040
     10  C          9.0250    0.4860   -1.6820 C.2     1  UNL1        0.0000
     11  C          6.9650   -0.6430   -2.0670 C.2     1  UNL1        0.0000
     12  C          8.2920   -0.4400   -2.3780 C.2     1  UNL1        0.0000
@<TRIPOS>BOND
     1    12    11    2
     2    12    10    1
     3    11     9    1
     4    10     8    2
     5     9     7    2
     6     8     7    1
     7     7     6    1
     8     1     6    1
     9     1     2    1
    10     2     4    1
    11     2     3    2
    12     5     4    1
