@<TRIPOS>MOLECULE
/home/cewinharhar/GITHUB/reincatalyze/data/processed/docking_pred/2023_Apr_20-15:07/e1ac879641feb84a16575019a922afe40680d27c_ligand_2.pdbqt
 12 12 0 0 0
SMALL
GASTEIGER

@<TRIPOS>ATOM
      1  C          8.2730    0.0690   -2.1650 C.3     1  UNL1        0.1270
      2  C          9.3840    0.3010   -1.2120 C.2     1  UNL1        0.3030
      3  O          9.4980   -0.3840   -0.1660 O.2     1  UNL1       -0.2520
      4  O         10.3310    1.2850   -1.4510 O.3     1  UNL1       -0.4810
      5  H         11.2550    1.2060   -1.0180 H       1  UNL1        0.2960
      6  C          7.1800   -0.6590   -1.4450 C.3     1  UNL1        0.0470
      7  C          6.3830    0.1880   -0.5590 C.2     1  UNL1       -0.0470
      8  C          5.8750    1.3870   -1.0030 C.2     1  UNL1        0.0040
      9  C          6.1430   -0.2270    0.7300 C.2     1  UNL1        0.0040
     10  C          5.1220    2.1450   -0.1030 C.2     1  UNL1        0.0000
     11  C          5.3990    0.5240    1.6190 C.2     1  UNL1        0.0000
     12  C          4.8870    1.7260    1.1820 C.2     1  UNL1        0.0000
@<TRIPOS>BOND
     1     1     6    1
     2     1     2    1
     3     4     2    1
     4     4     5    1
     5     6     7    1
     6     2     3    2
     7     8     7    2
     8     8    10    1
     9     7     9    1
    10    10    12    2
    11     9    11    2
    12    12    11    1
