MODEL 1
REMARK VINA RESULT:      -7.4      0.000      0.000
REMARK SMILES O=C(O)CCc1ccccc1
REMARK SMILES IDX 4 1 2 2 1 3 3 4 5 6 6 7 7 8 11 9 8 10 10 11 9 12
REMARK H PARENT 3 5
REMARK Flexibility Score: inf
ROOT
ATOM      1  C   UNL     1       8.460  -0.634  -2.110  1.00  0.00     0.127 C 
ENDROOT
BRANCH   1   2
ATOM      2  C   UNL     1       8.492  -1.896  -2.886  1.00  0.00     0.303 C 
ATOM      3  O   UNL     1       9.573  -2.498  -3.104  1.00  0.00    -0.252 OA
BRANCH   2   4
ATOM      4  O   UNL     1       7.327  -2.447  -3.394  1.00  0.00    -0.481 OA
ATOM      5  H   UNL     1       6.595  -1.828  -3.753  1.00  0.00     0.296 HD
ENDBRANCH   2   4
ENDBRANCH   1   2
BRANCH   1   6
ATOM      6  C   UNL     1       7.057  -0.107  -2.127  1.00  0.00     0.047 C 
BRANCH   6   7
ATOM      7  C   UNL     1       6.483   0.101  -0.799  1.00  0.00    -0.047 A 
ATOM      8  C   UNL     1       5.817   1.265  -0.494  1.00  0.00     0.004 A 
ATOM      9  C   UNL     1       6.615  -0.886   0.151  1.00  0.00     0.004 A 
ATOM     10  C   UNL     1       5.293   1.395   0.794  1.00  0.00     0.000 A 
ATOM     11  C   UNL     1       6.097  -0.756   1.424  1.00  0.00     0.000 A 
ATOM     12  C   UNL     1       5.428   0.407   1.737  1.00  0.00     0.000 A 
ENDBRANCH   6   7
ENDBRANCH   1   6
TORSDOF 4
ENDMDL
MODEL 2
REMARK VINA RESULT:      -7.3      0.090      1.731
REMARK SMILES O=C(O)CCc1ccccc1
REMARK SMILES IDX 4 1 2 2 1 3 3 4 5 6 6 7 7 8 11 9 8 10 10 11 9 12
REMARK H PARENT 3 5
REMARK Flexibility Score: inf
ROOT
ATOM      1  C   UNL     1       8.412  -0.574  -2.189  1.00  0.00     0.127 C 
ENDROOT
BRANCH   1   2
ATOM      2  C   UNL     1       8.382  -1.871  -2.906  1.00  0.00     0.303 C 
ATOM      3  O   UNL     1       7.296  -2.408  -3.234  1.00  0.00    -0.252 OA
BRANCH   2   4
ATOM      4  O   UNL     1       9.557  -2.528  -3.233  1.00  0.00    -0.481 OA
ATOM      5  H   UNL     1      10.432  -2.245  -2.782  1.00  0.00     0.296 HD
ENDBRANCH   2   4
ENDBRANCH   1   2
BRANCH   1   6
ATOM      6  C   UNL     1       7.016  -0.031  -2.141  1.00  0.00     0.047 C 
BRANCH   6   7
ATOM      7  C   UNL     1       6.475   0.097  -0.789  1.00  0.00    -0.047 A 
ATOM      8  C   UNL     1       6.630  -0.916   0.129  1.00  0.00     0.004 A 
ATOM      9  C   UNL     1       5.806   1.247  -0.439  1.00  0.00     0.004 A 
ATOM     10  C   UNL     1       6.087  -0.725   1.402  1.00  0.00     0.000 A 
ATOM     11  C   UNL     1       5.270   1.434   0.819  1.00  0.00     0.000 A 
ATOM     12  C   UNL     1       5.420   0.424   1.745  1.00  0.00     0.000 A 
ENDBRANCH   6   7
ENDBRANCH   1   6
TORSDOF 4
ENDMDL
MODEL 3
REMARK VINA RESULT:      -6.8      3.360      5.043
REMARK SMILES O=C(O)CCc1ccccc1
REMARK SMILES IDX 4 1 2 2 1 3 3 4 5 6 6 7 7 8 11 9 8 10 10 11 9 12
REMARK H PARENT 3 5
REMARK Flexibility Score: inf
ROOT
ATOM      1  C   UNL     1       4.999   1.778   0.661  1.00  0.00     0.127 C 
ENDROOT
BRANCH   1   2
ATOM      2  C   UNL     1       4.492   1.116   1.886  1.00  0.00     0.303 C 
ATOM      3  O   UNL     1       5.151   0.213   2.458  1.00  0.00    -0.252 OA
BRANCH   2   4
ATOM      4  O   UNL     1       3.271   1.476   2.434  1.00  0.00    -0.481 OA
ATOM      5  H   UNL     1       2.898   2.412   2.253  1.00  0.00     0.296 HD
ENDBRANCH   2   4
ENDBRANCH   1   2
BRANCH   1   6
ATOM      6  C   UNL     1       6.496   1.799   0.722  1.00  0.00     0.047 C 
BRANCH   6   7
ATOM      7  C   UNL     1       7.145   1.040  -0.346  1.00  0.00    -0.047 A 
ATOM      8  C   UNL     1       8.470   1.248  -0.650  1.00  0.00     0.004 A 
ATOM      9  C   UNL     1       6.415   0.109  -1.047  1.00  0.00     0.004 A 
ATOM     10  C   UNL     1       9.025   0.486  -1.682  1.00  0.00     0.000 A 
ATOM     11  C   UNL     1       6.965  -0.643  -2.067  1.00  0.00     0.000 A 
ATOM     12  C   UNL     1       8.292  -0.440  -2.378  1.00  0.00     0.000 A 
ENDBRANCH   6   7
ENDBRANCH   1   6
TORSDOF 4
ENDMDL
MODEL 4
REMARK VINA RESULT:      -6.7      3.823      4.911
REMARK SMILES O=C(O)CCc1ccccc1
REMARK SMILES IDX 4 1 2 2 1 3 3 4 5 6 6 7 7 8 11 9 8 10 10 11 9 12
REMARK H PARENT 3 5
REMARK Flexibility Score: inf
ROOT
ATOM      1  C   UNL     1       5.447   2.870  -0.016  1.00  0.00     0.127 C 
ENDROOT
BRANCH   1   2
ATOM      2  C   UNL     1       6.238   3.830   0.788  1.00  0.00     0.303 C 
ATOM      3  O   UNL     1       6.887   4.757   0.243  1.00  0.00    -0.252 OA
BRANCH   2   4
ATOM      4  O   UNL     1       6.284   3.731   2.169  1.00  0.00    -0.481 OA
ATOM      5  H   UNL     1       6.733   4.475   2.711  1.00  0.00     0.296 HD
ENDBRANCH   2   4
ENDBRANCH   1   2
BRANCH   1   6
ATOM      6  C   UNL     1       4.917   1.811   0.902  1.00  0.00     0.047 C 
BRANCH   6   7
ATOM      7  C   UNL     1       5.711   0.583   0.915  1.00  0.00    -0.047 A 
ATOM      8  C   UNL     1       6.383   0.169  -0.212  1.00  0.00     0.004 A 
ATOM      9  C   UNL     1       5.783  -0.157   2.072  1.00  0.00     0.004 A 
ATOM     10  C   UNL     1       7.123  -1.013  -0.127  1.00  0.00     0.000 A 
ATOM     11  C   UNL     1       6.515  -1.325   2.154  1.00  0.00     0.000 A 
ATOM     12  C   UNL     1       7.191  -1.748   1.029  1.00  0.00     0.000 A 
ENDBRANCH   6   7
ENDBRANCH   1   6
TORSDOF 4
ENDMDL
MODEL 5
REMARK VINA RESULT:      -6.6      1.926      2.273
REMARK SMILES O=C(O)CCc1ccccc1
REMARK SMILES IDX 4 1 2 2 1 3 3 4 5 6 6 7 7 8 11 9 8 10 10 11 9 12
REMARK H PARENT 3 5
REMARK Flexibility Score: inf
ROOT
ATOM      1  C   UNL     1       8.273   0.069  -2.165  1.00  0.00     0.127 C 
ENDROOT
BRANCH   1   2
ATOM      2  C   UNL     1       9.384   0.301  -1.212  1.00  0.00     0.303 C 
ATOM      3  O   UNL     1       9.498  -0.384  -0.166  1.00  0.00    -0.252 OA
BRANCH   2   4
ATOM      4  O   UNL     1      10.331   1.285  -1.451  1.00  0.00    -0.481 OA
ATOM      5  H   UNL     1      11.255   1.206  -1.018  1.00  0.00     0.296 HD
ENDBRANCH   2   4
ENDBRANCH   1   2
BRANCH   1   6
ATOM      6  C   UNL     1       7.180  -0.659  -1.445  1.00  0.00     0.047 C 
BRANCH   6   7
ATOM      7  C   UNL     1       6.383   0.188  -0.559  1.00  0.00    -0.047 A 
ATOM      8  C   UNL     1       5.875   1.387  -1.003  1.00  0.00     0.004 A 
ATOM      9  C   UNL     1       6.143  -0.227   0.730  1.00  0.00     0.004 A 
ATOM     10  C   UNL     1       5.122   2.145  -0.103  1.00  0.00     0.000 A 
ATOM     11  C   UNL     1       5.399   0.524   1.619  1.00  0.00     0.000 A 
ATOM     12  C   UNL     1       4.887   1.726   1.182  1.00  0.00     0.000 A 
ENDBRANCH   6   7
ENDBRANCH   1   6
TORSDOF 4
ENDMDL
