@<TRIPOS>MOLECULE
/home/cewinharhar/GITHUB/reincatalyze/data/processed/docking_pred/2023_Apr_20-15:07/e1ac879641feb84a16575019a922afe40680d27c_ligand_2.pdbqt
 12 12 0 0 0
SMALL
GASTEIGER

@<TRIPOS>ATOM
      1  C          8.4600   -0.6340   -2.1100 C.3     1  UNL1        0.1270
      2  C          8.4920   -1.8960   -2.8860 C.2     1  UNL1        0.3030
      3  O          9.5730   -2.4980   -3.1040 O.2     1  UNL1       -0.2520
      4  O          7.3270   -2.4470   -3.3940 O.3     1  UNL1       -0.4810
      5  H          6.5950   -1.8280   -3.7530 H       1  UNL1        0.2960
      6  C          7.0570   -0.1070   -2.1270 C.3     1  UNL1        0.0470
      7  C          6.4830    0.1010   -0.7990 C.2     1  UNL1       -0.0470
      8  C          5.8170    1.2650   -0.4940 C.2     1  UNL1        0.0040
      9  C          6.6150   -0.8860    0.1510 C.2     1  UNL1        0.0040
     10  C          5.2930    1.3950    0.7940 C.2     1  UNL1        0.0000
     11  C          6.0970   -0.7560    1.4240 C.2     1  UNL1        0.0000
     12  C          5.4280    0.4070    1.7370 C.2     1  UNL1        0.0000
@<TRIPOS>BOND
     1     5     4    1
     2     4     2    1
     3     3     2    2
     4     2     1    1
     5     6     1    1
     6     6     7    1
     7     7     8    2
     8     7     9    1
     9     8    10    1
    10     9    11    2
    11    10    12    2
    12    11    12    1
