@<TRIPOS>MOLECULE
/home/cewinharhar/GITHUB/reincatalyze/data/processed/docking_pred/2023_Apr_20-15:07/e3e0f9713a2c6d1770d60d03407d62bfa70f046f_ligand_2.pdbqt
 12 12 0 0 0
SMALL
GASTEIGER

@<TRIPOS>ATOM
      1  C          5.0370    1.7720    0.6940 C.3     1  UNL1        0.1270
      2  C          4.5170    1.1030    1.9100 C.2     1  UNL1        0.3030
      3  O          5.1770    0.2070    2.4920 O.2     1  UNL1       -0.2520
      4  O          3.2840    1.4500    2.4400 O.3     1  UNL1       -0.4810
      5  H          3.2060    1.6420    3.4420 H       1  UNL1        0.2960
      6  C          6.5340    1.7650    0.7560 C.3     1  UNL1        0.0470
      7  C          7.1710    1.0360   -0.3390 C.2     1  UNL1       -0.0470
      8  C          8.5070    1.2100   -0.6160 C.2     1  UNL1        0.0040
      9  C          6.4180    0.1660   -1.0940 C.2     1  UNL1        0.0040
     10  C          9.0490    0.4800   -1.6760 C.2     1  UNL1        0.0000
     11  C          6.9560   -0.5540   -2.1410 C.2     1  UNL1        0.0000
     12  C          8.2930   -0.3860   -2.4260 C.2     1  UNL1        0.0000
@<TRIPOS>BOND
     1    12    11    2
     2    12    10    1
     3    11     9    1
     4    10     8    2
     5     9     7    2
     6     8     7    1
     7     7     6    1
     8     1     6    1
     9     1     2    1
    10     2     4    1
    11     2     3    2
    12     4     5    1
