@<TRIPOS>MOLECULE
/home/cewinharhar/GITHUB/reincatalyze/data/processed/docking_pred/2023_Apr_20-15:07/e3e0f9713a2c6d1770d60d03407d62bfa70f046f_ligand_2.pdbqt
 12 12 0 0 0
SMALL
GASTEIGER

@<TRIPOS>ATOM
      1  C          5.3320    2.9660    0.0650 C.3     1  UNL1        0.1270
      2  C          6.2150    3.8700    0.8380 C.2     1  UNL1        0.3030
      3  O          6.8770    4.7750    0.2720 O.2     1  UNL1       -0.2520
      4  O          6.3360    3.7400    2.2130 O.3     1  UNL1       -0.4810
      5  H          6.6430    2.8460    2.6060 H       1  UNL1        0.2960
      6  C          5.1960    1.6790    0.8210 C.3     1  UNL1        0.0470
      7  C          5.9780    0.5770    0.2640 C.2     1  UNL1       -0.0470
      8  C          6.3870   -0.4680    1.0600 C.2     1  UNL1        0.0040
      9  C          6.3010    0.5920   -1.0730 C.2     1  UNL1        0.0040
     10  C          7.1300   -1.4870    0.4600 C.2     1  UNL1        0.0000
     11  C          7.0360   -0.4170   -1.6640 C.2     1  UNL1        0.0000
     12  C          7.4500   -1.4670   -0.8740 C.2     1  UNL1        0.0000
@<TRIPOS>BOND
     1    11     9    1
     2    11    12    2
     3     9     7    2
     4    12    10    1
     5     1     6    1
     6     1     2    1
     7     7     6    1
     8     7     8    1
     9     3     2    2
    10    10     8    2
    11     2     4    1
    12     4     5    1
