@<TRIPOS>MOLECULE
/home/cewinharhar/GITHUB/reincatalyze/data/processed/docking_pred/2023_Apr_20-15:07/e3e0f9713a2c6d1770d60d03407d62bfa70f046f_ligand_2.pdbqt
 12 12 0 0 0
SMALL
GASTEIGER

@<TRIPOS>ATOM
      1  C          8.2210    0.2530   -2.1780 C.3     1  UNL1        0.1270
      2  C          9.3530    0.3410   -1.2240 C.2     1  UNL1        0.3030
      3  O          9.4310   -0.4270   -0.2340 O.2     1  UNL1       -0.2520
      4  O         10.3570    1.2790   -1.4000 O.3     1  UNL1       -0.4810
      5  H         11.0610    1.4020   -0.6670 H       1  UNL1        0.2960
      6  C          7.1100   -0.5060   -1.5200 C.3     1  UNL1        0.0470
      7  C          6.3320    0.2850   -0.5680 C.2     1  UNL1       -0.0470
      8  C          6.1190   -0.1670    0.7140 C.2     1  UNL1        0.0040
      9  C          5.8130    1.4950   -0.9670 C.2     1  UNL1        0.0040
     10  C          5.3670    0.6420    1.5700 C.2     1  UNL1        0.0000
     11  C          5.0700    2.2930   -0.1200 C.2     1  UNL1        0.0000
     12  C          4.8510    1.8480    1.1660 C.2     1  UNL1        0.0000
@<TRIPOS>BOND
     1     1     6    1
     2     1     2    1
     3     6     7    1
     4     4     2    1
     5     4     5    1
     6     2     3    2
     7     9     7    2
     8     9    11    1
     9     7     8    1
    10    11    12    2
    11     8    10    2
    12    12    10    1
