MODEL 1
REMARK VINA RESULT:      -7.4      0.000      0.000
REMARK SMILES O=C(O)CCc1ccccc1
REMARK SMILES IDX 4 1 2 2 1 3 3 4 5 6 6 7 7 8 11 9 8 10 10 11 9 12
REMARK H PARENT 3 5
REMARK Flexibility Score: inf
ROOT
ATOM      1  C   UNL     1       8.416  -0.528  -2.265  1.00  0.00     0.127 C 
ENDROOT
BRANCH   1   2
ATOM      2  C   UNL     1       8.477  -1.844  -2.945  1.00  0.00     0.303 C 
ATOM      3  O   UNL     1       9.566  -2.453  -3.088  1.00  0.00    -0.252 OA
BRANCH   2   4
ATOM      4  O   UNL     1       7.330  -2.439  -3.444  1.00  0.00    -0.481 OA
ATOM      5  H   UNL     1       7.080  -2.300  -4.427  1.00  0.00     0.296 HD
ENDBRANCH   2   4
ENDBRANCH   1   2
BRANCH   1   6
ATOM      6  C   UNL     1       6.982  -0.100  -2.196  1.00  0.00     0.047 C 
BRANCH   6   7
ATOM      7  C   UNL     1       6.470   0.045  -0.834  1.00  0.00    -0.047 A 
ATOM      8  C   UNL     1       6.611  -0.972   0.082  1.00  0.00     0.004 A 
ATOM      9  C   UNL     1       5.843   1.215  -0.474  1.00  0.00     0.004 A 
ATOM     10  C   UNL     1       6.099  -0.764   1.364  1.00  0.00     0.000 A 
ATOM     11  C   UNL     1       5.337   1.418   0.795  1.00  0.00     0.000 A 
ATOM     12  C   UNL     1       5.473   0.404   1.718  1.00  0.00     0.000 A 
ENDBRANCH   6   7
ENDBRANCH   1   6
TORSDOF 4
ENDMDL
MODEL 2
REMARK VINA RESULT:      -7.4      0.148      1.734
REMARK SMILES O=C(O)CCc1ccccc1
REMARK SMILES IDX 4 1 2 2 1 3 3 4 5 6 6 7 7 8 11 9 8 10 10 11 9 12
REMARK H PARENT 3 5
REMARK Flexibility Score: inf
ROOT
ATOM      1  C   UNL     1       8.386  -0.629  -2.110  1.00  0.00     0.127 C 
ENDROOT
BRANCH   1   2
ATOM      2  C   UNL     1       8.363  -1.887  -2.894  1.00  0.00     0.303 C 
ATOM      3  O   UNL     1       7.279  -2.408  -3.255  1.00  0.00    -0.252 OA
BRANCH   2   4
ATOM      4  O   UNL     1       9.541  -2.523  -3.251  1.00  0.00    -0.481 OA
ATOM      5  H   UNL     1      10.414  -2.257  -2.787  1.00  0.00     0.296 HD
ENDBRANCH   2   4
ENDBRANCH   1   2
BRANCH   1   6
ATOM      6  C   UNL     1       6.998  -0.066  -2.082  1.00  0.00     0.047 C 
BRANCH   6   7
ATOM      7  C   UNL     1       6.447   0.092  -0.737  1.00  0.00    -0.047 A 
ATOM      8  C   UNL     1       5.809   1.254  -0.371  1.00  0.00     0.004 A 
ATOM      9  C   UNL     1       6.572  -0.940   0.164  1.00  0.00     0.004 A 
ATOM     10  C   UNL     1       5.306   1.334   0.930  1.00  0.00     0.000 A 
ATOM     11  C   UNL     1       6.075  -0.858   1.450  1.00  0.00     0.000 A 
ATOM     12  C   UNL     1       5.434   0.303   1.825  1.00  0.00     0.000 A 
ENDBRANCH   6   7
ENDBRANCH   1   6
TORSDOF 4
ENDMDL
MODEL 3
REMARK VINA RESULT:      -6.8      3.379      5.065
REMARK SMILES O=C(O)CCc1ccccc1
REMARK SMILES IDX 4 1 2 2 1 3 3 4 5 6 6 7 7 8 11 9 8 10 10 11 9 12
REMARK H PARENT 3 5
REMARK Flexibility Score: inf
ROOT
ATOM      1  C   UNL     1       5.037   1.772   0.694  1.00  0.00     0.127 C 
ENDROOT
BRANCH   1   2
ATOM      2  C   UNL     1       4.517   1.103   1.910  1.00  0.00     0.303 C 
ATOM      3  O   UNL     1       5.177   0.207   2.492  1.00  0.00    -0.252 OA
BRANCH   2   4
ATOM      4  O   UNL     1       3.284   1.450   2.440  1.00  0.00    -0.481 OA
ATOM      5  H   UNL     1       3.206   1.642   3.442  1.00  0.00     0.296 HD
ENDBRANCH   2   4
ENDBRANCH   1   2
BRANCH   1   6
ATOM      6  C   UNL     1       6.534   1.765   0.756  1.00  0.00     0.047 C 
BRANCH   6   7
ATOM      7  C   UNL     1       7.171   1.036  -0.339  1.00  0.00    -0.047 A 
ATOM      8  C   UNL     1       8.507   1.210  -0.616  1.00  0.00     0.004 A 
ATOM      9  C   UNL     1       6.418   0.166  -1.094  1.00  0.00     0.004 A 
ATOM     10  C   UNL     1       9.049   0.480  -1.676  1.00  0.00     0.000 A 
ATOM     11  C   UNL     1       6.956  -0.554  -2.141  1.00  0.00     0.000 A 
ATOM     12  C   UNL     1       8.293  -0.386  -2.426  1.00  0.00     0.000 A 
ENDBRANCH   6   7
ENDBRANCH   1   6
TORSDOF 4
ENDMDL
MODEL 4
REMARK VINA RESULT:      -6.7      1.920      2.296
REMARK SMILES O=C(O)CCc1ccccc1
REMARK SMILES IDX 4 1 2 2 1 3 3 4 5 6 6 7 7 8 11 9 8 10 10 11 9 12
REMARK H PARENT 3 5
REMARK Flexibility Score: inf
ROOT
ATOM      1  C   UNL     1       8.221   0.253  -2.178  1.00  0.00     0.127 C 
ENDROOT
BRANCH   1   2
ATOM      2  C   UNL     1       9.353   0.341  -1.224  1.00  0.00     0.303 C 
ATOM      3  O   UNL     1       9.431  -0.427  -0.234  1.00  0.00    -0.252 OA
BRANCH   2   4
ATOM      4  O   UNL     1      10.357   1.279  -1.400  1.00  0.00    -0.481 OA
ATOM      5  H   UNL     1      11.061   1.402  -0.667  1.00  0.00     0.296 HD
ENDBRANCH   2   4
ENDBRANCH   1   2
BRANCH   1   6
ATOM      6  C   UNL     1       7.110  -0.506  -1.520  1.00  0.00     0.047 C 
BRANCH   6   7
ATOM      7  C   UNL     1       6.332   0.285  -0.568  1.00  0.00    -0.047 A 
ATOM      8  C   UNL     1       6.119  -0.167   0.714  1.00  0.00     0.004 A 
ATOM      9  C   UNL     1       5.813   1.495  -0.967  1.00  0.00     0.004 A 
ATOM     10  C   UNL     1       5.367   0.642   1.570  1.00  0.00     0.000 A 
ATOM     11  C   UNL     1       5.070   2.293  -0.120  1.00  0.00     0.000 A 
ATOM     12  C   UNL     1       4.851   1.848   1.166  1.00  0.00     0.000 A 
ENDBRANCH   6   7
ENDBRANCH   1   6
TORSDOF 4
ENDMDL
MODEL 5
REMARK VINA RESULT:      -6.7      3.712      4.949
REMARK SMILES O=C(O)CCc1ccccc1
REMARK SMILES IDX 4 1 2 2 1 3 3 4 5 6 6 7 7 8 11 9 8 10 10 11 9 12
REMARK H PARENT 3 5
REMARK Flexibility Score: inf
ROOT
ATOM      1  C   UNL     1       5.332   2.966   0.065  1.00  0.00     0.127 C 
ENDROOT
BRANCH   1   2
ATOM      2  C   UNL     1       6.215   3.870   0.838  1.00  0.00     0.303 C 
ATOM      3  O   UNL     1       6.877   4.775   0.272  1.00  0.00    -0.252 OA
BRANCH   2   4
ATOM      4  O   UNL     1       6.336   3.740   2.213  1.00  0.00    -0.481 OA
ATOM      5  H   UNL     1       6.643   2.846   2.606  1.00  0.00     0.296 HD
ENDBRANCH   2   4
ENDBRANCH   1   2
BRANCH   1   6
ATOM      6  C   UNL     1       5.196   1.679   0.821  1.00  0.00     0.047 C 
BRANCH   6   7
ATOM      7  C   UNL     1       5.978   0.577   0.264  1.00  0.00    -0.047 A 
ATOM      8  C   UNL     1       6.387  -0.468   1.060  1.00  0.00     0.004 A 
ATOM      9  C   UNL     1       6.301   0.592  -1.073  1.00  0.00     0.004 A 
ATOM     10  C   UNL     1       7.130  -1.487   0.460  1.00  0.00     0.000 A 
ATOM     11  C   UNL     1       7.036  -0.417  -1.664  1.00  0.00     0.000 A 
ATOM     12  C   UNL     1       7.450  -1.467  -0.874  1.00  0.00     0.000 A 
ENDBRANCH   6   7
ENDBRANCH   1   6
TORSDOF 4
ENDMDL
