@<TRIPOS>MOLECULE
/home/cewinharhar/GITHUB/reincatalyze/data/processed/docking_pred/2023_Apr_20-15:07/e3e0f9713a2c6d1770d60d03407d62bfa70f046f_ligand_2.pdbqt
 12 12 0 0 0
SMALL
GASTEIGER

@<TRIPOS>ATOM
      1  C          8.3860   -0.6290   -2.1100 C.3     1  UNL1        0.1270
      2  C          8.3630   -1.8870   -2.8940 C.2     1  UNL1        0.3030
      3  O          7.2790   -2.4080   -3.2550 O.2     1  UNL1       -0.2520
      4  O          9.5410   -2.5230   -3.2510 O.3     1  UNL1       -0.4810
      5  H         10.4140   -2.2570   -2.7870 H       1  UNL1        0.2960
      6  C          6.9980   -0.0660   -2.0820 C.3     1  UNL1        0.0470
      7  C          6.4470    0.0920   -0.7370 C.2     1  UNL1       -0.0470
      8  C          5.8090    1.2540   -0.3710 C.2     1  UNL1        0.0040
      9  C          6.5720   -0.9400    0.1640 C.2     1  UNL1        0.0040
     10  C          5.3060    1.3340    0.9300 C.2     1  UNL1        0.0000
     11  C          6.0750   -0.8580    1.4500 C.2     1  UNL1        0.0000
     12  C          5.4340    0.3030    1.8250 C.2     1  UNL1        0.0000
@<TRIPOS>BOND
     1     3     2    2
     2     4     2    1
     3     4     5    1
     4     2     1    1
     5     1     6    1
     6     6     7    1
     7     7     8    2
     8     7     9    1
     9     8    10    1
    10     9    11    2
    11    10    12    2
    12    11    12    1
