@<TRIPOS>MOLECULE
/home/cewinharhar/GITHUB/reincatalyze/data/processed/docking_pred/2023_Apr_20-15:07/e3e22a08cc3fa656d2264310e8071e645bf38a06_ligand_2.pdbqt
 12 12 0 0 0
SMALL
GASTEIGER

@<TRIPOS>ATOM
      1  C          5.3250    2.9680    0.0610 C.3     1  UNL1        0.1270
      2  C          6.2100    3.8750    0.8300 C.2     1  UNL1        0.3030
      3  O          6.8910    4.7600    0.2560 O.2     1  UNL1       -0.2520
      4  O          6.3100    3.7700    2.2080 O.3     1  UNL1       -0.4810
      5  H          6.2250    2.8490    2.6470 H       1  UNL1        0.2960
      6  C          5.2130    1.6750    0.8090 C.3     1  UNL1        0.0470
      7  C          5.9890    0.5820    0.2260 C.2     1  UNL1       -0.0470
      8  C          6.3910   -0.4850    0.9970 C.2     1  UNL1        0.0040
      9  C          6.3150    0.6270   -1.1100 C.2     1  UNL1        0.0040
     10  C          7.1290   -1.4930    0.3730 C.2     1  UNL1        0.0000
     11  C          7.0450   -0.3710   -1.7250 C.2     1  UNL1        0.0000
     12  C          7.4520   -1.4420   -0.9590 C.2     1  UNL1        0.0000
@<TRIPOS>BOND
     1    11     9    1
     2    11    12    2
     3     9     7    2
     4    12    10    1
     5     1     6    1
     6     1     2    1
     7     7     6    1
     8     7     8    1
     9     3     2    2
    10    10     8    2
    11     2     4    1
    12     4     5    1
