MODEL 1
REMARK VINA RESULT:      -7.3      0.000      0.000
REMARK SMILES O=C(O)CCc1ccccc1
REMARK SMILES IDX 4 1 2 2 1 3 3 4 5 6 6 7 7 8 11 9 8 10 10 11 9 12
REMARK H PARENT 3 5
REMARK Flexibility Score: inf
ROOT
ATOM      1  C   UNL     1       8.443  -0.681  -2.026  1.00  0.00     0.127 C 
ENDROOT
BRANCH   1   2
ATOM      2  C   UNL     1       8.397  -1.903  -2.863  1.00  0.00     0.303 C 
ATOM      3  O   UNL     1       7.304  -2.401  -3.229  1.00  0.00    -0.252 OA
BRANCH   2   4
ATOM      4  O   UNL     1       9.565  -2.532  -3.267  1.00  0.00    -0.481 OA
ATOM      5  H   UNL     1       9.547  -3.533  -3.477  1.00  0.00     0.296 HD
ENDBRANCH   2   4
ENDBRANCH   1   2
BRANCH   1   6
ATOM      6  C   UNL     1       7.090  -0.038  -2.058  1.00  0.00     0.047 C 
BRANCH   6   7
ATOM      7  C   UNL     1       6.487   0.143  -0.739  1.00  0.00    -0.047 A 
ATOM      8  C   UNL     1       5.809   1.299  -0.428  1.00  0.00     0.004 A 
ATOM      9  C   UNL     1       6.601  -0.861   0.195  1.00  0.00     0.004 A 
ATOM     10  C   UNL     1       5.257   1.403   0.851  1.00  0.00     0.000 A 
ATOM     11  C   UNL     1       6.055  -0.756   1.459  1.00  0.00     0.000 A 
ATOM     12  C   UNL     1       5.375   0.399   1.779  1.00  0.00     0.000 A 
ENDBRANCH   6   7
ENDBRANCH   1   6
TORSDOF 4
ENDMDL
MODEL 2
REMARK VINA RESULT:      -7.3      0.052      1.437
REMARK SMILES O=C(O)CCc1ccccc1
REMARK SMILES IDX 4 1 2 2 1 3 3 4 5 6 6 7 7 8 11 9 8 10 10 11 9 12
REMARK H PARENT 3 5
REMARK Flexibility Score: inf
ROOT
ATOM      1  C   UNL     1       8.452  -0.626  -2.114  1.00  0.00     0.127 C 
ENDROOT
BRANCH   1   2
ATOM      2  C   UNL     1       8.400  -1.892  -2.882  1.00  0.00     0.303 C 
ATOM      3  O   UNL     1       7.303  -2.410  -3.210  1.00  0.00    -0.252 OA
BRANCH   2   4
ATOM      4  O   UNL     1       9.563  -2.542  -3.261  1.00  0.00    -0.481 OA
ATOM      5  H   UNL     1       9.937  -3.288  -2.667  1.00  0.00     0.296 HD
ENDBRANCH   2   4
ENDBRANCH   1   2
BRANCH   1   6
ATOM      6  C   UNL     1       7.078  -0.030  -2.095  1.00  0.00     0.047 C 
BRANCH   6   7
ATOM      7  C   UNL     1       6.504   0.096  -0.756  1.00  0.00    -0.047 A 
ATOM      8  C   UNL     1       6.635  -0.918   0.164  1.00  0.00     0.004 A 
ATOM      9  C   UNL     1       5.828   1.246  -0.421  1.00  0.00     0.004 A 
ATOM     10  C   UNL     1       6.062  -0.729   1.423  1.00  0.00     0.000 A 
ATOM     11  C   UNL     1       5.261   1.432   0.824  1.00  0.00     0.000 A 
ATOM     12  C   UNL     1       5.388   0.420   1.751  1.00  0.00     0.000 A 
ENDBRANCH   6   7
ENDBRANCH   1   6
TORSDOF 4
ENDMDL
MODEL 3
REMARK VINA RESULT:      -6.8      3.304      5.155
REMARK SMILES O=C(O)CCc1ccccc1
REMARK SMILES IDX 4 1 2 2 1 3 3 4 5 6 6 7 7 8 11 9 8 10 10 11 9 12
REMARK H PARENT 3 5
REMARK Flexibility Score: inf
ROOT
ATOM      1  C   UNL     1       4.996   1.720   0.714  1.00  0.00     0.127 C 
ENDROOT
BRANCH   1   2
ATOM      2  C   UNL     1       4.475   1.066   1.937  1.00  0.00     0.303 C 
ATOM      3  O   UNL     1       5.124   0.163   2.520  1.00  0.00    -0.252 OA
BRANCH   2   4
ATOM      4  O   UNL     1       3.251   1.435   2.473  1.00  0.00    -0.481 OA
ATOM      5  H   UNL     1       3.217   2.173   3.181  1.00  0.00     0.296 HD
ENDBRANCH   2   4
ENDBRANCH   1   2
BRANCH   1   6
ATOM      6  C   UNL     1       6.493   1.702   0.772  1.00  0.00     0.047 C 
BRANCH   6   7
ATOM      7  C   UNL     1       7.121   0.960  -0.320  1.00  0.00    -0.047 A 
ATOM      8  C   UNL     1       6.417   0.008  -1.021  1.00  0.00     0.004 A 
ATOM      9  C   UNL     1       8.432   1.224  -0.645  1.00  0.00     0.004 A 
ATOM     10  C   UNL     1       7.080  -0.661  -2.052  1.00  0.00     0.000 A 
ATOM     11  C   UNL     1       9.086   0.561  -1.664  1.00  0.00     0.000 A 
ATOM     12  C   UNL     1       8.388  -0.394  -2.370  1.00  0.00     0.000 A 
ENDBRANCH   6   7
ENDBRANCH   1   6
TORSDOF 4
ENDMDL
MODEL 4
REMARK VINA RESULT:      -6.6      3.673      5.110
REMARK SMILES O=C(O)CCc1ccccc1
REMARK SMILES IDX 4 1 2 2 1 3 3 4 5 6 6 7 7 8 11 9 8 10 10 11 9 12
REMARK H PARENT 3 5
REMARK Flexibility Score: inf
ROOT
ATOM      1  C   UNL     1       5.325   2.968   0.061  1.00  0.00     0.127 C 
ENDROOT
BRANCH   1   2
ATOM      2  C   UNL     1       6.210   3.875   0.830  1.00  0.00     0.303 C 
ATOM      3  O   UNL     1       6.891   4.760   0.256  1.00  0.00    -0.252 OA
BRANCH   2   4
ATOM      4  O   UNL     1       6.310   3.770   2.208  1.00  0.00    -0.481 OA
ATOM      5  H   UNL     1       6.225   2.849   2.647  1.00  0.00     0.296 HD
ENDBRANCH   2   4
ENDBRANCH   1   2
BRANCH   1   6
ATOM      6  C   UNL     1       5.213   1.675   0.809  1.00  0.00     0.047 C 
BRANCH   6   7
ATOM      7  C   UNL     1       5.989   0.582   0.226  1.00  0.00    -0.047 A 
ATOM      8  C   UNL     1       6.391  -0.485   0.997  1.00  0.00     0.004 A 
ATOM      9  C   UNL     1       6.315   0.627  -1.110  1.00  0.00     0.004 A 
ATOM     10  C   UNL     1       7.129  -1.493   0.373  1.00  0.00     0.000 A 
ATOM     11  C   UNL     1       7.045  -0.371  -1.725  1.00  0.00     0.000 A 
ATOM     12  C   UNL     1       7.452  -1.442  -0.959  1.00  0.00     0.000 A 
ENDBRANCH   6   7
ENDBRANCH   1   6
TORSDOF 4
ENDMDL
MODEL 5
REMARK VINA RESULT:      -6.6      2.023      2.631
REMARK SMILES O=C(O)CCc1ccccc1
REMARK SMILES IDX 4 1 2 2 1 3 3 4 5 6 6 7 7 8 11 9 8 10 10 11 9 12
REMARK H PARENT 3 5
REMARK Flexibility Score: inf
ROOT
ATOM      1  C   UNL     1       8.494   0.593  -1.795  1.00  0.00     0.127 C 
ENDROOT
BRANCH   1   2
ATOM      2  C   UNL     1       9.613   0.277  -0.877  1.00  0.00     0.303 C 
ATOM      3  O   UNL     1       9.464  -0.520   0.082  1.00  0.00    -0.252 OA
BRANCH   2   4
ATOM      4  O   UNL     1      10.860   0.856  -1.053  1.00  0.00    -0.481 OA
ATOM      5  H   UNL     1      11.615   0.303  -1.468  1.00  0.00     0.296 HD
ENDBRANCH   2   4
ENDBRANCH   1   2
BRANCH   1   6
ATOM      6  C   UNL     1       7.322  -0.261  -1.418  1.00  0.00     0.047 C 
BRANCH   6   7
ATOM      7  C   UNL     1       6.436   0.348  -0.427  1.00  0.00    -0.047 A 
ATOM      8  C   UNL     1       6.197  -0.272   0.777  1.00  0.00     0.004 A 
ATOM      9  C   UNL     1       5.841   1.555  -0.711  1.00  0.00     0.004 A 
ATOM     10  C   UNL     1       5.341   0.368   1.677  1.00  0.00     0.000 A 
ATOM     11  C   UNL     1       4.995   2.186   0.180  1.00  0.00     0.000 A 
ATOM     12  C   UNL     1       4.750   1.572   1.389  1.00  0.00     0.000 A 
ENDBRANCH   6   7
ENDBRANCH   1   6
TORSDOF 4
ENDMDL
