@<TRIPOS>MOLECULE
/home/cewinharhar/GITHUB/reincatalyze/data/processed/docking_pred/2023_Apr_20-15:07/e3e22a08cc3fa656d2264310e8071e645bf38a06_ligand_2.pdbqt
 12 12 0 0 0
SMALL
GASTEIGER

@<TRIPOS>ATOM
      1  C          8.4940    0.5930   -1.7950 C.3     1  UNL1        0.1270
      2  C          9.6130    0.2770   -0.8770 C.2     1  UNL1        0.3030
      3  O          9.4640   -0.5200    0.0820 O.2     1  UNL1       -0.2520
      4  O         10.8600    0.8560   -1.0530 O.3     1  UNL1       -0.4810
      5  H         11.6150    0.3030   -1.4680 H       1  UNL1        0.2960
      6  C          7.3220   -0.2610   -1.4180 C.3     1  UNL1        0.0470
      7  C          6.4360    0.3480   -0.4270 C.2     1  UNL1       -0.0470
      8  C          6.1970   -0.2720    0.7770 C.2     1  UNL1        0.0040
      9  C          5.8410    1.5550   -0.7110 C.2     1  UNL1        0.0040
     10  C          5.3410    0.3680    1.6770 C.2     1  UNL1        0.0000
     11  C          4.9950    2.1860    0.1800 C.2     1  UNL1        0.0000
     12  C          4.7500    1.5720    1.3890 C.2     1  UNL1        0.0000
@<TRIPOS>BOND
     1     1     6    1
     2     1     2    1
     3     5     4    1
     4     6     7    1
     5     4     2    1
     6     2     3    2
     7     9     7    2
     8     9    11    1
     9     7     8    1
    10    11    12    2
    11     8    10    2
    12    12    10    1
