@<TRIPOS>MOLECULE
/home/cewinharhar/GITHUB/reincatalyze/data/processed/docking_pred/2023_Apr_20-15:07/e3e22a08cc3fa656d2264310e8071e645bf38a06_ligand_2.pdbqt
 12 12 0 0 0
SMALL
GASTEIGER

@<TRIPOS>ATOM
      1  C          4.9960    1.7200    0.7140 C.3     1  UNL1        0.1270
      2  C          4.4750    1.0660    1.9370 C.2     1  UNL1        0.3030
      3  O          5.1240    0.1630    2.5200 O.2     1  UNL1       -0.2520
      4  O          3.2510    1.4350    2.4730 O.3     1  UNL1       -0.4810
      5  H          3.2170    2.1730    3.1810 H       1  UNL1        0.2960
      6  C          6.4930    1.7020    0.7720 C.3     1  UNL1        0.0470
      7  C          7.1210    0.9600   -0.3200 C.2     1  UNL1       -0.0470
      8  C          6.4170    0.0080   -1.0210 C.2     1  UNL1        0.0040
      9  C          8.4320    1.2240   -0.6450 C.2     1  UNL1        0.0040
     10  C          7.0800   -0.6610   -2.0520 C.2     1  UNL1        0.0000
     11  C          9.0860    0.5610   -1.6640 C.2     1  UNL1        0.0000
     12  C          8.3880   -0.3940   -2.3700 C.2     1  UNL1        0.0000
@<TRIPOS>BOND
     1    12    10    2
     2    12    11    1
     3    10     8    1
     4    11     9    2
     5     8     7    2
     6     9     7    1
     7     7     6    1
     8     1     6    1
     9     1     2    1
    10     2     4    1
    11     2     3    2
    12     4     5    1
