@<TRIPOS>MOLECULE
/home/cewinharhar/GITHUB/reincatalyze/data/processed/docking_pred/2023_Apr_20-15:07/e3e22a08cc3fa656d2264310e8071e645bf38a06_ligand_2.pdbqt
 12 12 0 0 0
SMALL
GASTEIGER

@<TRIPOS>ATOM
      1  C          8.4430   -0.6810   -2.0260 C.3     1  UNL1        0.1270
      2  C          8.3970   -1.9030   -2.8630 C.2     1  UNL1        0.3030
      3  O          7.3040   -2.4010   -3.2290 O.2     1  UNL1       -0.2520
      4  O          9.5650   -2.5320   -3.2670 O.3     1  UNL1       -0.4810
      5  H          9.5470   -3.5330   -3.4770 H       1  UNL1        0.2960
      6  C          7.0900   -0.0380   -2.0580 C.3     1  UNL1        0.0470
      7  C          6.4870    0.1430   -0.7390 C.2     1  UNL1       -0.0470
      8  C          5.8090    1.2990   -0.4280 C.2     1  UNL1        0.0040
      9  C          6.6010   -0.8610    0.1950 C.2     1  UNL1        0.0040
     10  C          5.2570    1.4030    0.8510 C.2     1  UNL1        0.0000
     11  C          6.0550   -0.7560    1.4590 C.2     1  UNL1        0.0000
     12  C          5.3750    0.3990    1.7790 C.2     1  UNL1        0.0000
@<TRIPOS>BOND
     1     5     4    1
     2     4     2    1
     3     3     2    2
     4     2     1    1
     5     6     1    1
     6     6     7    1
     7     7     8    2
     8     7     9    1
     9     8    10    1
    10     9    11    2
    11    10    12    2
    12    11    12    1
