@<TRIPOS>MOLECULE
/home/cewinharhar/GITHUB/reincatalyze/data/processed/docking_pred/2023_Apr_20-15:07/e3e22a08cc3fa656d2264310e8071e645bf38a06_ligand_2.pdbqt
 12 12 0 0 0
SMALL
GASTEIGER

@<TRIPOS>ATOM
      1  C          8.4520   -0.6260   -2.1140 C.3     1  UNL1        0.1270
      2  C          8.4000   -1.8920   -2.8820 C.2     1  UNL1        0.3030
      3  O          7.3030   -2.4100   -3.2100 O.2     1  UNL1       -0.2520
      4  O          9.5630   -2.5420   -3.2610 O.3     1  UNL1       -0.4810
      5  H          9.9370   -3.2880   -2.6670 H       1  UNL1        0.2960
      6  C          7.0780   -0.0300   -2.0950 C.3     1  UNL1        0.0470
      7  C          6.5040    0.0960   -0.7560 C.2     1  UNL1       -0.0470
      8  C          6.6350   -0.9180    0.1640 C.2     1  UNL1        0.0040
      9  C          5.8280    1.2460   -0.4210 C.2     1  UNL1        0.0040
     10  C          6.0620   -0.7290    1.4230 C.2     1  UNL1        0.0000
     11  C          5.2610    1.4320    0.8240 C.2     1  UNL1        0.0000
     12  C          5.3880    0.4200    1.7510 C.2     1  UNL1        0.0000
@<TRIPOS>BOND
     1     4     2    1
     2     4     5    1
     3     3     2    2
     4     2     1    1
     5     1     6    1
     6     6     7    1
     7     7     9    2
     8     7     8    1
     9     9    11    1
    10     8    10    2
    11    11    12    2
    12    10    12    1
