@<TRIPOS>MOLECULE
/home/cewinharhar/GITHUB/reincatalyze/data/processed/docking_pred/2023_Apr_20-15:07/e3fbdfe9b196bdc40f83d7817e536621cd4b8c1b_ligand_2.pdbqt
 12 12 0 0 0
SMALL
GASTEIGER

@<TRIPOS>ATOM
      1  C          8.3360    0.1040   -2.0320 C.3     1  UNL1        0.1270
      2  C          9.4560    0.3330   -1.0890 C.2     1  UNL1        0.3030
      3  O          9.5800   -0.3550   -0.0460 O.2     1  UNL1       -0.2520
      4  O         10.4010    1.3170   -1.3340 O.3     1  UNL1       -0.4810
      5  H         11.3600    1.1850   -1.0000 H       1  UNL1        0.2960
      6  C          7.2790   -0.6860   -1.3240 C.3     1  UNL1        0.0470
      7  C          6.4450    0.1090   -0.4240 C.2     1  UNL1       -0.0470
      8  C          6.1740   -0.3270    0.8530 C.2     1  UNL1        0.0040
      9  C          5.9330    1.3070   -0.8660 C.2     1  UNL1        0.0040
     10  C          5.3720    0.4850    1.6580 C.2     1  UNL1        0.0000
     11  C          5.1390    2.1080   -0.0680 C.2     1  UNL1        0.0000
     12  C          4.8630    1.6780    1.2110 C.2     1  UNL1        0.0000
@<TRIPOS>BOND
     1     1     6    1
     2     1     2    1
     3     4     2    1
     4     4     5    1
     5     6     7    1
     6     2     3    2
     7     9     7    2
     8     9    11    1
     9     7     8    1
    10    11    12    2
    11     8    10    2
    12    12    10    1
