@<TRIPOS>MOLECULE
/home/cewinharhar/GITHUB/reincatalyze/data/processed/docking_pred/2023_Apr_20-15:07/e3fbdfe9b196bdc40f83d7817e536621cd4b8c1b_ligand_2.pdbqt
 12 12 0 0 0
SMALL
GASTEIGER

@<TRIPOS>ATOM
      1  C          8.4180   -0.6430   -2.1000 C.3     1  UNL1        0.1270
      2  C          8.3680   -1.9010   -2.8820 C.2     1  UNL1        0.3030
      3  O          7.2730   -2.3950   -3.2500 O.2     1  UNL1       -0.2520
      4  O          9.5310   -2.5690   -3.2280 O.3     1  UNL1       -0.4810
      5  H          9.7270   -2.7550   -4.2160 H       1  UNL1        0.2960
      6  C          7.0540   -0.0250   -2.1140 C.3     1  UNL1        0.0470
      7  C          6.4720    0.1620   -0.7860 C.2     1  UNL1       -0.0470
      8  C          5.7750    1.3070   -0.4780 C.2     1  UNL1        0.0040
      9  C          6.6260   -0.8260    0.1590 C.2     1  UNL1        0.0040
     10  C          5.2460    1.4180    0.8100 C.2     1  UNL1        0.0000
     11  C          6.1020   -0.7150    1.4320 C.2     1  UNL1        0.0000
     12  C          5.4030    0.4300    1.7490 C.2     1  UNL1        0.0000
@<TRIPOS>BOND
     1     5     4    1
     2     3     2    2
     3     4     2    1
     4     2     1    1
     5     6     1    1
     6     6     7    1
     7     7     8    2
     8     7     9    1
     9     8    10    1
    10     9    11    2
    11    10    12    2
    12    11    12    1
