@<TRIPOS>MOLECULE
/home/cewinharhar/GITHUB/reincatalyze/data/processed/docking_pred/2023_Apr_20-15:07/e3fbdfe9b196bdc40f83d7817e536621cd4b8c1b_ligand_2.pdbqt
 12 12 0 0 0
SMALL
GASTEIGER

@<TRIPOS>ATOM
      1  C          5.0130    1.8220    0.7330 C.3     1  UNL1        0.1270
      2  C          4.4840    1.1170    1.9240 C.2     1  UNL1        0.3030
      3  O          5.1350    0.1950    2.4760 O.2     1  UNL1       -0.2520
      4  O          3.2530    1.4550    2.4620 O.3     1  UNL1       -0.4810
      5  H          2.4210    0.9330    2.1760 H       1  UNL1        0.2960
      6  C          6.5090    1.7720    0.7810 C.3     1  UNL1        0.0470
      7  C          7.1160    1.0340   -0.3250 C.2     1  UNL1       -0.0470
      8  C          6.3700    0.1570   -1.0780 C.2     1  UNL1        0.0040
      9  C          8.4480    1.2270   -0.6110 C.2     1  UNL1        0.0040
     10  C          7.0140   -0.5130   -2.1210 C.2     1  UNL1        0.0000
     11  C          9.0830    0.5630   -1.6410 C.2     1  UNL1        0.0000
     12  C          8.3430   -0.3180   -2.4000 C.2     1  UNL1        0.0000
@<TRIPOS>BOND
     1    12    10    2
     2    12    11    1
     3    10     8    1
     4    11     9    2
     5     8     7    2
     6     9     7    1
     7     7     6    1
     8     1     6    1
     9     1     2    1
    10     2     4    1
    11     2     3    2
    12     5     4    1
