@<TRIPOS>MOLECULE
/home/cewinharhar/GITHUB/reincatalyze/data/processed/docking_pred/2023_Apr_20-15:07/e3fbdfe9b196bdc40f83d7817e536621cd4b8c1b_ligand_2.pdbqt
 12 12 0 0 0
SMALL
GASTEIGER

@<TRIPOS>ATOM
      1  C          8.0080   -2.0570    0.8570 C.3     1  UNL1        0.1270
      2  C          8.7470   -3.2460    0.3710 C.2     1  UNL1        0.3030
      3  O          9.5950   -3.8260    1.0930 O.2     1  UNL1       -0.2520
      4  O          8.5200   -3.7520   -0.8990 O.3     1  UNL1       -0.4810
      5  H          8.8180   -3.2100   -1.7150 H       1  UNL1        0.2960
      6  C          7.3300   -1.4120   -0.3130 C.3     1  UNL1        0.0470
      7  C          6.5030   -0.2600    0.0390 C.2     1  UNL1       -0.0470
      8  C          6.2760    0.7470   -0.8700 C.2     1  UNL1        0.0040
      9  C          5.9480   -0.1910    1.2960 C.2     1  UNL1        0.0040
     10  C          5.4750    1.8180   -0.4650 C.2     1  UNL1        0.0000
     11  C          5.1570    0.8680    1.6950 C.2     1  UNL1        0.0000
     12  C          4.9250    1.8810    0.7910 C.2     1  UNL1        0.0000
@<TRIPOS>BOND
     1     5     4    1
     2     4     2    1
     3     8    10    1
     4     8     7    2
     5    10    12    2
     6     6     7    1
     7     6     1    1
     8     7     9    1
     9     2     1    1
    10     2     3    2
    11    12    11    1
    12     9    11    2
