@<TRIPOS>MOLECULE
/home/cewinharhar/GITHUB/reincatalyze/data/processed/docking_pred/2023_Apr_20-15:07/e3fbdfe9b196bdc40f83d7817e536621cd4b8c1b_ligand_2.pdbqt
 12 12 0 0 0
SMALL
GASTEIGER

@<TRIPOS>ATOM
      1  C          8.4430   -0.6090   -2.1460 C.3     1  UNL1        0.1270
      2  C          8.3900   -1.8890   -2.8920 C.2     1  UNL1        0.3030
      3  O          7.2930   -2.4080   -3.2150 O.2     1  UNL1       -0.2520
      4  O          9.5530   -2.5490   -3.2520 O.3     1  UNL1       -0.4810
      5  H         10.1570   -2.9350   -2.5220 H       1  UNL1        0.2960
      6  C          7.0650   -0.0220   -2.1200 C.3     1  UNL1        0.0470
      7  C          6.4990    0.1050   -0.7780 C.2     1  UNL1       -0.0470
      8  C          6.6450   -0.9030    0.1460 C.2     1  UNL1        0.0040
      9  C          5.8160    1.2520   -0.4430 C.2     1  UNL1        0.0040
     10  C          6.0790   -0.7130    1.4090 C.2     1  UNL1        0.0000
     11  C          5.2570    1.4380    0.8050 C.2     1  UNL1        0.0000
     12  C          5.3980    0.4320    1.7360 C.2     1  UNL1        0.0000
@<TRIPOS>BOND
     1     4     2    1
     2     4     5    1
     3     3     2    2
     4     2     1    1
     5     1     6    1
     6     6     7    1
     7     7     9    2
     8     7     8    1
     9     9    11    1
    10     8    10    2
    11    11    12    2
    12    10    12    1
