@<TRIPOS>MOLECULE
/home/cewinharhar/GITHUB/reincatalyze/data/processed/docking_pred/2023_Apr_20-15:07/e4036567ae6c7c824a0e93db279f74886267d276_ligand_2.pdbqt
 12 12 0 0 0
SMALL
GASTEIGER

@<TRIPOS>ATOM
      1  C          8.1350    0.2980   -2.0720 C.3     1  UNL1        0.1270
      2  C          9.3320    0.3630   -1.2010 C.2     1  UNL1        0.3030
      3  O          9.4590   -0.3970   -0.2100 O.2     1  UNL1       -0.2520
      4  O         10.3490    1.2690   -1.4590 O.3     1  UNL1       -0.4810
      5  H         10.8160    1.2520   -2.3700 H       1  UNL1        0.2960
      6  C          7.1110   -0.5660   -1.4000 C.3     1  UNL1        0.0470
      7  C          6.3300    0.1250   -0.3760 C.2     1  UNL1       -0.0470
      8  C          6.1260   -0.4470    0.8590 C.2     1  UNL1        0.0040
      9  C          5.7970    1.3610   -0.6580 C.2     1  UNL1        0.0040
     10  C          5.3710    0.2710    1.7890 C.2     1  UNL1        0.0000
     11  C          5.0500    2.0690    0.2620 C.2     1  UNL1        0.0000
     12  C          4.8410    1.5030    1.5010 C.2     1  UNL1        0.0000
@<TRIPOS>BOND
     1     5     4    1
     2     1     6    1
     3     1     2    1
     4     4     2    1
     5     6     7    1
     6     2     3    2
     7     9     7    2
     8     9    11    1
     9     7     8    1
    10    11    12    2
    11     8    10    2
    12    12    10    1
