@<TRIPOS>MOLECULE
/home/cewinharhar/GITHUB/reincatalyze/data/processed/docking_pred/2023_Apr_20-15:07/e4036567ae6c7c824a0e93db279f74886267d276_ligand_2.pdbqt
 12 12 0 0 0
SMALL
GASTEIGER

@<TRIPOS>ATOM
      1  C          8.4430   -0.6350   -2.1210 C.3     1  UNL1        0.1270
      2  C          8.4800   -1.8950   -2.8990 C.2     1  UNL1        0.3030
      3  O          9.5570   -2.5140   -3.0840 O.2     1  UNL1       -0.2520
      4  O          7.3240   -2.4270   -3.4460 O.3     1  UNL1       -0.4810
      5  H          6.4650   -1.8690   -3.4410 H       1  UNL1        0.2960
      6  C          7.0320   -0.1300   -2.1100 C.3     1  UNL1        0.0470
      7  C          6.4790    0.0620   -0.7700 C.2     1  UNL1       -0.0470
      8  C          5.8300    1.2280   -0.4370 C.2     1  UNL1        0.0040
      9  C          6.6130   -0.9420    0.1610 C.2     1  UNL1        0.0040
     10  C          5.3260    1.3410    0.8610 C.2     1  UNL1        0.0000
     11  C          6.1150   -0.8280    1.4440 C.2     1  UNL1        0.0000
     12  C          5.4630    0.3370    1.7850 C.2     1  UNL1        0.0000
@<TRIPOS>BOND
     1     4     5    1
     2     4     2    1
     3     3     2    2
     4     2     1    1
     5     1     6    1
     6     6     7    1
     7     7     8    2
     8     7     9    1
     9     8    10    1
    10     9    11    2
    11    10    12    2
    12    11    12    1
