@<TRIPOS>MOLECULE
/home/cewinharhar/GITHUB/reincatalyze/data/processed/docking_pred/2023_Apr_20-15:07/e4036567ae6c7c824a0e93db279f74886267d276_ligand_2.pdbqt
 12 12 0 0 0
SMALL
GASTEIGER

@<TRIPOS>ATOM
      1  C          7.2850   -1.2700   -2.2120 C.3     1  UNL1        0.1270
      2  C          8.7300   -1.3600   -2.5270 C.2     1  UNL1        0.3030
      3  O          9.5420   -0.5000   -2.1060 O.2     1  UNL1       -0.2520
      4  O          9.2250   -2.4000   -3.2980 O.3     1  UNL1       -0.4810
      5  H          8.5710   -3.0500   -3.7420 H       1  UNL1        0.2960
      6  C          7.1210   -1.3520   -0.7250 C.3     1  UNL1        0.0470
      7  C          6.3740   -0.2360   -0.1470 C.2     1  UNL1       -0.0470
      8  C          6.1220    0.8980   -0.8830 C.2     1  UNL1        0.0040
      9  C          5.9190   -0.3320    1.1480 C.2     1  UNL1        0.0040
     10  C          5.4020    1.9240   -0.2670 C.2     1  UNL1        0.0000
     11  C          5.2070    0.6830    1.7560 C.2     1  UNL1        0.0000
     12  C          4.9520    1.8240    1.0250 C.2     1  UNL1        0.0000
@<TRIPOS>BOND
     1     5     4    1
     2     4     2    1
     3     2     1    1
     4     2     3    2
     5     1     6    1
     6     8    10    1
     7     8     7    2
     8     6     7    1
     9    10    12    2
    10     7     9    1
    11    12    11    1
    12     9    11    2
