@<TRIPOS>MOLECULE
/home/cewinharhar/GITHUB/reincatalyze/data/processed/docking_pred/2023_Apr_20-15:07/e4036567ae6c7c824a0e93db279f74886267d276_ligand_2.pdbqt
 12 12 0 0 0
SMALL
GASTEIGER

@<TRIPOS>ATOM
      1  C          4.9640    1.8000    0.7090 C.3     1  UNL1        0.1270
      2  C          4.4760    1.1090    1.9260 C.2     1  UNL1        0.3030
      3  O          5.1570    0.2120    2.4820 O.2     1  UNL1       -0.2520
      4  O          3.2490    1.4330    2.4830 O.3     1  UNL1       -0.4810
      5  H          2.7400    0.7260    3.0200 H       1  UNL1        0.2960
      6  C          6.4610    1.8210    0.7490 C.3     1  UNL1        0.0470
      7  C          7.0950    1.0820   -0.3420 C.2     1  UNL1       -0.0470
      8  C          6.3600    0.2350   -1.1370 C.2     1  UNL1        0.0040
      9  C          8.4420    1.2430   -0.5680 C.2     1  UNL1        0.0040
     10  C          7.0310   -0.4390   -2.1610 C.2     1  UNL1        0.0000
     11  C          9.1040    0.5760   -1.5800 C.2     1  UNL1        0.0000
     12  C          8.3750   -0.2750   -2.3810 C.2     1  UNL1        0.0000
@<TRIPOS>BOND
     1    12    10    2
     2    12    11    1
     3    10     8    1
     4    11     9    2
     5     8     7    2
     6     9     7    1
     7     7     6    1
     8     1     6    1
     9     1     2    1
    10     2     3    2
    11     2     4    1
    12     4     5    1
