@<TRIPOS>MOLECULE
/home/cewinharhar/GITHUB/reincatalyze/data/processed/docking_pred/2023_Apr_20-15:07/e4036567ae6c7c824a0e93db279f74886267d276_ligand_2.pdbqt
 12 12 0 0 0
SMALL
GASTEIGER

@<TRIPOS>ATOM
      1  C          8.4060   -0.6070   -2.1520 C.3     1  UNL1        0.1270
      2  C          8.3750   -1.8820   -2.9070 C.2     1  UNL1        0.3030
      3  O          7.2880   -2.4080   -3.2520 O.2     1  UNL1       -0.2520
      4  O          9.5500   -2.5310   -3.2520 O.3     1  UNL1       -0.4810
      5  H         10.0900   -3.0100   -2.5270 H       1  UNL1        0.2960
      6  C          7.0150   -0.0520   -2.1090 C.3     1  UNL1        0.0470
      7  C          6.4700    0.0830   -0.7590 C.2     1  UNL1       -0.0470
      8  C          6.5930   -0.9380    0.1540 C.2     1  UNL1        0.0040
      9  C          5.8320    1.2500   -0.4070 C.2     1  UNL1        0.0040
     10  C          6.0490   -0.7400    1.4250 C.2     1  UNL1        0.0000
     11  C          5.2950    1.4440    0.8510 C.2     1  UNL1        0.0000
     12  C          5.4130    0.4250    1.7710 C.2     1  UNL1        0.0000
@<TRIPOS>BOND
     1     3     2    2
     2     4     2    1
     3     4     5    1
     4     2     1    1
     5     1     6    1
     6     6     7    1
     7     7     9    2
     8     7     8    1
     9     9    11    1
    10     8    10    2
    11    11    12    2
    12    10    12    1
