@<TRIPOS>MOLECULE
/home/cewinharhar/GITHUB/reincatalyze/data/processed/docking_pred/2023_Apr_20-15:07/e5153a6a2872aa0f73be7da8df97a591d10f8a10_ligand_2.pdbqt
 12 12 0 0 0
SMALL
GASTEIGER

@<TRIPOS>ATOM
      1  C          8.4640   -0.5770   -2.1950 C.3     1  UNL1        0.1270
      2  C          8.5050   -1.8720   -2.9140 C.2     1  UNL1        0.3030
      3  O          9.5880   -2.4820   -3.0930 O.2     1  UNL1       -0.2520
      4  O          7.3470   -2.4450   -3.4120 O.3     1  UNL1       -0.4810
      5  H          7.1500   -3.4300   -3.2150 H       1  UNL1        0.2960
      6  C          7.0420   -0.1050   -2.1580 C.3     1  UNL1        0.0470
      7  C          6.5010    0.0480   -0.8080 C.2     1  UNL1       -0.0470
      8  C          6.6350   -0.9580    0.1210 C.2     1  UNL1        0.0040
      9  C          5.8550    1.2150   -0.4720 C.2     1  UNL1        0.0040
     10  C          6.0950   -0.7430    1.3910 C.2     1  UNL1        0.0000
     11  C          5.3220    1.4260    0.7840 C.2     1  UNL1        0.0000
     12  C          5.4500    0.4230    1.7210 C.2     1  UNL1        0.0000
@<TRIPOS>BOND
     1     4     5    1
     2     4     2    1
     3     3     2    2
     4     2     1    1
     5     1     6    1
     6     6     7    1
     7     7     9    2
     8     7     8    1
     9     9    11    1
    10     8    10    2
    11    11    12    2
    12    10    12    1
