MODEL 1
REMARK VINA RESULT:      -7.3      0.000      0.000
REMARK SMILES O=C(O)CCc1ccccc1
REMARK SMILES IDX 4 1 2 2 1 3 3 4 5 6 6 7 7 8 11 9 8 10 10 11 9 12
REMARK H PARENT 3 5
REMARK Flexibility Score: inf
ROOT
ATOM      1  C   UNL     1       8.451  -0.648  -2.133  1.00  0.00     0.127 C 
ENDROOT
BRANCH   1   2
ATOM      2  C   UNL     1       8.479  -1.915  -2.901  1.00  0.00     0.303 C 
ATOM      3  O   UNL     1       9.554  -2.532  -3.100  1.00  0.00    -0.252 OA
BRANCH   2   4
ATOM      4  O   UNL     1       7.314  -2.455  -3.424  1.00  0.00    -0.481 OA
ATOM      5  H   UNL     1       6.614  -2.845  -2.787  1.00  0.00     0.296 HD
ENDBRANCH   2   4
ENDBRANCH   1   2
BRANCH   1   6
ATOM      6  C   UNL     1       7.046  -0.127  -2.136  1.00  0.00     0.047 C 
BRANCH   6   7
ATOM      7  C   UNL     1       6.483   0.072  -0.802  1.00  0.00    -0.047 A 
ATOM      8  C   UNL     1       5.840   1.244  -0.477  1.00  0.00     0.004 A 
ATOM      9  C   UNL     1       6.599  -0.931   0.132  1.00  0.00     0.004 A 
ATOM     10  C   UNL     1       5.325   1.364   0.816  1.00  0.00     0.000 A 
ATOM     11  C   UNL     1       6.090  -0.811   1.410  1.00  0.00     0.000 A 
ATOM     12  C   UNL     1       5.445   0.361   1.744  1.00  0.00     0.000 A 
ENDBRANCH   6   7
ENDBRANCH   1   6
TORSDOF 4
ENDMDL
MODEL 2
REMARK VINA RESULT:      -7.3      0.057      1.438
REMARK SMILES O=C(O)CCc1ccccc1
REMARK SMILES IDX 4 1 2 2 1 3 3 4 5 6 6 7 7 8 11 9 8 10 10 11 9 12
REMARK H PARENT 3 5
REMARK Flexibility Score: inf
ROOT
ATOM      1  C   UNL     1       8.464  -0.577  -2.195  1.00  0.00     0.127 C 
ENDROOT
BRANCH   1   2
ATOM      2  C   UNL     1       8.505  -1.872  -2.914  1.00  0.00     0.303 C 
ATOM      3  O   UNL     1       9.588  -2.482  -3.093  1.00  0.00    -0.252 OA
BRANCH   2   4
ATOM      4  O   UNL     1       7.347  -2.445  -3.412  1.00  0.00    -0.481 OA
ATOM      5  H   UNL     1       7.150  -3.430  -3.215  1.00  0.00     0.296 HD
ENDBRANCH   2   4
ENDBRANCH   1   2
BRANCH   1   6
ATOM      6  C   UNL     1       7.042  -0.105  -2.158  1.00  0.00     0.047 C 
BRANCH   6   7
ATOM      7  C   UNL     1       6.501   0.048  -0.808  1.00  0.00    -0.047 A 
ATOM      8  C   UNL     1       6.635  -0.958   0.121  1.00  0.00     0.004 A 
ATOM      9  C   UNL     1       5.855   1.215  -0.472  1.00  0.00     0.004 A 
ATOM     10  C   UNL     1       6.095  -0.743   1.391  1.00  0.00     0.000 A 
ATOM     11  C   UNL     1       5.322   1.426   0.784  1.00  0.00     0.000 A 
ATOM     12  C   UNL     1       5.450   0.423   1.721  1.00  0.00     0.000 A 
ENDBRANCH   6   7
ENDBRANCH   1   6
TORSDOF 4
ENDMDL
MODEL 3
REMARK VINA RESULT:      -6.8      3.378      5.054
REMARK SMILES O=C(O)CCc1ccccc1
REMARK SMILES IDX 4 1 2 2 1 3 3 4 5 6 6 7 7 8 11 9 8 10 10 11 9 12
REMARK H PARENT 3 5
REMARK Flexibility Score: inf
ROOT
ATOM      1  C   UNL     1       5.002   1.781   0.680  1.00  0.00     0.127 C 
ENDROOT
BRANCH   1   2
ATOM      2  C   UNL     1       4.491   1.115   1.902  1.00  0.00     0.303 C 
ATOM      3  O   UNL     1       5.152   0.216   2.478  1.00  0.00    -0.252 OA
BRANCH   2   4
ATOM      4  O   UNL     1       3.265   1.468   2.444  1.00  0.00    -0.481 OA
ATOM      5  H   UNL     1       2.822   0.848   3.127  1.00  0.00     0.296 HD
ENDBRANCH   2   4
ENDBRANCH   1   2
BRANCH   1   6
ATOM      6  C   UNL     1       6.499   1.794   0.742  1.00  0.00     0.047 C 
BRANCH   6   7
ATOM      7  C   UNL     1       7.145   1.050  -0.337  1.00  0.00    -0.047 A 
ATOM      8  C   UNL     1       8.474   1.250  -0.632  1.00  0.00     0.004 A 
ATOM      9  C   UNL     1       6.409   0.140  -1.060  1.00  0.00     0.004 A 
ATOM     10  C   UNL     1       9.026   0.503  -1.675  1.00  0.00     0.000 A 
ATOM     11  C   UNL     1       6.956  -0.597  -2.091  1.00  0.00     0.000 A 
ATOM     12  C   UNL     1       8.286  -0.402  -2.393  1.00  0.00     0.000 A 
ENDBRANCH   6   7
ENDBRANCH   1   6
TORSDOF 4
ENDMDL
MODEL 4
REMARK VINA RESULT:      -6.7      1.931      2.658
REMARK SMILES O=C(O)CCc1ccccc1
REMARK SMILES IDX 4 1 2 2 1 3 3 4 5 6 6 7 7 8 11 9 8 10 10 11 9 12
REMARK H PARENT 3 5
REMARK Flexibility Score: inf
ROOT
ATOM      1  C   UNL     1       8.233   0.228  -2.210  1.00  0.00     0.127 C 
ENDROOT
BRANCH   1   2
ATOM      2  C   UNL     1       9.367   0.350  -1.264  1.00  0.00     0.303 C 
ATOM      3  O   UNL     1       9.457  -0.394  -0.256  1.00  0.00    -0.252 OA
BRANCH   2   4
ATOM      4  O   UNL     1      10.363   1.291  -1.468  1.00  0.00    -0.481 OA
ATOM      5  H   UNL     1      11.332   0.979  -1.577  1.00  0.00     0.296 HD
ENDBRANCH   2   4
ENDBRANCH   1   2
BRANCH   1   6
ATOM      6  C   UNL     1       7.137  -0.539  -1.534  1.00  0.00     0.047 C 
BRANCH   6   7
ATOM      7  C   UNL     1       6.355   0.252  -0.586  1.00  0.00    -0.047 A 
ATOM      8  C   UNL     1       6.146  -0.194   0.698  1.00  0.00     0.004 A 
ATOM      9  C   UNL     1       5.829   1.458  -0.990  1.00  0.00     0.004 A 
ATOM     10  C   UNL     1       5.390   0.614   1.551  1.00  0.00     0.000 A 
ATOM     11  C   UNL     1       5.082   2.255  -0.146  1.00  0.00     0.000 A 
ATOM     12  C   UNL     1       4.867   1.814   1.142  1.00  0.00     0.000 A 
ENDBRANCH   6   7
ENDBRANCH   1   6
TORSDOF 4
ENDMDL
MODEL 5
REMARK VINA RESULT:      -6.4      3.734      5.062
REMARK SMILES O=C(O)CCc1ccccc1
REMARK SMILES IDX 4 1 2 2 1 3 3 4 5 6 6 7 7 8 11 9 8 10 10 11 9 12
REMARK H PARENT 3 5
REMARK Flexibility Score: inf
ROOT
ATOM      1  C   UNL     1       5.518   3.098   0.023  1.00  0.00     0.127 C 
ENDROOT
BRANCH   1   2
ATOM      2  C   UNL     1       6.416   3.877   0.907  1.00  0.00     0.303 C 
ATOM      3  O   UNL     1       7.164   4.775   0.448  1.00  0.00    -0.252 OA
BRANCH   2   4
ATOM      4  O   UNL     1       6.456   3.633   2.271  1.00  0.00    -0.481 OA
ATOM      5  H   UNL     1       6.582   2.673   2.605  1.00  0.00     0.296 HD
ENDBRANCH   2   4
ENDBRANCH   1   2
BRANCH   1   6
ATOM      6  C   UNL     1       5.182   1.809   0.709  1.00  0.00     0.047 C 
BRANCH   6   7
ATOM      7  C   UNL     1       5.969   0.667   0.247  1.00  0.00    -0.047 A 
ATOM      8  C   UNL     1       6.338  -0.332   1.118  1.00  0.00     0.004 A 
ATOM      9  C   UNL     1       6.338   0.598  -1.077  1.00  0.00     0.004 A 
ATOM     10  C   UNL     1       7.088  -1.394   0.607  1.00  0.00     0.000 A 
ATOM     11  C   UNL     1       7.080  -0.452  -1.580  1.00  0.00     0.000 A 
ATOM     12  C   UNL     1       7.454  -1.457  -0.714  1.00  0.00     0.000 A 
ENDBRANCH   6   7
ENDBRANCH   1   6
TORSDOF 4
ENDMDL
