@<TRIPOS>MOLECULE
/home/cewinharhar/GITHUB/reincatalyze/data/processed/docking_pred/2023_Apr_20-15:07/e5153a6a2872aa0f73be7da8df97a591d10f8a10_ligand_2.pdbqt
 12 12 0 0 0
SMALL
GASTEIGER

@<TRIPOS>ATOM
      1  C          5.5180    3.0980    0.0230 C.3     1  UNL1        0.1270
      2  C          6.4160    3.8770    0.9070 C.2     1  UNL1        0.3030
      3  O          7.1640    4.7750    0.4480 O.2     1  UNL1       -0.2520
      4  O          6.4560    3.6330    2.2710 O.3     1  UNL1       -0.4810
      5  H          6.5820    2.6730    2.6050 H       1  UNL1        0.2960
      6  C          5.1820    1.8090    0.7090 C.3     1  UNL1        0.0470
      7  C          5.9690    0.6670    0.2470 C.2     1  UNL1       -0.0470
      8  C          6.3380   -0.3320    1.1180 C.2     1  UNL1        0.0040
      9  C          6.3380    0.5980   -1.0770 C.2     1  UNL1        0.0040
     10  C          7.0880   -1.3940    0.6070 C.2     1  UNL1        0.0000
     11  C          7.0800   -0.4520   -1.5800 C.2     1  UNL1        0.0000
     12  C          7.4540   -1.4570   -0.7140 C.2     1  UNL1        0.0000
@<TRIPOS>BOND
     1    11     9    1
     2    11    12    2
     3     9     7    2
     4    12    10    1
     5     1     6    1
     6     1     2    1
     7     7     6    1
     8     7     8    1
     9     3     2    2
    10    10     8    2
    11     2     4    1
    12     4     5    1
