@<TRIPOS>MOLECULE
/home/cewinharhar/GITHUB/reincatalyze/data/processed/docking_pred/2023_Apr_20-15:07/e5153a6a2872aa0f73be7da8df97a591d10f8a10_ligand_2.pdbqt
 12 12 0 0 0
SMALL
GASTEIGER

@<TRIPOS>ATOM
      1  C          5.0020    1.7810    0.6800 C.3     1  UNL1        0.1270
      2  C          4.4910    1.1150    1.9020 C.2     1  UNL1        0.3030
      3  O          5.1520    0.2160    2.4780 O.2     1  UNL1       -0.2520
      4  O          3.2650    1.4680    2.4440 O.3     1  UNL1       -0.4810
      5  H          2.8220    0.8480    3.1270 H       1  UNL1        0.2960
      6  C          6.4990    1.7940    0.7420 C.3     1  UNL1        0.0470
      7  C          7.1450    1.0500   -0.3370 C.2     1  UNL1       -0.0470
      8  C          8.4740    1.2500   -0.6320 C.2     1  UNL1        0.0040
      9  C          6.4090    0.1400   -1.0600 C.2     1  UNL1        0.0040
     10  C          9.0260    0.5030   -1.6750 C.2     1  UNL1        0.0000
     11  C          6.9560   -0.5970   -2.0910 C.2     1  UNL1        0.0000
     12  C          8.2860   -0.4020   -2.3930 C.2     1  UNL1        0.0000
@<TRIPOS>BOND
     1    12    11    2
     2    12    10    1
     3    11     9    1
     4    10     8    2
     5     9     7    2
     6     8     7    1
     7     7     6    1
     8     1     6    1
     9     1     2    1
    10     2     4    1
    11     2     3    2
    12     4     5    1
