@<TRIPOS>MOLECULE
/home/cewinharhar/GITHUB/reincatalyze/data/processed/docking_pred/2023_Apr_20-15:07/e5153a6a2872aa0f73be7da8df97a591d10f8a10_ligand_2.pdbqt
 12 12 0 0 0
SMALL
GASTEIGER

@<TRIPOS>ATOM
      1  C          8.2330    0.2280   -2.2100 C.3     1  UNL1        0.1270
      2  C          9.3670    0.3500   -1.2640 C.2     1  UNL1        0.3030
      3  O          9.4570   -0.3940   -0.2560 O.2     1  UNL1       -0.2520
      4  O         10.3630    1.2910   -1.4680 O.3     1  UNL1       -0.4810
      5  H         11.3320    0.9790   -1.5770 H       1  UNL1        0.2960
      6  C          7.1370   -0.5390   -1.5340 C.3     1  UNL1        0.0470
      7  C          6.3550    0.2520   -0.5860 C.2     1  UNL1       -0.0470
      8  C          6.1460   -0.1940    0.6980 C.2     1  UNL1        0.0040
      9  C          5.8290    1.4580   -0.9900 C.2     1  UNL1        0.0040
     10  C          5.3900    0.6140    1.5510 C.2     1  UNL1        0.0000
     11  C          5.0820    2.2550   -0.1460 C.2     1  UNL1        0.0000
     12  C          4.8670    1.8140    1.1420 C.2     1  UNL1        0.0000
@<TRIPOS>BOND
     1     1     6    1
     2     1     2    1
     3     5     4    1
     4     6     7    1
     5     4     2    1
     6     2     3    2
     7     9     7    2
     8     9    11    1
     9     7     8    1
    10    11    12    2
    11     8    10    2
    12    12    10    1
