@<TRIPOS>MOLECULE
/home/cewinharhar/GITHUB/reincatalyze/data/processed/docking_pred/2023_Apr_20-15:07/e69dee760b6a4f483691253cffcee702e9155e2b_ligand_2.pdbqt
 12 12 0 0 0
SMALL
GASTEIGER

@<TRIPOS>ATOM
      1  C          8.4600   -0.6460   -2.1140 C.3     1  UNL1        0.1270
      2  C          8.4890   -1.9020   -2.9000 C.2     1  UNL1        0.3030
      3  O          9.5640   -2.5180   -3.1020 O.2     1  UNL1       -0.2520
      4  O          7.3260   -2.4320   -3.4340 O.3     1  UNL1       -0.4810
      5  H          7.3330   -3.3880   -3.8000 H       1  UNL1        0.2960
      6  C          7.0540   -0.1260   -2.1090 C.3     1  UNL1        0.0470
      7  C          6.4910    0.0500   -0.7710 C.2     1  UNL1       -0.0470
      8  C          6.6120   -0.9380    0.1790 C.2     1  UNL1        0.0040
      9  C          5.8350    1.2210   -0.4680 C.2     1  UNL1        0.0040
     10  C          6.0500   -0.7010    1.4350 C.2     1  UNL1        0.0000
     11  C          5.2800    1.4530    0.7750 C.2     1  UNL1        0.0000
     12  C          5.3960    0.4690    1.7320 C.2     1  UNL1        0.0000
@<TRIPOS>BOND
     1     5     4    1
     2     4     2    1
     3     3     2    2
     4     2     1    1
     5     1     6    1
     6     6     7    1
     7     7     9    2
     8     7     8    1
     9     9    11    1
    10     8    10    2
    11    11    12    2
    12    10    12    1
