@<TRIPOS>MOLECULE
/home/cewinharhar/GITHUB/reincatalyze/data/processed/docking_pred/2023_Apr_20-15:07/e69dee760b6a4f483691253cffcee702e9155e2b_ligand_2.pdbqt
 12 12 0 0 0
SMALL
GASTEIGER

@<TRIPOS>ATOM
      1  C          8.2410    0.2140   -2.1650 C.3     1  UNL1        0.1270
      2  C          9.3820    0.3530   -1.2290 C.2     1  UNL1        0.3030
      3  O          9.4830   -0.3790   -0.2140 O.2     1  UNL1       -0.2520
      4  O         10.3700    1.2990   -1.4490 O.3     1  UNL1       -0.4810
      5  H         10.4260    1.7610   -2.3610 H       1  UNL1        0.2960
      6  C          7.1590   -0.5600   -1.4760 C.3     1  UNL1        0.0470
      7  C          6.3660    0.2320   -0.5380 C.2     1  UNL1       -0.0470
      8  C          6.1440   -0.2120    0.7450 C.2     1  UNL1        0.0040
      9  C          5.8410    1.4350   -0.9500 C.2     1  UNL1        0.0040
     10  C          5.3780    0.5970    1.5880 C.2     1  UNL1        0.0000
     11  C          5.0840    2.2330   -0.1160 C.2     1  UNL1        0.0000
     12  C          4.8560    1.7950    1.1700 C.2     1  UNL1        0.0000
@<TRIPOS>BOND
     1     5     4    1
     2     1     6    1
     3     1     2    1
     4     6     7    1
     5     4     2    1
     6     2     3    2
     7     9     7    2
     8     9    11    1
     9     7     8    1
    10    11    12    2
    11     8    10    2
    12    12    10    1
