@<TRIPOS>MOLECULE
/home/cewinharhar/GITHUB/reincatalyze/data/processed/docking_pred/2023_Apr_20-15:07/e69dee760b6a4f483691253cffcee702e9155e2b_ligand_2.pdbqt
 12 12 0 0 0
SMALL
GASTEIGER

@<TRIPOS>ATOM
      1  C          5.4280    2.8930   -0.0010 C.3     1  UNL1        0.1270
      2  C          6.2180    3.8680    0.7880 C.2     1  UNL1        0.3030
      3  O          6.9040    4.7570    0.2250 O.2     1  UNL1       -0.2520
      4  O          6.2200    3.8250    2.1720 O.3     1  UNL1       -0.4810
      5  H          7.0790    3.5630    2.6640 H       1  UNL1        0.2960
      6  C          4.9180    1.8370    0.9310 C.3     1  UNL1        0.0470
      7  C          5.7130    0.6100    0.9310 C.2     1  UNL1       -0.0470
      8  C          5.7720   -0.1910    2.0480 C.2     1  UNL1        0.0040
      9  C          6.4060    0.2580   -0.2050 C.2     1  UNL1        0.0040
     10  C          6.5500   -1.3480    1.9760 C.2     1  UNL1        0.0000
     11  C          7.1750   -0.8860   -0.2740 C.2     1  UNL1        0.0000
     12  C          7.2390   -1.6930    0.8410 C.2     1  UNL1        0.0000
@<TRIPOS>BOND
     1    11     9    1
     2    11    12    2
     3     9     7    2
     4     1     2    1
     5     1     6    1
     6     3     2    2
     7     2     4    1
     8    12    10    1
     9     6     7    1
    10     7     8    1
    11    10     8    2
    12     4     5    1
