@<TRIPOS>MOLECULE
/home/cewinharhar/GITHUB/reincatalyze/data/processed/docking_pred/2023_Apr_20-15:07/e69dee760b6a4f483691253cffcee702e9155e2b_ligand_2.pdbqt
 12 12 0 0 0
SMALL
GASTEIGER

@<TRIPOS>ATOM
      1  C          8.4370   -0.6360   -2.0870 C.3     1  UNL1        0.1270
      2  C          8.3970   -1.8940   -2.8690 C.2     1  UNL1        0.3030
      3  O          7.3060   -2.4140   -3.2090 O.2     1  UNL1       -0.2520
      4  O          9.5670   -2.5330   -3.2480 O.3     1  UNL1       -0.4810
      5  H         10.4380   -1.9970   -3.2940 H       1  UNL1        0.2960
      6  C          7.0650   -0.0350   -2.0900 C.3     1  UNL1        0.0470
      7  C          6.4830    0.1260   -0.7590 C.2     1  UNL1       -0.0470
      8  C          5.8080    1.2760   -0.4210 C.2     1  UNL1        0.0040
      9  C          6.6140   -0.8910    0.1580 C.2     1  UNL1        0.0040
     10  C          5.2770    1.3610    0.8680 C.2     1  UNL1        0.0000
     11  C          6.0890   -0.8050    1.4320 C.2     1  UNL1        0.0000
     12  C          5.4120    0.3440    1.7800 C.2     1  UNL1        0.0000
@<TRIPOS>BOND
     1     5     4    1
     2     4     2    1
     3     3     2    2
     4     2     1    1
     5     6     1    1
     6     6     7    1
     7     7     8    2
     8     7     9    1
     9     8    10    1
    10     9    11    2
    11    10    12    2
    12    11    12    1
