@<TRIPOS>MOLECULE
/home/cewinharhar/GITHUB/reincatalyze/data/processed/docking_pred/2023_Apr_20-15:07/e69dee760b6a4f483691253cffcee702e9155e2b_ligand_2.pdbqt
 12 12 0 0 0
SMALL
GASTEIGER

@<TRIPOS>ATOM
      1  C          5.0730    1.7540    0.7160 C.3     1  UNL1        0.1270
      2  C          4.5110    1.0920    1.9160 C.2     1  UNL1        0.3030
      3  O          5.1340    0.1740    2.5050 O.2     1  UNL1       -0.2520
      4  O          3.2780    1.4700    2.4240 O.3     1  UNL1       -0.4810
      5  H          3.1960    2.3550    2.9320 H       1  UNL1        0.2960
      6  C          6.5670    1.6740    0.7900 C.3     1  UNL1        0.0470
      7  C          7.1790    0.9420   -0.3170 C.2     1  UNL1       -0.0470
      8  C          8.4730    1.2040   -0.7050 C.2     1  UNL1        0.0040
      9  C          6.4460   -0.0210   -0.9710 C.2     1  UNL1        0.0040
     10  C          8.9930    0.4650   -1.7690 C.2     1  UNL1        0.0000
     11  C          6.9620   -0.7510   -2.0240 C.2     1  UNL1        0.0000
     12  C          8.2570   -0.4940   -2.4190 C.2     1  UNL1        0.0000
@<TRIPOS>BOND
     1    12    11    2
     2    12    10    1
     3    11     9    1
     4    10     8    2
     5     9     7    2
     6     8     7    1
     7     7     6    1
     8     1     6    1
     9     1     2    1
    10     2     4    1
    11     2     3    2
    12     4     5    1
