MODEL 1
REMARK VINA RESULT:      -7.4      0.000      0.000
REMARK SMILES O=C(O)CCc1ccccc1
REMARK SMILES IDX 4 1 2 2 1 3 3 4 5 6 6 7 7 8 11 9 8 10 10 11 9 12
REMARK H PARENT 3 5
REMARK Flexibility Score: inf
ROOT
ATOM      1  C   UNL     1       8.460  -0.646  -2.114  1.00  0.00     0.127 C 
ENDROOT
BRANCH   1   2
ATOM      2  C   UNL     1       8.489  -1.902  -2.900  1.00  0.00     0.303 C 
ATOM      3  O   UNL     1       9.564  -2.518  -3.102  1.00  0.00    -0.252 OA
BRANCH   2   4
ATOM      4  O   UNL     1       7.326  -2.432  -3.434  1.00  0.00    -0.481 OA
ATOM      5  H   UNL     1       7.333  -3.388  -3.800  1.00  0.00     0.296 HD
ENDBRANCH   2   4
ENDBRANCH   1   2
BRANCH   1   6
ATOM      6  C   UNL     1       7.054  -0.126  -2.109  1.00  0.00     0.047 C 
BRANCH   6   7
ATOM      7  C   UNL     1       6.491   0.050  -0.771  1.00  0.00    -0.047 A 
ATOM      8  C   UNL     1       6.612  -0.938   0.179  1.00  0.00     0.004 A 
ATOM      9  C   UNL     1       5.835   1.221  -0.468  1.00  0.00     0.004 A 
ATOM     10  C   UNL     1       6.050  -0.701   1.435  1.00  0.00     0.000 A 
ATOM     11  C   UNL     1       5.280   1.453   0.775  1.00  0.00     0.000 A 
ATOM     12  C   UNL     1       5.396   0.469   1.732  1.00  0.00     0.000 A 
ENDBRANCH   6   7
ENDBRANCH   1   6
TORSDOF 4
ENDMDL
MODEL 2
REMARK VINA RESULT:      -7.3      0.118      1.731
REMARK SMILES O=C(O)CCc1ccccc1
REMARK SMILES IDX 4 1 2 2 1 3 3 4 5 6 6 7 7 8 11 9 8 10 10 11 9 12
REMARK H PARENT 3 5
REMARK Flexibility Score: inf
ROOT
ATOM      1  C   UNL     1       8.437  -0.636  -2.087  1.00  0.00     0.127 C 
ENDROOT
BRANCH   1   2
ATOM      2  C   UNL     1       8.397  -1.894  -2.869  1.00  0.00     0.303 C 
ATOM      3  O   UNL     1       7.306  -2.414  -3.209  1.00  0.00    -0.252 OA
BRANCH   2   4
ATOM      4  O   UNL     1       9.567  -2.533  -3.248  1.00  0.00    -0.481 OA
ATOM      5  H   UNL     1      10.438  -1.997  -3.294  1.00  0.00     0.296 HD
ENDBRANCH   2   4
ENDBRANCH   1   2
BRANCH   1   6
ATOM      6  C   UNL     1       7.065  -0.035  -2.090  1.00  0.00     0.047 C 
BRANCH   6   7
ATOM      7  C   UNL     1       6.483   0.126  -0.759  1.00  0.00    -0.047 A 
ATOM      8  C   UNL     1       5.808   1.276  -0.421  1.00  0.00     0.004 A 
ATOM      9  C   UNL     1       6.614  -0.891   0.158  1.00  0.00     0.004 A 
ATOM     10  C   UNL     1       5.277   1.361   0.868  1.00  0.00     0.000 A 
ATOM     11  C   UNL     1       6.089  -0.805   1.432  1.00  0.00     0.000 A 
ATOM     12  C   UNL     1       5.412   0.344   1.780  1.00  0.00     0.000 A 
ENDBRANCH   6   7
ENDBRANCH   1   6
TORSDOF 4
ENDMDL
MODEL 3
REMARK VINA RESULT:      -6.8      3.369      5.081
REMARK SMILES O=C(O)CCc1ccccc1
REMARK SMILES IDX 4 1 2 2 1 3 3 4 5 6 6 7 7 8 11 9 8 10 10 11 9 12
REMARK H PARENT 3 5
REMARK Flexibility Score: inf
ROOT
ATOM      1  C   UNL     1       5.073   1.754   0.716  1.00  0.00     0.127 C 
ENDROOT
BRANCH   1   2
ATOM      2  C   UNL     1       4.511   1.092   1.916  1.00  0.00     0.303 C 
ATOM      3  O   UNL     1       5.134   0.174   2.505  1.00  0.00    -0.252 OA
BRANCH   2   4
ATOM      4  O   UNL     1       3.278   1.470   2.424  1.00  0.00    -0.481 OA
ATOM      5  H   UNL     1       3.196   2.355   2.932  1.00  0.00     0.296 HD
ENDBRANCH   2   4
ENDBRANCH   1   2
BRANCH   1   6
ATOM      6  C   UNL     1       6.567   1.674   0.790  1.00  0.00     0.047 C 
BRANCH   6   7
ATOM      7  C   UNL     1       7.179   0.942  -0.317  1.00  0.00    -0.047 A 
ATOM      8  C   UNL     1       8.473   1.204  -0.705  1.00  0.00     0.004 A 
ATOM      9  C   UNL     1       6.446  -0.021  -0.971  1.00  0.00     0.004 A 
ATOM     10  C   UNL     1       8.993   0.465  -1.769  1.00  0.00     0.000 A 
ATOM     11  C   UNL     1       6.962  -0.751  -2.024  1.00  0.00     0.000 A 
ATOM     12  C   UNL     1       8.257  -0.494  -2.419  1.00  0.00     0.000 A 
ENDBRANCH   6   7
ENDBRANCH   1   6
TORSDOF 4
ENDMDL
MODEL 4
REMARK VINA RESULT:      -6.7      3.801      4.942
REMARK SMILES O=C(O)CCc1ccccc1
REMARK SMILES IDX 4 1 2 2 1 3 3 4 5 6 6 7 7 8 11 9 8 10 10 11 9 12
REMARK H PARENT 3 5
REMARK Flexibility Score: inf
ROOT
ATOM      1  C   UNL     1       5.428   2.893  -0.001  1.00  0.00     0.127 C 
ENDROOT
BRANCH   1   2
ATOM      2  C   UNL     1       6.218   3.868   0.788  1.00  0.00     0.303 C 
ATOM      3  O   UNL     1       6.904   4.757   0.225  1.00  0.00    -0.252 OA
BRANCH   2   4
ATOM      4  O   UNL     1       6.220   3.825   2.172  1.00  0.00    -0.481 OA
ATOM      5  H   UNL     1       7.079   3.563   2.664  1.00  0.00     0.296 HD
ENDBRANCH   2   4
ENDBRANCH   1   2
BRANCH   1   6
ATOM      6  C   UNL     1       4.918   1.837   0.931  1.00  0.00     0.047 C 
BRANCH   6   7
ATOM      7  C   UNL     1       5.713   0.610   0.931  1.00  0.00    -0.047 A 
ATOM      8  C   UNL     1       5.772  -0.191   2.048  1.00  0.00     0.004 A 
ATOM      9  C   UNL     1       6.406   0.258  -0.205  1.00  0.00     0.004 A 
ATOM     10  C   UNL     1       6.550  -1.348   1.976  1.00  0.00     0.000 A 
ATOM     11  C   UNL     1       7.175  -0.886  -0.274  1.00  0.00     0.000 A 
ATOM     12  C   UNL     1       7.239  -1.693   0.841  1.00  0.00     0.000 A 
ENDBRANCH   6   7
ENDBRANCH   1   6
TORSDOF 4
ENDMDL
MODEL 5
REMARK VINA RESULT:      -6.7      1.938      2.287
REMARK SMILES O=C(O)CCc1ccccc1
REMARK SMILES IDX 4 1 2 2 1 3 3 4 5 6 6 7 7 8 11 9 8 10 10 11 9 12
REMARK H PARENT 3 5
REMARK Flexibility Score: inf
ROOT
ATOM      1  C   UNL     1       8.241   0.214  -2.165  1.00  0.00     0.127 C 
ENDROOT
BRANCH   1   2
ATOM      2  C   UNL     1       9.382   0.353  -1.229  1.00  0.00     0.303 C 
ATOM      3  O   UNL     1       9.483  -0.379  -0.214  1.00  0.00    -0.252 OA
BRANCH   2   4
ATOM      4  O   UNL     1      10.370   1.299  -1.449  1.00  0.00    -0.481 OA
ATOM      5  H   UNL     1      10.426   1.761  -2.361  1.00  0.00     0.296 HD
ENDBRANCH   2   4
ENDBRANCH   1   2
BRANCH   1   6
ATOM      6  C   UNL     1       7.159  -0.560  -1.476  1.00  0.00     0.047 C 
BRANCH   6   7
ATOM      7  C   UNL     1       6.366   0.232  -0.538  1.00  0.00    -0.047 A 
ATOM      8  C   UNL     1       6.144  -0.212   0.745  1.00  0.00     0.004 A 
ATOM      9  C   UNL     1       5.841   1.435  -0.950  1.00  0.00     0.004 A 
ATOM     10  C   UNL     1       5.378   0.597   1.588  1.00  0.00     0.000 A 
ATOM     11  C   UNL     1       5.084   2.233  -0.116  1.00  0.00     0.000 A 
ATOM     12  C   UNL     1       4.856   1.795   1.170  1.00  0.00     0.000 A 
ENDBRANCH   6   7
ENDBRANCH   1   6
TORSDOF 4
ENDMDL
