@<TRIPOS>MOLECULE
/home/cewinharhar/GITHUB/reincatalyze/data/processed/docking_pred/2023_Apr_20-15:07/e8fc6854485d68a8d0bf78bf523603f1a9cbeca9_ligand_2.pdbqt
 12 12 0 0 0
SMALL
GASTEIGER

@<TRIPOS>ATOM
      1  C          8.2450    0.2620   -2.1480 C.3     1  UNL1        0.1270
      2  C          9.3850    0.3860   -1.2090 C.2     1  UNL1        0.3030
      3  O          9.4960   -0.3740   -0.2160 O.2     1  UNL1       -0.2520
      4  O         10.3640    1.3480   -1.4040 O.3     1  UNL1       -0.4810
      5  H         11.2260    1.0930   -1.8940 H       1  UNL1        0.2960
      6  C          7.1600   -0.5190   -1.4700 C.3     1  UNL1        0.0470
      7  C          6.3530    0.2690   -0.5390 C.2     1  UNL1       -0.0470
      8  C          5.8130    1.4740   -0.9230 C.2     1  UNL1        0.0040
      9  C          6.1350   -0.2110    0.7320 C.2     1  UNL1        0.0040
     10  C          5.0520    2.1720    0.0180 C.2     1  UNL1        0.0000
     11  C          5.3830    0.4810    1.6610 C.2     1  UNL1        0.0000
     12  C          4.8390    1.6900    1.2850 C.2     1  UNL1        0.0000
@<TRIPOS>BOND
     1     1     6    1
     2     1     2    1
     3     5     4    1
     4     6     7    1
     5     4     2    1
     6     2     3    2
     7     8     7    2
     8     8    10    1
     9     7     9    1
    10    10    12    2
    11     9    11    2
    12    12    11    1
