@<TRIPOS>MOLECULE
/home/cewinharhar/GITHUB/reincatalyze/data/processed/docking_pred/2023_Apr_20-15:07/e8fc6854485d68a8d0bf78bf523603f1a9cbeca9_ligand_2.pdbqt
 12 12 0 0 0
SMALL
GASTEIGER

@<TRIPOS>ATOM
      1  C          8.4350   -0.6680   -2.0320 C.3     1  UNL1        0.1270
      2  C          8.3840   -1.8960   -2.8600 C.2     1  UNL1        0.3030
      3  O          7.2870   -2.3940   -3.2180 O.2     1  UNL1       -0.2520
      4  O          9.5480   -2.5310   -3.2630 O.3     1  UNL1       -0.4810
      5  H          9.4990   -3.4910   -3.6150 H       1  UNL1        0.2960
      6  C          7.0820   -0.0260   -2.0580 C.3     1  UNL1        0.0470
      7  C          6.4790    0.1440   -0.7370 C.2     1  UNL1       -0.0470
      8  C          5.7930    1.2930   -0.4190 C.2     1  UNL1        0.0040
      9  C          6.6030   -0.8630    0.1920 C.2     1  UNL1        0.0040
     10  C          5.2430    1.3870    0.8610 C.2     1  UNL1        0.0000
     11  C          6.0580   -0.7690    1.4570 C.2     1  UNL1        0.0000
     12  C          5.3700    0.3790    1.7830 C.2     1  UNL1        0.0000
@<TRIPOS>BOND
     1     5     4    1
     2     4     2    1
     3     3     2    2
     4     2     1    1
     5     6     1    1
     6     6     7    1
     7     7     8    2
     8     7     9    1
     9     8    10    1
    10     9    11    2
    11    10    12    2
    12    11    12    1
