@<TRIPOS>MOLECULE
/home/cewinharhar/GITHUB/reincatalyze/data/processed/docking_pred/2023_Apr_20-15:07/e8fc6854485d68a8d0bf78bf523603f1a9cbeca9_ligand_2.pdbqt
 12 12 0 0 0
SMALL
GASTEIGER

@<TRIPOS>ATOM
      1  C          5.0480    1.6770    0.6770 C.3     1  UNL1        0.1270
      2  C          4.6120    1.0110    1.9270 C.2     1  UNL1        0.3030
      3  O          5.3410    0.1660    2.5020 O.2     1  UNL1       -0.2520
      4  O          3.3830    1.3040    2.4960 O.3     1  UNL1       -0.4810
      5  H          2.5970    0.6660    2.3450 H       1  UNL1        0.2960
      6  C          6.5430    1.7670    0.6880 C.3     1  UNL1        0.0470
      7  C          7.1920    1.0100   -0.3810 C.2     1  UNL1       -0.0470
      8  C          8.5280    1.1880   -0.6590 C.2     1  UNL1        0.0040
      9  C          6.4520    0.1090   -1.1110 C.2     1  UNL1        0.0040
     10  C          9.0820    0.4310   -1.6930 C.2     1  UNL1        0.0000
     11  C          7.0010   -0.6390   -2.1330 C.2     1  UNL1        0.0000
     12  C          8.3380   -0.4660   -2.4180 C.2     1  UNL1        0.0000
@<TRIPOS>BOND
     1    12    11    2
     2    12    10    1
     3    11     9    1
     4    10     8    2
     5     9     7    2
     6     8     7    1
     7     7     6    1
     8     1     6    1
     9     1     2    1
    10     2     4    1
    11     2     3    2
    12     5     4    1
