MODEL 1
REMARK VINA RESULT:      -7.3      0.000      0.000
REMARK SMILES O=C(O)CCc1ccccc1
REMARK SMILES IDX 4 1 2 2 1 3 3 4 5 6 6 7 7 8 11 9 8 10 10 11 9 12
REMARK H PARENT 3 5
REMARK Flexibility Score: inf
ROOT
ATOM      1  C   UNL     1       8.435  -0.668  -2.032  1.00  0.00     0.127 C 
ENDROOT
BRANCH   1   2
ATOM      2  C   UNL     1       8.384  -1.896  -2.860  1.00  0.00     0.303 C 
ATOM      3  O   UNL     1       7.287  -2.394  -3.218  1.00  0.00    -0.252 OA
BRANCH   2   4
ATOM      4  O   UNL     1       9.548  -2.531  -3.263  1.00  0.00    -0.481 OA
ATOM      5  H   UNL     1       9.499  -3.491  -3.615  1.00  0.00     0.296 HD
ENDBRANCH   2   4
ENDBRANCH   1   2
BRANCH   1   6
ATOM      6  C   UNL     1       7.082  -0.026  -2.058  1.00  0.00     0.047 C 
BRANCH   6   7
ATOM      7  C   UNL     1       6.479   0.144  -0.737  1.00  0.00    -0.047 A 
ATOM      8  C   UNL     1       5.793   1.293  -0.419  1.00  0.00     0.004 A 
ATOM      9  C   UNL     1       6.603  -0.863   0.192  1.00  0.00     0.004 A 
ATOM     10  C   UNL     1       5.243   1.387   0.861  1.00  0.00     0.000 A 
ATOM     11  C   UNL     1       6.058  -0.769   1.457  1.00  0.00     0.000 A 
ATOM     12  C   UNL     1       5.370   0.379   1.783  1.00  0.00     0.000 A 
ENDBRANCH   6   7
ENDBRANCH   1   6
TORSDOF 4
ENDMDL
MODEL 2
REMARK VINA RESULT:      -7.2      0.091      1.439
REMARK SMILES O=C(O)CCc1ccccc1
REMARK SMILES IDX 4 1 2 2 1 3 3 4 5 6 6 7 7 8 11 9 8 10 10 11 9 12
REMARK H PARENT 3 5
REMARK Flexibility Score: inf
ROOT
ATOM      1  C   UNL     1       8.388  -0.596  -2.162  1.00  0.00     0.127 C 
ENDROOT
BRANCH   1   2
ATOM      2  C   UNL     1       8.372  -1.873  -2.913  1.00  0.00     0.303 C 
ATOM      3  O   UNL     1       7.291  -2.413  -3.256  1.00  0.00    -0.252 OA
BRANCH   2   4
ATOM      4  O   UNL     1       9.554  -2.509  -3.257  1.00  0.00    -0.481 OA
ATOM      5  H   UNL     1       9.896  -3.280  -2.676  1.00  0.00     0.296 HD
ENDBRANCH   2   4
ENDBRANCH   1   2
BRANCH   1   6
ATOM      6  C   UNL     1       6.986  -0.071  -2.097  1.00  0.00     0.047 C 
BRANCH   6   7
ATOM      7  C   UNL     1       6.458   0.049  -0.739  1.00  0.00    -0.047 A 
ATOM      8  C   UNL     1       6.590  -0.983   0.160  1.00  0.00     0.004 A 
ATOM      9  C   UNL     1       5.826   1.213  -0.365  1.00  0.00     0.004 A 
ATOM     10  C   UNL     1       6.063  -0.799   1.440  1.00  0.00     0.000 A 
ATOM     11  C   UNL     1       5.306   1.393   0.901  1.00  0.00     0.000 A 
ATOM     12  C   UNL     1       5.433   0.363   1.808  1.00  0.00     0.000 A 
ENDBRANCH   6   7
ENDBRANCH   1   6
TORSDOF 4
ENDMDL
MODEL 3
REMARK VINA RESULT:      -6.7      3.258      5.087
REMARK SMILES O=C(O)CCc1ccccc1
REMARK SMILES IDX 4 1 2 2 1 3 3 4 5 6 6 7 7 8 11 9 8 10 10 11 9 12
REMARK H PARENT 3 5
REMARK Flexibility Score: inf
ROOT
ATOM      1  C   UNL     1       5.048   1.677   0.677  1.00  0.00     0.127 C 
ENDROOT
BRANCH   1   2
ATOM      2  C   UNL     1       4.612   1.011   1.927  1.00  0.00     0.303 C 
ATOM      3  O   UNL     1       5.341   0.166   2.502  1.00  0.00    -0.252 OA
BRANCH   2   4
ATOM      4  O   UNL     1       3.383   1.304   2.496  1.00  0.00    -0.481 OA
ATOM      5  H   UNL     1       2.597   0.666   2.345  1.00  0.00     0.296 HD
ENDBRANCH   2   4
ENDBRANCH   1   2
BRANCH   1   6
ATOM      6  C   UNL     1       6.543   1.767   0.688  1.00  0.00     0.047 C 
BRANCH   6   7
ATOM      7  C   UNL     1       7.192   1.010  -0.381  1.00  0.00    -0.047 A 
ATOM      8  C   UNL     1       8.528   1.188  -0.659  1.00  0.00     0.004 A 
ATOM      9  C   UNL     1       6.452   0.109  -1.111  1.00  0.00     0.004 A 
ATOM     10  C   UNL     1       9.082   0.431  -1.693  1.00  0.00     0.000 A 
ATOM     11  C   UNL     1       7.001  -0.639  -2.133  1.00  0.00     0.000 A 
ATOM     12  C   UNL     1       8.338  -0.466  -2.418  1.00  0.00     0.000 A 
ENDBRANCH   6   7
ENDBRANCH   1   6
TORSDOF 4
ENDMDL
MODEL 4
REMARK VINA RESULT:      -6.6      1.935      2.227
REMARK SMILES O=C(O)CCc1ccccc1
REMARK SMILES IDX 4 1 2 2 1 3 3 4 5 6 6 7 7 8 11 9 8 10 10 11 9 12
REMARK H PARENT 3 5
REMARK Flexibility Score: inf
ROOT
ATOM      1  C   UNL     1       8.245   0.262  -2.148  1.00  0.00     0.127 C 
ENDROOT
BRANCH   1   2
ATOM      2  C   UNL     1       9.385   0.386  -1.209  1.00  0.00     0.303 C 
ATOM      3  O   UNL     1       9.496  -0.374  -0.216  1.00  0.00    -0.252 OA
BRANCH   2   4
ATOM      4  O   UNL     1      10.364   1.348  -1.404  1.00  0.00    -0.481 OA
ATOM      5  H   UNL     1      11.226   1.093  -1.894  1.00  0.00     0.296 HD
ENDBRANCH   2   4
ENDBRANCH   1   2
BRANCH   1   6
ATOM      6  C   UNL     1       7.160  -0.519  -1.470  1.00  0.00     0.047 C 
BRANCH   6   7
ATOM      7  C   UNL     1       6.353   0.269  -0.539  1.00  0.00    -0.047 A 
ATOM      8  C   UNL     1       5.813   1.474  -0.923  1.00  0.00     0.004 A 
ATOM      9  C   UNL     1       6.135  -0.211   0.732  1.00  0.00     0.004 A 
ATOM     10  C   UNL     1       5.052   2.172   0.018  1.00  0.00     0.000 A 
ATOM     11  C   UNL     1       5.383   0.481   1.661  1.00  0.00     0.000 A 
ATOM     12  C   UNL     1       4.839   1.690   1.285  1.00  0.00     0.000 A 
ENDBRANCH   6   7
ENDBRANCH   1   6
TORSDOF 4
ENDMDL
MODEL 5
REMARK VINA RESULT:      -6.6      2.062      2.600
REMARK SMILES O=C(O)CCc1ccccc1
REMARK SMILES IDX 4 1 2 2 1 3 3 4 5 6 6 7 7 8 11 9 8 10 10 11 9 12
REMARK H PARENT 3 5
REMARK Flexibility Score: inf
ROOT
ATOM      1  C   UNL     1       8.011  -2.246   0.842  1.00  0.00     0.127 C 
ENDROOT
BRANCH   1   2
ATOM      2  C   UNL     1       8.798  -3.391   0.326  1.00  0.00     0.303 C 
ATOM      3  O   UNL     1       9.670  -3.953   1.033  1.00  0.00    -0.252 OA
BRANCH   2   4
ATOM      4  O   UNL     1       8.591  -3.874  -0.957  1.00  0.00    -0.481 OA
ATOM      5  H   UNL     1       8.638  -4.883  -1.126  1.00  0.00     0.296 HD
ENDBRANCH   2   4
ENDBRANCH   1   2
BRANCH   1   6
ATOM      6  C   UNL     1       7.425  -1.513  -0.326  1.00  0.00     0.047 C 
BRANCH   6   7
ATOM      7  C   UNL     1       6.586  -0.376   0.046  1.00  0.00    -0.047 A 
ATOM      8  C   UNL     1       6.341   0.640  -0.848  1.00  0.00     0.004 A 
ATOM      9  C   UNL     1       6.037  -0.330   1.307  1.00  0.00     0.004 A 
ATOM     10  C   UNL     1       5.529   1.695  -0.425  1.00  0.00     0.000 A 
ATOM     11  C   UNL     1       5.236   0.714   1.724  1.00  0.00     0.000 A 
ATOM     12  C   UNL     1       4.986   1.736   0.834  1.00  0.00     0.000 A 
ENDBRANCH   6   7
ENDBRANCH   1   6
TORSDOF 4
ENDMDL
