@<TRIPOS>MOLECULE
/home/cewinharhar/GITHUB/reincatalyze/data/processed/docking_pred/2023_Apr_20-15:07/e8fc6854485d68a8d0bf78bf523603f1a9cbeca9_ligand_2.pdbqt
 12 12 0 0 0
SMALL
GASTEIGER

@<TRIPOS>ATOM
      1  C          8.0110   -2.2460    0.8420 C.3     1  UNL1        0.1270
      2  C          8.7980   -3.3910    0.3260 C.2     1  UNL1        0.3030
      3  O          9.6700   -3.9530    1.0330 O.2     1  UNL1       -0.2520
      4  O          8.5910   -3.8740   -0.9570 O.3     1  UNL1       -0.4810
      5  H          8.6380   -4.8830   -1.1260 H       1  UNL1        0.2960
      6  C          7.4250   -1.5130   -0.3260 C.3     1  UNL1        0.0470
      7  C          6.5860   -0.3760    0.0460 C.2     1  UNL1       -0.0470
      8  C          6.3410    0.6400   -0.8480 C.2     1  UNL1        0.0040
      9  C          6.0370   -0.3300    1.3070 C.2     1  UNL1        0.0040
     10  C          5.5290    1.6950   -0.4250 C.2     1  UNL1        0.0000
     11  C          5.2360    0.7140    1.7240 C.2     1  UNL1        0.0000
     12  C          4.9860    1.7360    0.8340 C.2     1  UNL1        0.0000
@<TRIPOS>BOND
     1     5     4    1
     2     4     2    1
     3     8    10    1
     4     8     7    2
     5    10    12    2
     6     6     7    1
     7     6     1    1
     8     7     9    1
     9     2     1    1
    10     2     3    2
    11    12    11    1
    12     9    11    2
