@<TRIPOS>MOLECULE
/home/cewinharhar/GITHUB/reincatalyze/data/processed/docking_pred/2023_Apr_20-15:07/e8fc6854485d68a8d0bf78bf523603f1a9cbeca9_ligand_2.pdbqt
 12 12 0 0 0
SMALL
GASTEIGER

@<TRIPOS>ATOM
      1  C          8.3880   -0.5960   -2.1620 C.3     1  UNL1        0.1270
      2  C          8.3720   -1.8730   -2.9130 C.2     1  UNL1        0.3030
      3  O          7.2910   -2.4130   -3.2560 O.2     1  UNL1       -0.2520
      4  O          9.5540   -2.5090   -3.2570 O.3     1  UNL1       -0.4810
      5  H          9.8960   -3.2800   -2.6760 H       1  UNL1        0.2960
      6  C          6.9860   -0.0710   -2.0970 C.3     1  UNL1        0.0470
      7  C          6.4580    0.0490   -0.7390 C.2     1  UNL1       -0.0470
      8  C          6.5900   -0.9830    0.1600 C.2     1  UNL1        0.0040
      9  C          5.8260    1.2130   -0.3650 C.2     1  UNL1        0.0040
     10  C          6.0630   -0.7990    1.4400 C.2     1  UNL1        0.0000
     11  C          5.3060    1.3930    0.9010 C.2     1  UNL1        0.0000
     12  C          5.4330    0.3630    1.8080 C.2     1  UNL1        0.0000
@<TRIPOS>BOND
     1     4     2    1
     2     4     5    1
     3     3     2    2
     4     2     1    1
     5     1     6    1
     6     6     7    1
     7     7     9    2
     8     7     8    1
     9     9    11    1
    10     8    10    2
    11    11    12    2
    12    10    12    1
