MODEL 1
REMARK VINA RESULT:      -7.3      0.000      0.000
REMARK SMILES O=C(O)CCc1ccccc1
REMARK SMILES IDX 4 1 2 2 1 3 3 4 5 6 6 7 7 8 11 9 8 10 10 11 9 12
REMARK H PARENT 3 5
REMARK Flexibility Score: inf
ROOT
ATOM      1  C   UNL     1       8.433  -0.581  -2.201  1.00  0.00     0.127 C 
ENDROOT
BRANCH   1   2
ATOM      2  C   UNL     1       8.481  -1.880  -2.912  1.00  0.00     0.303 C 
ATOM      3  O   UNL     1       9.566  -2.490  -3.079  1.00  0.00    -0.252 OA
BRANCH   2   4
ATOM      4  O   UNL     1       7.327  -2.457  -3.416  1.00  0.00    -0.481 OA
ATOM      5  H   UNL     1       7.214  -2.550  -4.429  1.00  0.00     0.296 HD
ENDBRANCH   2   4
ENDBRANCH   1   2
BRANCH   1   6
ATOM      6  C   UNL     1       7.006  -0.125  -2.150  1.00  0.00     0.047 C 
BRANCH   6   7
ATOM      7  C   UNL     1       6.484   0.044  -0.795  1.00  0.00    -0.047 A 
ATOM      8  C   UNL     1       5.870   1.216  -0.419  1.00  0.00     0.004 A 
ATOM      9  C   UNL     1       6.610  -0.988   0.106  1.00  0.00     0.004 A 
ATOM     10  C   UNL     1       5.394   1.307   0.891  1.00  0.00     0.000 A 
ATOM     11  C   UNL     1       6.139  -0.896   1.401  1.00  0.00     0.000 A 
ATOM     12  C   UNL     1       5.523   0.275   1.786  1.00  0.00     0.000 A 
ENDBRANCH   6   7
ENDBRANCH   1   6
TORSDOF 4
ENDMDL
MODEL 2
REMARK VINA RESULT:      -7.3      0.149      1.734
REMARK SMILES O=C(O)CCc1ccccc1
REMARK SMILES IDX 4 1 2 2 1 3 3 4 5 6 6 7 7 8 11 9 8 10 10 11 9 12
REMARK H PARENT 3 5
REMARK Flexibility Score: inf
ROOT
ATOM      1  C   UNL     1       8.422  -0.634  -2.118  1.00  0.00     0.127 C 
ENDROOT
BRANCH   1   2
ATOM      2  C   UNL     1       8.388  -1.901  -2.886  1.00  0.00     0.303 C 
ATOM      3  O   UNL     1       7.301  -2.419  -3.240  1.00  0.00    -0.252 OA
BRANCH   2   4
ATOM      4  O   UNL     1       9.561  -2.551  -3.234  1.00  0.00    -0.481 OA
ATOM      5  H   UNL     1       9.836  -2.595  -4.220  1.00  0.00     0.296 HD
ENDBRANCH   2   4
ENDBRANCH   1   2
BRANCH   1   6
ATOM      6  C   UNL     1       7.038  -0.059  -2.098  1.00  0.00     0.047 C 
BRANCH   6   7
ATOM      7  C   UNL     1       6.474   0.086  -0.757  1.00  0.00    -0.047 A 
ATOM      8  C   UNL     1       6.599  -0.921   0.171  1.00  0.00     0.004 A 
ATOM      9  C   UNL     1       5.815   1.248  -0.429  1.00  0.00     0.004 A 
ATOM     10  C   UNL     1       6.036  -0.713   1.433  1.00  0.00     0.000 A 
ATOM     11  C   UNL     1       5.259   1.452   0.819  1.00  0.00     0.000 A 
ATOM     12  C   UNL     1       5.379   0.447   1.754  1.00  0.00     0.000 A 
ENDBRANCH   6   7
ENDBRANCH   1   6
TORSDOF 4
ENDMDL
MODEL 3
REMARK VINA RESULT:      -7.3      0.653      1.626
REMARK SMILES O=C(O)CCc1ccccc1
REMARK SMILES IDX 4 1 2 2 1 3 3 4 5 6 6 7 7 8 11 9 8 10 10 11 9 12
REMARK H PARENT 3 5
REMARK Flexibility Score: inf
ROOT
ATOM      1  C   UNL     1       8.266  -0.918  -1.846  1.00  0.00     0.127 C 
ENDROOT
BRANCH   1   2
ATOM      2  C   UNL     1       8.401  -2.014  -2.834  1.00  0.00     0.303 C 
ATOM      3  O   UNL     1       9.523  -2.510  -3.106  1.00  0.00    -0.252 OA
BRANCH   2   4
ATOM      4  O   UNL     1       7.290  -2.522  -3.488  1.00  0.00    -0.481 OA
ATOM      5  H   UNL     1       6.371  -2.446  -3.045  1.00  0.00     0.296 HD
ENDBRANCH   2   4
ENDBRANCH   1   2
BRANCH   1   6
ATOM      6  C   UNL     1       7.403  -1.403  -0.721  1.00  0.00     0.047 C 
BRANCH   6   7
ATOM      7  C   UNL     1       6.576  -0.361  -0.114  1.00  0.00    -0.047 A 
ATOM      8  C   UNL     1       6.122  -0.488   1.178  1.00  0.00     0.004 A 
ATOM      9  C   UNL     1       6.256   0.756  -0.851  1.00  0.00     0.004 A 
ATOM     10  C   UNL     1       5.338   0.547   1.694  1.00  0.00     0.000 A 
ATOM     11  C   UNL     1       5.480   1.777  -0.340  1.00  0.00     0.000 A 
ATOM     12  C   UNL     1       5.021   1.658   0.954  1.00  0.00     0.000 A 
ENDBRANCH   6   7
ENDBRANCH   1   6
TORSDOF 4
ENDMDL
MODEL 4
REMARK VINA RESULT:      -6.7      3.380      5.070
REMARK SMILES O=C(O)CCc1ccccc1
REMARK SMILES IDX 4 1 2 2 1 3 3 4 5 6 6 7 7 8 11 9 8 10 10 11 9 12
REMARK H PARENT 3 5
REMARK Flexibility Score: inf
ROOT
ATOM      1  C   UNL     1       4.992   1.849   0.684  1.00  0.00     0.127 C 
ENDROOT
BRANCH   1   2
ATOM      2  C   UNL     1       4.500   1.148   1.893  1.00  0.00     0.303 C 
ATOM      3  O   UNL     1       5.179   0.247   2.445  1.00  0.00    -0.252 OA
BRANCH   2   4
ATOM      4  O   UNL     1       3.272   1.469   2.449  1.00  0.00    -0.481 OA
ATOM      5  H   UNL     1       2.570   0.733   2.572  1.00  0.00     0.296 HD
ENDBRANCH   2   4
ENDBRANCH   1   2
BRANCH   1   6
ATOM      6  C   UNL     1       6.490   1.848   0.717  1.00  0.00     0.047 C 
BRANCH   6   7
ATOM      7  C   UNL     1       7.108   1.074  -0.358  1.00  0.00    -0.047 A 
ATOM      8  C   UNL     1       6.360   0.205  -1.118  1.00  0.00     0.004 A 
ATOM      9  C   UNL     1       8.453   1.223  -0.605  1.00  0.00     0.004 A 
ATOM     10  C   UNL     1       7.016  -0.501  -2.129  1.00  0.00     0.000 A 
ATOM     11  C   UNL     1       9.100   0.523  -1.604  1.00  0.00     0.000 A 
ATOM     12  C   UNL     1       8.358  -0.349  -2.371  1.00  0.00     0.000 A 
ENDBRANCH   6   7
ENDBRANCH   1   6
TORSDOF 4
ENDMDL
MODEL 5
REMARK VINA RESULT:      -6.6      3.800      5.000
REMARK SMILES O=C(O)CCc1ccccc1
REMARK SMILES IDX 4 1 2 2 1 3 3 4 5 6 6 7 7 8 11 9 8 10 10 11 9 12
REMARK H PARENT 3 5
REMARK Flexibility Score: inf
ROOT
ATOM      1  C   UNL     1       5.376   2.864   0.046  1.00  0.00     0.127 C 
ENDROOT
BRANCH   1   2
ATOM      2  C   UNL     1       6.175   3.821   0.847  1.00  0.00     0.303 C 
ATOM      3  O   UNL     1       6.150   3.798   2.103  1.00  0.00    -0.252 OA
BRANCH   2   4
ATOM      4  O   UNL     1       6.973   4.771   0.231  1.00  0.00    -0.481 OA
ATOM      5  H   UNL     1       7.178   5.647   0.720  1.00  0.00     0.296 HD
ENDBRANCH   2   4
ENDBRANCH   1   2
BRANCH   1   6
ATOM      6  C   UNL     1       4.882   1.783   0.958  1.00  0.00     0.047 C 
BRANCH   6   7
ATOM      7  C   UNL     1       5.699   0.571   0.940  1.00  0.00    -0.047 A 
ATOM      8  C   UNL     1       5.819  -0.212   2.065  1.00  0.00     0.004 A 
ATOM      9  C   UNL     1       6.349   0.216  -0.219  1.00  0.00     0.004 A 
ATOM     10  C   UNL     1       6.615  -1.356   1.976  1.00  0.00     0.000 A 
ATOM     11  C   UNL     1       7.135  -0.915  -0.305  1.00  0.00     0.000 A 
ATOM     12  C   UNL     1       7.262  -1.705   0.817  1.00  0.00     0.000 A 
ENDBRANCH   6   7
ENDBRANCH   1   6
TORSDOF 4
ENDMDL
