@<TRIPOS>MOLECULE
/home/cewinharhar/GITHUB/reincatalyze/data/processed/docking_pred/2023_Apr_20-15:07/e9ca5ba4bc0452251e134010a3e53239cf47eed8_ligand_2.pdbqt
 12 12 0 0 0
SMALL
GASTEIGER

@<TRIPOS>ATOM
      1  C          8.2660   -0.9180   -1.8460 C.3     1  UNL1        0.1270
      2  C          8.4010   -2.0140   -2.8340 C.2     1  UNL1        0.3030
      3  O          9.5230   -2.5100   -3.1060 O.2     1  UNL1       -0.2520
      4  O          7.2900   -2.5220   -3.4880 O.3     1  UNL1       -0.4810
      5  H          6.3710   -2.4460   -3.0450 H       1  UNL1        0.2960
      6  C          7.4030   -1.4030   -0.7210 C.3     1  UNL1        0.0470
      7  C          6.5760   -0.3610   -0.1140 C.2     1  UNL1       -0.0470
      8  C          6.1220   -0.4880    1.1780 C.2     1  UNL1        0.0040
      9  C          6.2560    0.7560   -0.8510 C.2     1  UNL1        0.0040
     10  C          5.3380    0.5470    1.6940 C.2     1  UNL1        0.0000
     11  C          5.4800    1.7770   -0.3400 C.2     1  UNL1        0.0000
     12  C          5.0210    1.6580    0.9540 C.2     1  UNL1        0.0000
@<TRIPOS>BOND
     1     4     5    1
     2     4     2    1
     3     3     2    2
     4     2     1    1
     5     1     6    1
     6     9    11    1
     7     9     7    2
     8     6     7    1
     9    11    12    2
    10     7     8    1
    11    12    10    1
    12     8    10    2
