@<TRIPOS>MOLECULE
/home/cewinharhar/GITHUB/reincatalyze/data/processed/docking_pred/2023_Apr_20-15:07/e9ca5ba4bc0452251e134010a3e53239cf47eed8_ligand_2.pdbqt
 12 12 0 0 0
SMALL
GASTEIGER

@<TRIPOS>ATOM
      1  C          8.4330   -0.5810   -2.2010 C.3     1  UNL1        0.1270
      2  C          8.4810   -1.8800   -2.9120 C.2     1  UNL1        0.3030
      3  O          9.5660   -2.4900   -3.0790 O.2     1  UNL1       -0.2520
      4  O          7.3270   -2.4570   -3.4160 O.3     1  UNL1       -0.4810
      5  H          7.2140   -2.5500   -4.4290 H       1  UNL1        0.2960
      6  C          7.0060   -0.1250   -2.1500 C.3     1  UNL1        0.0470
      7  C          6.4840    0.0440   -0.7950 C.2     1  UNL1       -0.0470
      8  C          5.8700    1.2160   -0.4190 C.2     1  UNL1        0.0040
      9  C          6.6100   -0.9880    0.1060 C.2     1  UNL1        0.0040
     10  C          5.3940    1.3070    0.8910 C.2     1  UNL1        0.0000
     11  C          6.1390   -0.8960    1.4010 C.2     1  UNL1        0.0000
     12  C          5.5230    0.2750    1.7860 C.2     1  UNL1        0.0000
@<TRIPOS>BOND
     1     5     4    1
     2     4     2    1
     3     3     2    2
     4     2     1    1
     5     1     6    1
     6     6     7    1
     7     7     8    2
     8     7     9    1
     9     8    10    1
    10     9    11    2
    11    10    12    2
    12    11    12    1
