@<TRIPOS>MOLECULE
/home/cewinharhar/GITHUB/reincatalyze/data/processed/docking_pred/2023_Apr_20-15:07/e9ca5ba4bc0452251e134010a3e53239cf47eed8_ligand_2.pdbqt
 12 12 0 0 0
SMALL
GASTEIGER

@<TRIPOS>ATOM
      1  C          5.3760    2.8640    0.0460 C.3     1  UNL1        0.1270
      2  C          6.1750    3.8210    0.8470 C.2     1  UNL1        0.3030
      3  O          6.1500    3.7980    2.1030 O.2     1  UNL1       -0.2520
      4  O          6.9730    4.7710    0.2310 O.3     1  UNL1       -0.4810
      5  H          7.1780    5.6470    0.7200 H       1  UNL1        0.2960
      6  C          4.8820    1.7830    0.9580 C.3     1  UNL1        0.0470
      7  C          5.6990    0.5710    0.9400 C.2     1  UNL1       -0.0470
      8  C          5.8190   -0.2120    2.0650 C.2     1  UNL1        0.0040
      9  C          6.3490    0.2160   -0.2190 C.2     1  UNL1        0.0040
     10  C          6.6150   -1.3560    1.9760 C.2     1  UNL1        0.0000
     11  C          7.1350   -0.9150   -0.3050 C.2     1  UNL1        0.0000
     12  C          7.2620   -1.7050    0.8170 C.2     1  UNL1        0.0000
@<TRIPOS>BOND
     1    11     9    1
     2    11    12    2
     3     9     7    2
     4     1     2    1
     5     1     6    1
     6     4     5    1
     7     4     2    1
     8    12    10    1
     9     2     3    2
    10     7     6    1
    11     7     8    1
    12    10     8    2
