@<TRIPOS>MOLECULE
/home/cewinharhar/GITHUB/reincatalyze/data/processed/docking_pred/2023_Apr_20-15:07/e9ca5ba4bc0452251e134010a3e53239cf47eed8_ligand_2.pdbqt
 12 12 0 0 0
SMALL
GASTEIGER

@<TRIPOS>ATOM
      1  C          8.4220   -0.6340   -2.1180 C.3     1  UNL1        0.1270
      2  C          8.3880   -1.9010   -2.8860 C.2     1  UNL1        0.3030
      3  O          7.3010   -2.4190   -3.2400 O.2     1  UNL1       -0.2520
      4  O          9.5610   -2.5510   -3.2340 O.3     1  UNL1       -0.4810
      5  H          9.8360   -2.5950   -4.2200 H       1  UNL1        0.2960
      6  C          7.0380   -0.0590   -2.0980 C.3     1  UNL1        0.0470
      7  C          6.4740    0.0860   -0.7570 C.2     1  UNL1       -0.0470
      8  C          6.5990   -0.9210    0.1710 C.2     1  UNL1        0.0040
      9  C          5.8150    1.2480   -0.4290 C.2     1  UNL1        0.0040
     10  C          6.0360   -0.7130    1.4330 C.2     1  UNL1        0.0000
     11  C          5.2590    1.4520    0.8190 C.2     1  UNL1        0.0000
     12  C          5.3790    0.4470    1.7540 C.2     1  UNL1        0.0000
@<TRIPOS>BOND
     1     5     4    1
     2     3     2    2
     3     4     2    1
     4     2     1    1
     5     1     6    1
     6     6     7    1
     7     7     9    2
     8     7     8    1
     9     9    11    1
    10     8    10    2
    11    11    12    2
    12    10    12    1
