@<TRIPOS>MOLECULE
/home/cewinharhar/GITHUB/reincatalyze/data/processed/docking_pred/2023_Apr_20-15:07/e9ca5ba4bc0452251e134010a3e53239cf47eed8_ligand_2.pdbqt
 12 12 0 0 0
SMALL
GASTEIGER

@<TRIPOS>ATOM
      1  C          4.9920    1.8490    0.6840 C.3     1  UNL1        0.1270
      2  C          4.5000    1.1480    1.8930 C.2     1  UNL1        0.3030
      3  O          5.1790    0.2470    2.4450 O.2     1  UNL1       -0.2520
      4  O          3.2720    1.4690    2.4490 O.3     1  UNL1       -0.4810
      5  H          2.5700    0.7330    2.5720 H       1  UNL1        0.2960
      6  C          6.4900    1.8480    0.7170 C.3     1  UNL1        0.0470
      7  C          7.1080    1.0740   -0.3580 C.2     1  UNL1       -0.0470
      8  C          6.3600    0.2050   -1.1180 C.2     1  UNL1        0.0040
      9  C          8.4530    1.2230   -0.6050 C.2     1  UNL1        0.0040
     10  C          7.0160   -0.5010   -2.1290 C.2     1  UNL1        0.0000
     11  C          9.1000    0.5230   -1.6040 C.2     1  UNL1        0.0000
     12  C          8.3580   -0.3490   -2.3710 C.2     1  UNL1        0.0000
@<TRIPOS>BOND
     1    12    10    2
     2    12    11    1
     3    10     8    1
     4    11     9    2
     5     8     7    2
     6     9     7    1
     7     7     6    1
     8     1     6    1
     9     1     2    1
    10     2     3    2
    11     2     4    1
    12     4     5    1
