@<TRIPOS>MOLECULE
/home/cewinharhar/GITHUB/reincatalyze/data/processed/docking_pred/2023_Apr_20-15:07/ea9f39b4277e7ba3f00603e8654b95ed05d2571c_ligand_2.pdbqt
 12 12 0 0 0
SMALL
GASTEIGER

@<TRIPOS>ATOM
      1  C          5.3660    2.8500    0.0660 C.3     1  UNL1        0.1270
      2  C          6.1630    3.8260    0.8450 C.2     1  UNL1        0.3030
      3  O          6.1470    3.8250    2.1010 O.2     1  UNL1       -0.2520
      4  O          6.9500    4.7710    0.2070 O.3     1  UNL1       -0.4810
      5  H          7.9290    4.8790    0.4860 H       1  UNL1        0.2960
      6  C          4.9190    1.7610    0.9930 C.3     1  UNL1        0.0470
      7  C          5.7390    0.5520    0.9290 C.2     1  UNL1       -0.0470
      8  C          6.4280    0.2290   -0.2160 C.2     1  UNL1        0.0040
      9  C          5.8190   -0.2630    2.0340 C.2     1  UNL1        0.0040
     10  C          7.1920   -0.9400   -0.2050 C.2     1  UNL1        0.0000
     11  C          6.5750   -1.4180    2.0440 C.2     1  UNL1        0.0000
     12  C          7.2670   -1.7500    0.9000 C.2     1  UNL1        0.0000
@<TRIPOS>BOND
     1     8    10    1
     2     8     7    2
     3    10    12    2
     4     1     2    1
     5     1     6    1
     6     4     5    1
     7     4     2    1
     8     2     3    2
     9    12    11    1
    10     7     6    1
    11     7     9    1
    12     9    11    2
