@<TRIPOS>MOLECULE
/home/cewinharhar/GITHUB/reincatalyze/data/processed/docking_pred/2023_Apr_20-15:07/ea9f39b4277e7ba3f00603e8654b95ed05d2571c_ligand_2.pdbqt
 12 12 0 0 0
SMALL
GASTEIGER

@<TRIPOS>ATOM
      1  C          8.2680    0.2170   -2.2320 C.3     1  UNL1        0.1270
      2  C          9.3690    0.3420   -1.2480 C.2     1  UNL1        0.3030
      3  O          9.4440   -0.4220   -0.2540 O.2     1  UNL1       -0.2520
      4  O         10.3500    1.3090   -1.4000 O.3     1  UNL1       -0.4810
      5  H         11.3160    1.0200   -1.5740 H       1  UNL1        0.2960
      6  C          7.1320   -0.5070   -1.5760 C.3     1  UNL1        0.0470
      7  C          6.3480    0.3210   -0.6610 C.2     1  UNL1       -0.0470
      8  C          5.8240    1.5230   -1.0750 C.2     1  UNL1        0.0040
      9  C          6.1360   -0.1170    0.6260 C.2     1  UNL1        0.0040
     10  C          5.0840    2.2610   -0.1480 C.2     1  UNL1        0.0000
     11  C          5.4060    0.6140    1.5410 C.2     1  UNL1        0.0000
     12  C          4.8770    1.8200    1.1350 C.2     1  UNL1        0.0000
@<TRIPOS>BOND
     1     1     6    1
     2     1     2    1
     3     6     7    1
     4     5     4    1
     5     4     2    1
     6     2     3    2
     7     8     7    2
     8     8    10    1
     9     7     9    1
    10    10    12    2
    11     9    11    2
    12    12    11    1
