MODEL 1
REMARK VINA RESULT:      -7.4      0.000      0.000
REMARK SMILES O=C(O)CCc1ccccc1
REMARK SMILES IDX 4 1 2 2 1 3 3 4 5 6 6 7 7 8 11 9 8 10 10 11 9 12
REMARK H PARENT 3 5
REMARK Flexibility Score: inf
ROOT
ATOM      1  C   UNL     1       8.459  -0.611  -2.151  1.00  0.00     0.127 C 
ENDROOT
BRANCH   1   2
ATOM      2  C   UNL     1       8.492  -1.885  -2.907  1.00  0.00     0.303 C 
ATOM      3  O   UNL     1       9.571  -2.496  -3.106  1.00  0.00    -0.252 OA
BRANCH   2   4
ATOM      4  O   UNL     1       7.329  -2.438  -3.418  1.00  0.00    -0.481 OA
ATOM      5  H   UNL     1       7.391  -3.246  -4.044  1.00  0.00     0.296 HD
ENDBRANCH   2   4
ENDBRANCH   1   2
BRANCH   1   6
ATOM      6  C   UNL     1       7.046  -0.111  -2.133  1.00  0.00     0.047 C 
BRANCH   6   7
ATOM      7  C   UNL     1       6.490   0.050  -0.790  1.00  0.00    -0.047 A 
ATOM      8  C   UNL     1       6.618  -0.947   0.149  1.00  0.00     0.004 A 
ATOM      9  C   UNL     1       5.835   1.217  -0.471  1.00  0.00     0.004 A 
ATOM     10  C   UNL     1       6.063  -0.724   1.411  1.00  0.00     0.000 A 
ATOM     11  C   UNL     1       5.287   1.436   0.777  1.00  0.00     0.000 A 
ATOM     12  C   UNL     1       5.410   0.442   1.723  1.00  0.00     0.000 A 
ENDBRANCH   6   7
ENDBRANCH   1   6
TORSDOF 4
ENDMDL
MODEL 2
REMARK VINA RESULT:      -7.3      0.068      1.438
REMARK SMILES O=C(O)CCc1ccccc1
REMARK SMILES IDX 4 1 2 2 1 3 3 4 5 6 6 7 7 8 11 9 8 10 10 11 9 12
REMARK H PARENT 3 5
REMARK Flexibility Score: inf
ROOT
ATOM      1  C   UNL     1       8.471  -0.676  -2.075  1.00  0.00     0.127 C 
ENDROOT
BRANCH   1   2
ATOM      2  C   UNL     1       8.472  -1.923  -2.876  1.00  0.00     0.303 C 
ATOM      3  O   UNL     1       9.527  -2.579  -3.056  1.00  0.00    -0.252 OA
BRANCH   2   4
ATOM      4  O   UNL     1       7.304  -2.400  -3.449  1.00  0.00    -0.481 OA
ATOM      5  H   UNL     1       6.451  -1.837  -3.390  1.00  0.00     0.296 HD
ENDBRANCH   2   4
ENDBRANCH   1   2
BRANCH   1   6
ATOM      6  C   UNL     1       7.088  -0.099  -2.104  1.00  0.00     0.047 C 
BRANCH   6   7
ATOM      7  C   UNL     1       6.502   0.107  -0.781  1.00  0.00    -0.047 A 
ATOM      8  C   UNL     1       5.815   1.262  -0.488  1.00  0.00     0.004 A 
ATOM      9  C   UNL     1       6.640  -0.873   0.174  1.00  0.00     0.004 A 
ATOM     10  C   UNL     1       5.280   1.390   0.796  1.00  0.00     0.000 A 
ATOM     11  C   UNL     1       6.111  -0.745   1.443  1.00  0.00     0.000 A 
ATOM     12  C   UNL     1       5.423   0.410   1.745  1.00  0.00     0.000 A 
ENDBRANCH   6   7
ENDBRANCH   1   6
TORSDOF 4
ENDMDL
MODEL 3
REMARK VINA RESULT:      -6.8      3.367      5.073
REMARK SMILES O=C(O)CCc1ccccc1
REMARK SMILES IDX 4 1 2 2 1 3 3 4 5 6 6 7 7 8 11 9 8 10 10 11 9 12
REMARK H PARENT 3 5
REMARK Flexibility Score: inf
ROOT
ATOM      1  C   UNL     1       4.994   1.724   0.660  1.00  0.00     0.127 C 
ENDROOT
BRANCH   1   2
ATOM      2  C   UNL     1       4.497   1.086   1.902  1.00  0.00     0.303 C 
ATOM      3  O   UNL     1       5.162   0.197   2.488  1.00  0.00    -0.252 OA
BRANCH   2   4
ATOM      4  O   UNL     1       3.280   1.455   2.451  1.00  0.00    -0.481 OA
ATOM      5  H   UNL     1       2.555   0.744   2.587  1.00  0.00     0.296 HD
ENDBRANCH   2   4
ENDBRANCH   1   2
BRANCH   1   6
ATOM      6  C   UNL     1       6.491   1.768   0.720  1.00  0.00     0.047 C 
BRANCH   6   7
ATOM      7  C   UNL     1       7.151   1.022  -0.350  1.00  0.00    -0.047 A 
ATOM      8  C   UNL     1       8.477   1.238  -0.643  1.00  0.00     0.004 A 
ATOM      9  C   UNL     1       6.430   0.094  -1.066  1.00  0.00     0.004 A 
ATOM     10  C   UNL     1       9.043   0.489  -1.678  1.00  0.00     0.000 A 
ATOM     11  C   UNL     1       6.990  -0.645  -2.088  1.00  0.00     0.000 A 
ATOM     12  C   UNL     1       8.318  -0.434  -2.389  1.00  0.00     0.000 A 
ENDBRANCH   6   7
ENDBRANCH   1   6
TORSDOF 4
ENDMDL
MODEL 4
REMARK VINA RESULT:      -6.6      3.806      5.032
REMARK SMILES O=C(O)CCc1ccccc1
REMARK SMILES IDX 4 1 2 2 1 3 3 4 5 6 6 7 7 8 11 9 8 10 10 11 9 12
REMARK H PARENT 3 5
REMARK Flexibility Score: inf
ROOT
ATOM      1  C   UNL     1       5.366   2.850   0.066  1.00  0.00     0.127 C 
ENDROOT
BRANCH   1   2
ATOM      2  C   UNL     1       6.163   3.826   0.845  1.00  0.00     0.303 C 
ATOM      3  O   UNL     1       6.147   3.825   2.101  1.00  0.00    -0.252 OA
BRANCH   2   4
ATOM      4  O   UNL     1       6.950   4.771   0.207  1.00  0.00    -0.481 OA
ATOM      5  H   UNL     1       7.929   4.879   0.486  1.00  0.00     0.296 HD
ENDBRANCH   2   4
ENDBRANCH   1   2
BRANCH   1   6
ATOM      6  C   UNL     1       4.919   1.761   0.993  1.00  0.00     0.047 C 
BRANCH   6   7
ATOM      7  C   UNL     1       5.739   0.552   0.929  1.00  0.00    -0.047 A 
ATOM      8  C   UNL     1       6.428   0.229  -0.216  1.00  0.00     0.004 A 
ATOM      9  C   UNL     1       5.819  -0.263   2.034  1.00  0.00     0.004 A 
ATOM     10  C   UNL     1       7.192  -0.940  -0.205  1.00  0.00     0.000 A 
ATOM     11  C   UNL     1       6.575  -1.418   2.044  1.00  0.00     0.000 A 
ATOM     12  C   UNL     1       7.267  -1.750   0.900  1.00  0.00     0.000 A 
ENDBRANCH   6   7
ENDBRANCH   1   6
TORSDOF 4
ENDMDL
MODEL 5
REMARK VINA RESULT:      -6.6      1.915      2.644
REMARK SMILES O=C(O)CCc1ccccc1
REMARK SMILES IDX 4 1 2 2 1 3 3 4 5 6 6 7 7 8 11 9 8 10 10 11 9 12
REMARK H PARENT 3 5
REMARK Flexibility Score: inf
ROOT
ATOM      1  C   UNL     1       8.268   0.217  -2.232  1.00  0.00     0.127 C 
ENDROOT
BRANCH   1   2
ATOM      2  C   UNL     1       9.369   0.342  -1.248  1.00  0.00     0.303 C 
ATOM      3  O   UNL     1       9.444  -0.422  -0.254  1.00  0.00    -0.252 OA
BRANCH   2   4
ATOM      4  O   UNL     1      10.350   1.309  -1.400  1.00  0.00    -0.481 OA
ATOM      5  H   UNL     1      11.316   1.020  -1.574  1.00  0.00     0.296 HD
ENDBRANCH   2   4
ENDBRANCH   1   2
BRANCH   1   6
ATOM      6  C   UNL     1       7.132  -0.507  -1.576  1.00  0.00     0.047 C 
BRANCH   6   7
ATOM      7  C   UNL     1       6.348   0.321  -0.661  1.00  0.00    -0.047 A 
ATOM      8  C   UNL     1       5.824   1.523  -1.075  1.00  0.00     0.004 A 
ATOM      9  C   UNL     1       6.136  -0.117   0.626  1.00  0.00     0.004 A 
ATOM     10  C   UNL     1       5.084   2.261  -0.148  1.00  0.00     0.000 A 
ATOM     11  C   UNL     1       5.406   0.614   1.541  1.00  0.00     0.000 A 
ATOM     12  C   UNL     1       4.877   1.820   1.135  1.00  0.00     0.000 A 
ENDBRANCH   6   7
ENDBRANCH   1   6
TORSDOF 4
ENDMDL
