@<TRIPOS>MOLECULE
/home/cewinharhar/GITHUB/reincatalyze/data/processed/docking_pred/2023_Apr_20-15:07/ea9f39b4277e7ba3f00603e8654b95ed05d2571c_ligand_2.pdbqt
 12 12 0 0 0
SMALL
GASTEIGER

@<TRIPOS>ATOM
      1  C          4.9940    1.7240    0.6600 C.3     1  UNL1        0.1270
      2  C          4.4970    1.0860    1.9020 C.2     1  UNL1        0.3030
      3  O          5.1620    0.1970    2.4880 O.2     1  UNL1       -0.2520
      4  O          3.2800    1.4550    2.4510 O.3     1  UNL1       -0.4810
      5  H          2.5550    0.7440    2.5870 H       1  UNL1        0.2960
      6  C          6.4910    1.7680    0.7200 C.3     1  UNL1        0.0470
      7  C          7.1510    1.0220   -0.3500 C.2     1  UNL1       -0.0470
      8  C          8.4770    1.2380   -0.6430 C.2     1  UNL1        0.0040
      9  C          6.4300    0.0940   -1.0660 C.2     1  UNL1        0.0040
     10  C          9.0430    0.4890   -1.6780 C.2     1  UNL1        0.0000
     11  C          6.9900   -0.6450   -2.0880 C.2     1  UNL1        0.0000
     12  C          8.3180   -0.4340   -2.3890 C.2     1  UNL1        0.0000
@<TRIPOS>BOND
     1    12    11    2
     2    12    10    1
     3    11     9    1
     4    10     8    2
     5     9     7    2
     6     8     7    1
     7     7     6    1
     8     1     6    1
     9     1     2    1
    10     2     4    1
    11     2     3    2
    12     4     5    1
