@<TRIPOS>MOLECULE
/home/cewinharhar/GITHUB/reincatalyze/data/processed/docking_pred/2023_Apr_20-15:07/ea9f39b4277e7ba3f00603e8654b95ed05d2571c_ligand_2.pdbqt
 12 12 0 0 0
SMALL
GASTEIGER

@<TRIPOS>ATOM
      1  C          8.4590   -0.6110   -2.1510 C.3     1  UNL1        0.1270
      2  C          8.4920   -1.8850   -2.9070 C.2     1  UNL1        0.3030
      3  O          9.5710   -2.4960   -3.1060 O.2     1  UNL1       -0.2520
      4  O          7.3290   -2.4380   -3.4180 O.3     1  UNL1       -0.4810
      5  H          7.3910   -3.2460   -4.0440 H       1  UNL1        0.2960
      6  C          7.0460   -0.1110   -2.1330 C.3     1  UNL1        0.0470
      7  C          6.4900    0.0500   -0.7900 C.2     1  UNL1       -0.0470
      8  C          6.6180   -0.9470    0.1490 C.2     1  UNL1        0.0040
      9  C          5.8350    1.2170   -0.4710 C.2     1  UNL1        0.0040
     10  C          6.0630   -0.7240    1.4110 C.2     1  UNL1        0.0000
     11  C          5.2870    1.4360    0.7770 C.2     1  UNL1        0.0000
     12  C          5.4100    0.4420    1.7230 C.2     1  UNL1        0.0000
@<TRIPOS>BOND
     1     5     4    1
     2     4     2    1
     3     3     2    2
     4     2     1    1
     5     1     6    1
     6     6     7    1
     7     7     9    2
     8     7     8    1
     9     9    11    1
    10     8    10    2
    11    11    12    2
    12    10    12    1
