@<TRIPOS>MOLECULE
/home/cewinharhar/GITHUB/reincatalyze/data/processed/docking_pred/2023_Apr_20-15:07/eb53456adf8787420c4e8f25112cf644d6bf88f9_ligand_2.pdbqt
 12 12 0 0 0
SMALL
GASTEIGER

@<TRIPOS>ATOM
      1  C          8.4320    0.6540   -1.6970 C.3     1  UNL1        0.1270
      2  C          9.5900    0.2800   -0.8510 C.2     1  UNL1        0.3030
      3  O          9.4650   -0.5250    0.1040 O.2     1  UNL1       -0.2520
      4  O         10.8470    0.8100   -1.0940 O.3     1  UNL1       -0.4810
      5  H         11.1840    1.5860   -0.5160 H       1  UNL1        0.2960
      6  C          7.2810   -0.2360   -1.3400 C.3     1  UNL1        0.0470
      7  C          6.3940    0.3190   -0.3200 C.2     1  UNL1       -0.0470
      8  C          5.7630    1.5250   -0.5180 C.2     1  UNL1        0.0040
      9  C          6.1910   -0.3800    0.8470 C.2     1  UNL1        0.0040
     10  C          4.9280    1.9950    0.4990 C.2     1  UNL1        0.0000
     11  C          5.3660    0.0850    1.8510 C.2     1  UNL1        0.0000
     12  C          4.7310    1.2930    1.6610 C.2     1  UNL1        0.0000
@<TRIPOS>BOND
     1     1     6    1
     2     1     2    1
     3     6     7    1
     4     4     2    1
     5     4     5    1
     6     2     3    2
     7     8     7    2
     8     8    10    1
     9     7     9    1
    10    10    12    2
    11     9    11    2
    12    12    11    1
