@<TRIPOS>MOLECULE
/home/cewinharhar/GITHUB/reincatalyze/data/processed/docking_pred/2023_Apr_20-15:07/eb53456adf8787420c4e8f25112cf644d6bf88f9_ligand_2.pdbqt
 12 12 0 0 0
SMALL
GASTEIGER

@<TRIPOS>ATOM
      1  C          5.3090    2.9740    0.0880 C.3     1  UNL1        0.1270
      2  C          6.2840    3.7960    0.8420 C.2     1  UNL1        0.3030
      3  O          6.8630    4.7730    0.3060 O.2     1  UNL1       -0.2520
      4  O          6.5860    3.5070    2.1630 O.3     1  UNL1       -0.4810
      5  H          5.9780    3.8630    2.9050 H       1  UNL1        0.2960
      6  C          5.1170    1.6810    0.8210 C.3     1  UNL1        0.0470
      7  C          5.9460    0.5850    0.3210 C.2     1  UNL1       -0.0470
      8  C          6.3030    0.5230   -1.0060 C.2     1  UNL1        0.0040
      9  C          6.3710   -0.3880    1.1950 C.2     1  UNL1        0.0040
     10  C          7.0970   -0.5510   -1.4140 C.2     1  UNL1        0.0000
     11  C          7.1560   -1.4490    0.7900 C.2     1  UNL1        0.0000
     12  C          7.5170   -1.5200   -0.5380 C.2     1  UNL1        0.0000
@<TRIPOS>BOND
     1    10     8    1
     2    10    12    2
     3     8     7    2
     4    12    11    1
     5     1     6    1
     6     1     2    1
     7     3     2    2
     8     7     6    1
     9     7     9    1
    10    11     9    2
    11     2     4    1
    12     4     5    1
