@<TRIPOS>MOLECULE
/home/cewinharhar/GITHUB/reincatalyze/data/processed/docking_pred/2023_Apr_20-15:07/eb53456adf8787420c4e8f25112cf644d6bf88f9_ligand_2.pdbqt
 12 12 0 0 0
SMALL
GASTEIGER

@<TRIPOS>ATOM
      1  C          8.4360   -0.5960   -2.2000 C.3     1  UNL1        0.1270
      2  C          8.4750   -1.8860   -2.9280 C.2     1  UNL1        0.3030
      3  O          9.5510   -2.5160   -3.0780 O.2     1  UNL1       -0.2520
      4  O          7.3200   -2.4340   -3.4640 O.3     1  UNL1       -0.4810
      5  H          6.5630   -1.8130   -3.7610 H       1  UNL1        0.2960
      6  C          7.0150   -0.1220   -2.1570 C.3     1  UNL1        0.0470
      7  C          6.4820    0.0370   -0.8050 C.2     1  UNL1       -0.0470
      8  C          6.6200   -0.9650    0.1280 C.2     1  UNL1        0.0040
      9  C          5.8390    1.2060   -0.4690 C.2     1  UNL1        0.0040
     10  C          6.0880   -0.7450    1.4000 C.2     1  UNL1        0.0000
     11  C          5.3130    1.4220    0.7890 C.2     1  UNL1        0.0000
     12  C          5.4460    0.4230    1.7280 C.2     1  UNL1        0.0000
@<TRIPOS>BOND
     1     5     4    1
     2     4     2    1
     3     3     2    2
     4     2     1    1
     5     1     6    1
     6     6     7    1
     7     7     9    2
     8     7     8    1
     9     9    11    1
    10     8    10    2
    11    11    12    2
    12    10    12    1
