MODEL 1
REMARK VINA RESULT:      -7.4      0.000      0.000
REMARK SMILES O=C(O)CCc1ccccc1
REMARK SMILES IDX 4 1 2 2 1 3 3 4 5 6 6 7 7 8 11 9 8 10 10 11 9 12
REMARK H PARENT 3 5
REMARK Flexibility Score: inf
ROOT
ATOM      1  C   UNL     1       8.436  -0.596  -2.200  1.00  0.00     0.127 C 
ENDROOT
BRANCH   1   2
ATOM      2  C   UNL     1       8.475  -1.886  -2.928  1.00  0.00     0.303 C 
ATOM      3  O   UNL     1       9.551  -2.516  -3.078  1.00  0.00    -0.252 OA
BRANCH   2   4
ATOM      4  O   UNL     1       7.320  -2.434  -3.464  1.00  0.00    -0.481 OA
ATOM      5  H   UNL     1       6.563  -1.813  -3.761  1.00  0.00     0.296 HD
ENDBRANCH   2   4
ENDBRANCH   1   2
BRANCH   1   6
ATOM      6  C   UNL     1       7.015  -0.122  -2.157  1.00  0.00     0.047 C 
BRANCH   6   7
ATOM      7  C   UNL     1       6.482   0.037  -0.805  1.00  0.00    -0.047 A 
ATOM      8  C   UNL     1       6.620  -0.965   0.128  1.00  0.00     0.004 A 
ATOM      9  C   UNL     1       5.839   1.206  -0.469  1.00  0.00     0.004 A 
ATOM     10  C   UNL     1       6.088  -0.745   1.400  1.00  0.00     0.000 A 
ATOM     11  C   UNL     1       5.313   1.422   0.789  1.00  0.00     0.000 A 
ATOM     12  C   UNL     1       5.446   0.423   1.728  1.00  0.00     0.000 A 
ENDBRANCH   6   7
ENDBRANCH   1   6
TORSDOF 4
ENDMDL
MODEL 2
REMARK VINA RESULT:      -7.3      0.118      1.440
REMARK SMILES O=C(O)CCc1ccccc1
REMARK SMILES IDX 4 1 2 2 1 3 3 4 5 6 6 7 7 8 11 9 8 10 10 11 9 12
REMARK H PARENT 3 5
REMARK Flexibility Score: inf
ROOT
ATOM      1  C   UNL     1       8.410  -0.545  -2.263  1.00  0.00     0.127 C 
ENDROOT
BRANCH   1   2
ATOM      2  C   UNL     1       8.484  -1.866  -2.931  1.00  0.00     0.303 C 
ATOM      3  O   UNL     1       9.577  -2.472  -3.057  1.00  0.00    -0.252 OA
BRANCH   2   4
ATOM      4  O   UNL     1       7.344  -2.471  -3.436  1.00  0.00    -0.481 OA
ATOM      5  H   UNL     1       6.602  -2.759  -2.791  1.00  0.00     0.296 HD
ENDBRANCH   2   4
ENDBRANCH   1   2
BRANCH   1   6
ATOM      6  C   UNL     1       6.971  -0.138  -2.183  1.00  0.00     0.047 C 
BRANCH   6   7
ATOM      7  C   UNL     1       6.474   0.025  -0.818  1.00  0.00    -0.047 A 
ATOM      8  C   UNL     1       5.864   1.194  -0.426  1.00  0.00     0.004 A 
ATOM      9  C   UNL     1       6.621  -1.009   0.078  1.00  0.00     0.004 A 
ATOM     10  C   UNL     1       5.413   1.280   0.893  1.00  0.00     0.000 A 
ATOM     11  C   UNL     1       6.175  -0.922   1.382  1.00  0.00     0.000 A 
ATOM     12  C   UNL     1       5.564   0.246   1.783  1.00  0.00     0.000 A 
ENDBRANCH   6   7
ENDBRANCH   1   6
TORSDOF 4
ENDMDL
MODEL 3
REMARK VINA RESULT:      -6.8      3.391      5.068
REMARK SMILES O=C(O)CCc1ccccc1
REMARK SMILES IDX 4 1 2 2 1 3 3 4 5 6 6 7 7 8 11 9 8 10 10 11 9 12
REMARK H PARENT 3 5
REMARK Flexibility Score: inf
ROOT
ATOM      1  C   UNL     1       4.998   1.811   0.718  1.00  0.00     0.127 C 
ENDROOT
BRANCH   1   2
ATOM      2  C   UNL     1       4.478   1.116   1.920  1.00  0.00     0.303 C 
ATOM      3  O   UNL     1       5.134   0.203   2.478  1.00  0.00    -0.252 OA
BRANCH   2   4
ATOM      4  O   UNL     1       3.249   1.458   2.461  1.00  0.00    -0.481 OA
ATOM      5  H   UNL     1       2.463   0.809   2.367  1.00  0.00     0.296 HD
ENDBRANCH   2   4
ENDBRANCH   1   2
BRANCH   1   6
ATOM      6  C   UNL     1       6.495   1.780   0.767  1.00  0.00     0.047 C 
BRANCH   6   7
ATOM      7  C   UNL     1       7.110   1.031  -0.327  1.00  0.00    -0.047 A 
ATOM      8  C   UNL     1       6.378   0.123  -1.057  1.00  0.00     0.004 A 
ATOM      9  C   UNL     1       8.436   1.244  -0.624  1.00  0.00     0.004 A 
ATOM     10  C   UNL     1       7.031  -0.556  -2.089  1.00  0.00     0.000 A 
ATOM     11  C   UNL     1       9.080   0.572  -1.644  1.00  0.00     0.000 A 
ATOM     12  C   UNL     1       8.354  -0.340  -2.380  1.00  0.00     0.000 A 
ENDBRANCH   6   7
ENDBRANCH   1   6
TORSDOF 4
ENDMDL
MODEL 4
REMARK VINA RESULT:      -6.5      3.714      5.036
REMARK SMILES O=C(O)CCc1ccccc1
REMARK SMILES IDX 4 1 2 2 1 3 3 4 5 6 6 7 7 8 11 9 8 10 10 11 9 12
REMARK H PARENT 3 5
REMARK Flexibility Score: inf
ROOT
ATOM      1  C   UNL     1       5.309   2.974   0.088  1.00  0.00     0.127 C 
ENDROOT
BRANCH   1   2
ATOM      2  C   UNL     1       6.284   3.796   0.842  1.00  0.00     0.303 C 
ATOM      3  O   UNL     1       6.863   4.773   0.306  1.00  0.00    -0.252 OA
BRANCH   2   4
ATOM      4  O   UNL     1       6.586   3.507   2.163  1.00  0.00    -0.481 OA
ATOM      5  H   UNL     1       5.978   3.863   2.905  1.00  0.00     0.296 HD
ENDBRANCH   2   4
ENDBRANCH   1   2
BRANCH   1   6
ATOM      6  C   UNL     1       5.117   1.681   0.821  1.00  0.00     0.047 C 
BRANCH   6   7
ATOM      7  C   UNL     1       5.946   0.585   0.321  1.00  0.00    -0.047 A 
ATOM      8  C   UNL     1       6.303   0.523  -1.006  1.00  0.00     0.004 A 
ATOM      9  C   UNL     1       6.371  -0.388   1.195  1.00  0.00     0.004 A 
ATOM     10  C   UNL     1       7.097  -0.551  -1.414  1.00  0.00     0.000 A 
ATOM     11  C   UNL     1       7.156  -1.449   0.790  1.00  0.00     0.000 A 
ATOM     12  C   UNL     1       7.517  -1.520  -0.538  1.00  0.00     0.000 A 
ENDBRANCH   6   7
ENDBRANCH   1   6
TORSDOF 4
ENDMDL
MODEL 5
REMARK VINA RESULT:      -6.5      2.066      2.720
REMARK SMILES O=C(O)CCc1ccccc1
REMARK SMILES IDX 4 1 2 2 1 3 3 4 5 6 6 7 7 8 11 9 8 10 10 11 9 12
REMARK H PARENT 3 5
REMARK Flexibility Score: inf
ROOT
ATOM      1  C   UNL     1       8.432   0.654  -1.697  1.00  0.00     0.127 C 
ENDROOT
BRANCH   1   2
ATOM      2  C   UNL     1       9.590   0.280  -0.851  1.00  0.00     0.303 C 
ATOM      3  O   UNL     1       9.465  -0.525   0.104  1.00  0.00    -0.252 OA
BRANCH   2   4
ATOM      4  O   UNL     1      10.847   0.810  -1.094  1.00  0.00    -0.481 OA
ATOM      5  H   UNL     1      11.184   1.586  -0.516  1.00  0.00     0.296 HD
ENDBRANCH   2   4
ENDBRANCH   1   2
BRANCH   1   6
ATOM      6  C   UNL     1       7.281  -0.236  -1.340  1.00  0.00     0.047 C 
BRANCH   6   7
ATOM      7  C   UNL     1       6.394   0.319  -0.320  1.00  0.00    -0.047 A 
ATOM      8  C   UNL     1       5.763   1.525  -0.518  1.00  0.00     0.004 A 
ATOM      9  C   UNL     1       6.191  -0.380   0.847  1.00  0.00     0.004 A 
ATOM     10  C   UNL     1       4.928   1.995   0.499  1.00  0.00     0.000 A 
ATOM     11  C   UNL     1       5.366   0.085   1.851  1.00  0.00     0.000 A 
ATOM     12  C   UNL     1       4.731   1.293   1.661  1.00  0.00     0.000 A 
ENDBRANCH   6   7
ENDBRANCH   1   6
TORSDOF 4
ENDMDL
