@<TRIPOS>MOLECULE
/home/cewinharhar/GITHUB/reincatalyze/data/processed/docking_pred/2023_Apr_20-15:07/eb53456adf8787420c4e8f25112cf644d6bf88f9_ligand_2.pdbqt
 12 12 0 0 0
SMALL
GASTEIGER

@<TRIPOS>ATOM
      1  C          8.4100   -0.5450   -2.2630 C.3     1  UNL1        0.1270
      2  C          8.4840   -1.8660   -2.9310 C.2     1  UNL1        0.3030
      3  O          9.5770   -2.4720   -3.0570 O.2     1  UNL1       -0.2520
      4  O          7.3440   -2.4710   -3.4360 O.3     1  UNL1       -0.4810
      5  H          6.6020   -2.7590   -2.7910 H       1  UNL1        0.2960
      6  C          6.9710   -0.1380   -2.1830 C.3     1  UNL1        0.0470
      7  C          6.4740    0.0250   -0.8180 C.2     1  UNL1       -0.0470
      8  C          5.8640    1.1940   -0.4260 C.2     1  UNL1        0.0040
      9  C          6.6210   -1.0090    0.0780 C.2     1  UNL1        0.0040
     10  C          5.4130    1.2800    0.8930 C.2     1  UNL1        0.0000
     11  C          6.1750   -0.9220    1.3820 C.2     1  UNL1        0.0000
     12  C          5.5640    0.2460    1.7830 C.2     1  UNL1        0.0000
@<TRIPOS>BOND
     1     4     2    1
     2     4     5    1
     3     3     2    2
     4     2     1    1
     5     1     6    1
     6     6     7    1
     7     7     8    2
     8     7     9    1
     9     8    10    1
    10     9    11    2
    11    10    12    2
    12    11    12    1
