@<TRIPOS>MOLECULE
/home/cewinharhar/GITHUB/reincatalyze/data/processed/docking_pred/2023_Apr_20-15:07/eb53456adf8787420c4e8f25112cf644d6bf88f9_ligand_2.pdbqt
 12 12 0 0 0
SMALL
GASTEIGER

@<TRIPOS>ATOM
      1  C          4.9980    1.8110    0.7180 C.3     1  UNL1        0.1270
      2  C          4.4780    1.1160    1.9200 C.2     1  UNL1        0.3030
      3  O          5.1340    0.2030    2.4780 O.2     1  UNL1       -0.2520
      4  O          3.2490    1.4580    2.4610 O.3     1  UNL1       -0.4810
      5  H          2.4630    0.8090    2.3670 H       1  UNL1        0.2960
      6  C          6.4950    1.7800    0.7670 C.3     1  UNL1        0.0470
      7  C          7.1100    1.0310   -0.3270 C.2     1  UNL1       -0.0470
      8  C          6.3780    0.1230   -1.0570 C.2     1  UNL1        0.0040
      9  C          8.4360    1.2440   -0.6240 C.2     1  UNL1        0.0040
     10  C          7.0310   -0.5560   -2.0890 C.2     1  UNL1        0.0000
     11  C          9.0800    0.5720   -1.6440 C.2     1  UNL1        0.0000
     12  C          8.3540   -0.3400   -2.3800 C.2     1  UNL1        0.0000
@<TRIPOS>BOND
     1    12    10    2
     2    12    11    1
     3    10     8    1
     4    11     9    2
     5     8     7    2
     6     9     7    1
     7     7     6    1
     8     1     6    1
     9     1     2    1
    10     2     4    1
    11     2     3    2
    12     5     4    1
