MODEL 1
REMARK VINA RESULT:      -7.3      0.000      0.000
REMARK SMILES O=C(O)CCc1ccccc1
REMARK SMILES IDX 4 1 2 2 1 3 3 4 5 6 6 7 7 8 11 9 8 10 10 11 9 12
REMARK H PARENT 3 5
REMARK Flexibility Score: inf
ROOT
ATOM      1  C   UNL     1       8.427  -0.636  -2.132  1.00  0.00     0.127 C 
ENDROOT
BRANCH   1   2
ATOM      2  C   UNL     1       8.474  -1.902  -2.902  1.00  0.00     0.303 C 
ATOM      3  O   UNL     1       9.558  -2.504  -3.099  1.00  0.00    -0.252 OA
BRANCH   2   4
ATOM      4  O   UNL     1       7.317  -2.456  -3.427  1.00  0.00    -0.481 OA
ATOM      5  H   UNL     1       7.168  -3.466  -3.353  1.00  0.00     0.296 HD
ENDBRANCH   2   4
ENDBRANCH   1   2
BRANCH   1   6
ATOM      6  C   UNL     1       7.010  -0.148  -2.114  1.00  0.00     0.047 C 
BRANCH   6   7
ATOM      7  C   UNL     1       6.466   0.048  -0.771  1.00  0.00    -0.047 A 
ATOM      8  C   UNL     1       5.835   1.222  -0.432  1.00  0.00     0.004 A 
ATOM      9  C   UNL     1       6.589  -0.961   0.157  1.00  0.00     0.004 A 
ATOM     10  C   UNL     1       5.339   1.339   0.868  1.00  0.00     0.000 A 
ATOM     11  C   UNL     1       6.098  -0.843   1.442  1.00  0.00     0.000 A 
ATOM     12  C   UNL     1       5.465   0.330   1.790  1.00  0.00     0.000 A 
ENDBRANCH   6   7
ENDBRANCH   1   6
TORSDOF 4
ENDMDL
MODEL 2
REMARK VINA RESULT:      -7.3      0.124      1.731
REMARK SMILES O=C(O)CCc1ccccc1
REMARK SMILES IDX 4 1 2 2 1 3 3 4 5 6 6 7 7 8 11 9 8 10 10 11 9 12
REMARK H PARENT 3 5
REMARK Flexibility Score: inf
ROOT
ATOM      1  C   UNL     1       8.470  -0.634  -2.092  1.00  0.00     0.127 C 
ENDROOT
BRANCH   1   2
ATOM      2  C   UNL     1       8.404  -1.892  -2.872  1.00  0.00     0.303 C 
ATOM      3  O   UNL     1       7.303  -2.397  -3.202  1.00  0.00    -0.252 OA
BRANCH   2   4
ATOM      4  O   UNL     1       9.562  -2.548  -3.261  1.00  0.00    -0.481 OA
ATOM      5  H   UNL     1       9.550  -3.127  -4.105  1.00  0.00     0.296 HD
ENDBRANCH   2   4
ENDBRANCH   1   2
BRANCH   1   6
ATOM      6  C   UNL     1       7.105  -0.017  -2.077  1.00  0.00     0.047 C 
BRANCH   6   7
ATOM      7  C   UNL     1       6.519   0.099  -0.743  1.00  0.00    -0.047 A 
ATOM      8  C   UNL     1       6.632  -0.927   0.167  1.00  0.00     0.004 A 
ATOM      9  C   UNL     1       5.850   1.252  -0.402  1.00  0.00     0.004 A 
ATOM     10  C   UNL     1       6.048  -0.746   1.423  1.00  0.00     0.000 A 
ATOM     11  C   UNL     1       5.274   1.428   0.840  1.00  0.00     0.000 A 
ATOM     12  C   UNL     1       5.382   0.405   1.757  1.00  0.00     0.000 A 
ENDBRANCH   6   7
ENDBRANCH   1   6
TORSDOF 4
ENDMDL
MODEL 3
REMARK VINA RESULT:      -6.8      3.382      5.055
REMARK SMILES O=C(O)CCc1ccccc1
REMARK SMILES IDX 4 1 2 2 1 3 3 4 5 6 6 7 7 8 11 9 8 10 10 11 9 12
REMARK H PARENT 3 5
REMARK Flexibility Score: inf
ROOT
ATOM      1  C   UNL     1       4.997   1.774   0.684  1.00  0.00     0.127 C 
ENDROOT
BRANCH   1   2
ATOM      2  C   UNL     1       4.489   1.105   1.905  1.00  0.00     0.303 C 
ATOM      3  O   UNL     1       5.150   0.203   2.476  1.00  0.00    -0.252 OA
BRANCH   2   4
ATOM      4  O   UNL     1       3.265   1.457   2.450  1.00  0.00    -0.481 OA
ATOM      5  H   UNL     1       2.407   1.262   1.926  1.00  0.00     0.296 HD
ENDBRANCH   2   4
ENDBRANCH   1   2
BRANCH   1   6
ATOM      6  C   UNL     1       6.494   1.789   0.745  1.00  0.00     0.047 C 
BRANCH   6   7
ATOM      7  C   UNL     1       7.141   1.047  -0.335  1.00  0.00    -0.047 A 
ATOM      8  C   UNL     1       8.468   1.251  -0.633  1.00  0.00     0.004 A 
ATOM      9  C   UNL     1       6.406   0.134  -1.056  1.00  0.00     0.004 A 
ATOM     10  C   UNL     1       9.021   0.506  -1.677  1.00  0.00     0.000 A 
ATOM     11  C   UNL     1       6.954  -0.602  -2.088  1.00  0.00     0.000 A 
ATOM     12  C   UNL     1       8.283  -0.403  -2.393  1.00  0.00     0.000 A 
ENDBRANCH   6   7
ENDBRANCH   1   6
TORSDOF 4
ENDMDL
MODEL 4
REMARK VINA RESULT:      -6.7      1.940      2.633
REMARK SMILES O=C(O)CCc1ccccc1
REMARK SMILES IDX 4 1 2 2 1 3 3 4 5 6 6 7 7 8 11 9 8 10 10 11 9 12
REMARK H PARENT 3 5
REMARK Flexibility Score: inf
ROOT
ATOM      1  C   UNL     1       8.157   0.257  -2.092  1.00  0.00     0.127 C 
ENDROOT
BRANCH   1   2
ATOM      2  C   UNL     1       9.342   0.355  -1.207  1.00  0.00     0.303 C 
ATOM      3  O   UNL     1       9.471  -0.394  -0.207  1.00  0.00    -0.252 OA
BRANCH   2   4
ATOM      4  O   UNL     1      10.343   1.279  -1.460  1.00  0.00    -0.481 OA
ATOM      5  H   UNL     1      10.439   2.093  -0.848  1.00  0.00     0.296 HD
ENDBRANCH   2   4
ENDBRANCH   1   2
BRANCH   1   6
ATOM      6  C   UNL     1       7.128  -0.592  -1.409  1.00  0.00     0.047 C 
BRANCH   6   7
ATOM      7  C   UNL     1       6.346   0.117  -0.399  1.00  0.00    -0.047 A 
ATOM      8  C   UNL     1       6.137  -0.434   0.844  1.00  0.00     0.004 A 
ATOM      9  C   UNL     1       5.820   1.352  -0.702  1.00  0.00     0.004 A 
ATOM     10  C   UNL     1       5.381   0.300   1.760  1.00  0.00     0.000 A 
ATOM     11  C   UNL     1       5.072   2.076   0.205  1.00  0.00     0.000 A 
ATOM     12  C   UNL     1       4.857   1.530   1.452  1.00  0.00     0.000 A 
ENDBRANCH   6   7
ENDBRANCH   1   6
TORSDOF 4
ENDMDL
MODEL 5
REMARK VINA RESULT:      -6.5      1.881      2.814
REMARK SMILES O=C(O)CCc1ccccc1
REMARK SMILES IDX 4 1 2 2 1 3 3 4 5 6 6 7 7 8 11 9 8 10 10 11 9 12
REMARK H PARENT 3 5
REMARK Flexibility Score: inf
ROOT
ATOM      1  C   UNL     1       8.278  -1.554   1.018  1.00  0.00     0.127 C 
ENDROOT
BRANCH   1   2
ATOM      2  C   UNL     1       8.537  -2.803   0.265  1.00  0.00     0.303 C 
ATOM      3  O   UNL     1       9.162  -3.760   0.786  1.00  0.00    -0.252 OA
BRANCH   2   4
ATOM      4  O   UNL     1       8.094  -2.951  -1.040  1.00  0.00    -0.481 OA
ATOM      5  H   UNL     1       8.769  -2.888  -1.808  1.00  0.00     0.296 HD
ENDBRANCH   2   4
ENDBRANCH   1   2
BRANCH   1   6
ATOM      6  C   UNL     1       6.799  -1.424   1.221  1.00  0.00     0.047 C 
BRANCH   6   7
ATOM      7  C   UNL     1       6.233  -0.183   0.696  1.00  0.00    -0.047 A 
ATOM      8  C   UNL     1       6.467   0.202  -0.604  1.00  0.00     0.004 A 
ATOM      9  C   UNL     1       5.458   0.602   1.518  1.00  0.00     0.004 A 
ATOM     10  C   UNL     1       5.894   1.400  -1.039  1.00  0.00     0.000 A 
ATOM     11  C   UNL     1       4.893   1.786   1.087  1.00  0.00     0.000 A 
ATOM     12  C   UNL     1       5.122   2.179  -0.214  1.00  0.00     0.000 A 
ENDBRANCH   6   7
ENDBRANCH   1   6
TORSDOF 4
ENDMDL
