@<TRIPOS>MOLECULE
/home/cewinharhar/GITHUB/reincatalyze/data/processed/docking_pred/2023_Apr_20-15:07/eb9358f7bad4db9539b7d0967c6d7dee777b6146_ligand_2.pdbqt
 12 12 0 0 0
SMALL
GASTEIGER

@<TRIPOS>ATOM
      1  C          4.9970    1.7740    0.6840 C.3     1  UNL1        0.1270
      2  C          4.4890    1.1050    1.9050 C.2     1  UNL1        0.3030
      3  O          5.1500    0.2030    2.4760 O.2     1  UNL1       -0.2520
      4  O          3.2650    1.4570    2.4500 O.3     1  UNL1       -0.4810
      5  H          2.4070    1.2620    1.9260 H       1  UNL1        0.2960
      6  C          6.4940    1.7890    0.7450 C.3     1  UNL1        0.0470
      7  C          7.1410    1.0470   -0.3350 C.2     1  UNL1       -0.0470
      8  C          8.4680    1.2510   -0.6330 C.2     1  UNL1        0.0040
      9  C          6.4060    0.1340   -1.0560 C.2     1  UNL1        0.0040
     10  C          9.0210    0.5060   -1.6770 C.2     1  UNL1        0.0000
     11  C          6.9540   -0.6020   -2.0880 C.2     1  UNL1        0.0000
     12  C          8.2830   -0.4030   -2.3930 C.2     1  UNL1        0.0000
@<TRIPOS>BOND
     1    12    11    2
     2    12    10    1
     3    11     9    1
     4    10     8    2
     5     9     7    2
     6     8     7    1
     7     7     6    1
     8     1     6    1
     9     1     2    1
    10     2     4    1
    11     2     3    2
    12     5     4    1
