@<TRIPOS>MOLECULE
/home/cewinharhar/GITHUB/reincatalyze/data/processed/docking_pred/2023_Apr_20-15:07/eb9358f7bad4db9539b7d0967c6d7dee777b6146_ligand_2.pdbqt
 12 12 0 0 0
SMALL
GASTEIGER

@<TRIPOS>ATOM
      1  C          8.4700   -0.6340   -2.0920 C.3     1  UNL1        0.1270
      2  C          8.4040   -1.8920   -2.8720 C.2     1  UNL1        0.3030
      3  O          7.3030   -2.3970   -3.2020 O.2     1  UNL1       -0.2520
      4  O          9.5620   -2.5480   -3.2610 O.3     1  UNL1       -0.4810
      5  H          9.5500   -3.1270   -4.1050 H       1  UNL1        0.2960
      6  C          7.1050   -0.0170   -2.0770 C.3     1  UNL1        0.0470
      7  C          6.5190    0.0990   -0.7430 C.2     1  UNL1       -0.0470
      8  C          6.6320   -0.9270    0.1670 C.2     1  UNL1        0.0040
      9  C          5.8500    1.2520   -0.4020 C.2     1  UNL1        0.0040
     10  C          6.0480   -0.7460    1.4230 C.2     1  UNL1        0.0000
     11  C          5.2740    1.4280    0.8400 C.2     1  UNL1        0.0000
     12  C          5.3820    0.4050    1.7570 C.2     1  UNL1        0.0000
@<TRIPOS>BOND
     1     5     4    1
     2     4     2    1
     3     3     2    2
     4     2     1    1
     5     1     6    1
     6     6     7    1
     7     7     9    2
     8     7     8    1
     9     9    11    1
    10     8    10    2
    11    11    12    2
    12    10    12    1
