@<TRIPOS>MOLECULE
/home/cewinharhar/GITHUB/reincatalyze/data/processed/docking_pred/2023_Apr_20-15:07/eb9358f7bad4db9539b7d0967c6d7dee777b6146_ligand_2.pdbqt
 12 12 0 0 0
SMALL
GASTEIGER

@<TRIPOS>ATOM
      1  C          8.2780   -1.5540    1.0180 C.3     1  UNL1        0.1270
      2  C          8.5370   -2.8030    0.2650 C.2     1  UNL1        0.3030
      3  O          9.1620   -3.7600    0.7860 O.2     1  UNL1       -0.2520
      4  O          8.0940   -2.9510   -1.0400 O.3     1  UNL1       -0.4810
      5  H          8.7690   -2.8880   -1.8080 H       1  UNL1        0.2960
      6  C          6.7990   -1.4240    1.2210 C.3     1  UNL1        0.0470
      7  C          6.2330   -0.1830    0.6960 C.2     1  UNL1       -0.0470
      8  C          6.4670    0.2020   -0.6040 C.2     1  UNL1        0.0040
      9  C          5.4580    0.6020    1.5180 C.2     1  UNL1        0.0040
     10  C          5.8940    1.4000   -1.0390 C.2     1  UNL1        0.0000
     11  C          4.8930    1.7860    1.0870 C.2     1  UNL1        0.0000
     12  C          5.1220    2.1790   -0.2140 C.2     1  UNL1        0.0000
@<TRIPOS>BOND
     1     5     4    1
     2     4     2    1
     3    10     8    1
     4    10    12    2
     5     8     7    2
     6    12    11    1
     7     2     3    2
     8     2     1    1
     9     7     6    1
    10     7     9    1
    11     1     6    1
    12    11     9    2
