@<TRIPOS>MOLECULE
/home/cewinharhar/GITHUB/reincatalyze/data/processed/docking_pred/2023_Apr_20-15:07/eb9358f7bad4db9539b7d0967c6d7dee777b6146_ligand_2.pdbqt
 12 12 0 0 0
SMALL
GASTEIGER

@<TRIPOS>ATOM
      1  C          8.4270   -0.6360   -2.1320 C.3     1  UNL1        0.1270
      2  C          8.4740   -1.9020   -2.9020 C.2     1  UNL1        0.3030
      3  O          9.5580   -2.5040   -3.0990 O.2     1  UNL1       -0.2520
      4  O          7.3170   -2.4560   -3.4270 O.3     1  UNL1       -0.4810
      5  H          7.1680   -3.4660   -3.3530 H       1  UNL1        0.2960
      6  C          7.0100   -0.1480   -2.1140 C.3     1  UNL1        0.0470
      7  C          6.4660    0.0480   -0.7710 C.2     1  UNL1       -0.0470
      8  C          5.8350    1.2220   -0.4320 C.2     1  UNL1        0.0040
      9  C          6.5890   -0.9610    0.1570 C.2     1  UNL1        0.0040
     10  C          5.3390    1.3390    0.8680 C.2     1  UNL1        0.0000
     11  C          6.0980   -0.8430    1.4420 C.2     1  UNL1        0.0000
     12  C          5.4650    0.3300    1.7900 C.2     1  UNL1        0.0000
@<TRIPOS>BOND
     1     4     5    1
     2     4     2    1
     3     3     2    2
     4     2     1    1
     5     1     6    1
     6     6     7    1
     7     7     8    2
     8     7     9    1
     9     8    10    1
    10     9    11    2
    11    10    12    2
    12    11    12    1
