@<TRIPOS>MOLECULE
/home/cewinharhar/GITHUB/reincatalyze/data/processed/docking_pred/2023_Apr_20-15:07/eb9358f7bad4db9539b7d0967c6d7dee777b6146_ligand_2.pdbqt
 12 12 0 0 0
SMALL
GASTEIGER

@<TRIPOS>ATOM
      1  C          8.1570    0.2570   -2.0920 C.3     1  UNL1        0.1270
      2  C          9.3420    0.3550   -1.2070 C.2     1  UNL1        0.3030
      3  O          9.4710   -0.3940   -0.2070 O.2     1  UNL1       -0.2520
      4  O         10.3430    1.2790   -1.4600 O.3     1  UNL1       -0.4810
      5  H         10.4390    2.0930   -0.8480 H       1  UNL1        0.2960
      6  C          7.1280   -0.5920   -1.4090 C.3     1  UNL1        0.0470
      7  C          6.3460    0.1170   -0.3990 C.2     1  UNL1       -0.0470
      8  C          6.1370   -0.4340    0.8440 C.2     1  UNL1        0.0040
      9  C          5.8200    1.3520   -0.7020 C.2     1  UNL1        0.0040
     10  C          5.3810    0.3000    1.7600 C.2     1  UNL1        0.0000
     11  C          5.0720    2.0760    0.2050 C.2     1  UNL1        0.0000
     12  C          4.8570    1.5300    1.4520 C.2     1  UNL1        0.0000
@<TRIPOS>BOND
     1     1     6    1
     2     1     2    1
     3     4     2    1
     4     4     5    1
     5     6     7    1
     6     2     3    2
     7     9     7    2
     8     9    11    1
     9     7     8    1
    10    11    12    2
    11     8    10    2
    12    12    10    1
