@<TRIPOS>MOLECULE
/home/cewinharhar/GITHUB/reincatalyze/data/processed/docking_pred/2023_Apr_20-15:07/f15420a79f585431148ea344134f913ab78e73cd_ligand_2.pdbqt
 12 12 0 0 0
SMALL
GASTEIGER

@<TRIPOS>ATOM
      1  C          5.3880    2.9220    0.0420 C.3     1  UNL1        0.1270
      2  C          6.2230    3.8860    0.7960 C.2     1  UNL1        0.3030
      3  O          6.8930    4.7690    0.2050 O.2     1  UNL1       -0.2520
      4  O          6.2880    3.8390    2.1790 O.3     1  UNL1       -0.4810
      5  H          5.6450    3.2270    2.6900 H       1  UNL1        0.2960
      6  C          4.9470    1.8430    0.9830 C.3     1  UNL1        0.0470
      7  C          5.7300    0.6120    0.8860 C.2     1  UNL1       -0.0470
      8  C          5.8500   -0.2330    1.9640 C.2     1  UNL1        0.0040
      9  C          6.3490    0.3030   -0.3040 C.2     1  UNL1        0.0040
     10  C          6.6120   -1.3910    1.7990 C.2     1  UNL1        0.0000
     11  C          7.1030   -0.8430   -0.4660 C.2     1  UNL1        0.0000
     12  C          7.2280   -1.6940    0.6100 C.2     1  UNL1        0.0000
@<TRIPOS>BOND
     1    11     9    1
     2    11    12    2
     3     9     7    2
     4     1     2    1
     5     1     6    1
     6     3     2    2
     7    12    10    1
     8     2     4    1
     9     7     6    1
    10     7     8    1
    11    10     8    2
    12     4     5    1
