@<TRIPOS>MOLECULE
/home/cewinharhar/GITHUB/reincatalyze/data/processed/docking_pred/2023_Apr_20-15:07/f15420a79f585431148ea344134f913ab78e73cd_ligand_2.pdbqt
 12 12 0 0 0
SMALL
GASTEIGER

@<TRIPOS>ATOM
      1  C          8.4310   -0.5910   -2.1930 C.3     1  UNL1        0.1270
      2  C          8.4680   -1.8850   -2.9130 C.2     1  UNL1        0.3030
      3  O          9.5500   -2.4950   -3.1010 O.2     1  UNL1       -0.2520
      4  O          7.3060   -2.4590   -3.4020 O.3     1  UNL1       -0.4810
      5  H          6.7920   -1.9900   -4.1530 H       1  UNL1        0.2960
      6  C          7.0100   -0.1200   -2.1440 C.3     1  UNL1        0.0470
      7  C          6.4800    0.0320   -0.7900 C.2     1  UNL1       -0.0470
      8  C          6.6040   -0.9820    0.1310 C.2     1  UNL1        0.0040
      9  C          5.8530    1.2060   -0.4420 C.2     1  UNL1        0.0040
     10  C          6.0750   -0.7680    1.4060 C.2     1  UNL1        0.0000
     11  C          5.3300    1.4160    0.8180 C.2     1  UNL1        0.0000
     12  C          5.4500    0.4050    1.7470 C.2     1  UNL1        0.0000
@<TRIPOS>BOND
     1     5     4    1
     2     4     2    1
     3     3     2    2
     4     2     1    1
     5     1     6    1
     6     6     7    1
     7     7     9    2
     8     7     8    1
     9     9    11    1
    10     8    10    2
    11    11    12    2
    12    10    12    1
