@<TRIPOS>MOLECULE
/home/cewinharhar/GITHUB/reincatalyze/data/processed/docking_pred/2023_Apr_20-15:07/f15420a79f585431148ea344134f913ab78e73cd_ligand_2.pdbqt
 12 12 0 0 0
SMALL
GASTEIGER

@<TRIPOS>ATOM
      1  C          8.4670   -0.6060   -2.1820 C.3     1  UNL1        0.1270
      2  C          8.4920   -1.8920   -2.9170 C.2     1  UNL1        0.3030
      3  O          9.5670   -2.5140   -3.1050 O.2     1  UNL1       -0.2520
      4  O          7.3250   -2.4460   -3.4190 O.3     1  UNL1       -0.4810
      5  H          7.2940   -2.7460   -4.3970 H       1  UNL1        0.2960
      6  C          7.0550   -0.1040   -2.1590 C.3     1  UNL1        0.0470
      7  C          6.5060    0.0630   -0.8140 C.2     1  UNL1       -0.0470
      8  C          5.8620    1.2250   -0.4580 C.2     1  UNL1        0.0040
      9  C          6.6370   -0.9590    0.0970 C.2     1  UNL1        0.0040
     10  C          5.3610    1.3150    0.8430 C.2     1  UNL1        0.0000
     11  C          6.1420   -0.8680    1.3820 C.2     1  UNL1        0.0000
     12  C          5.4960    0.2930    1.7480 C.2     1  UNL1        0.0000
@<TRIPOS>BOND
     1     5     4    1
     2     4     2    1
     3     3     2    2
     4     2     1    1
     5     1     6    1
     6     6     7    1
     7     7     8    2
     8     7     9    1
     9     8    10    1
    10     9    11    2
    11    10    12    2
    12    11    12    1
