@<TRIPOS>MOLECULE
/home/cewinharhar/GITHUB/reincatalyze/data/processed/docking_pred/2023_Apr_20-15:07/f15420a79f585431148ea344134f913ab78e73cd_ligand_2.pdbqt
 12 12 0 0 0
SMALL
GASTEIGER

@<TRIPOS>ATOM
      1  C          5.0060    1.8060    0.7120 C.3     1  UNL1        0.1270
      2  C          4.4870    1.1160    1.9170 C.2     1  UNL1        0.3030
      3  O          5.1450    0.2070    2.4800 O.2     1  UNL1       -0.2520
      4  O          3.2570    1.4570    2.4560 O.3     1  UNL1       -0.4810
      5  H          2.7760    0.7910    3.0670 H       1  UNL1        0.2960
      6  C          6.5030    1.7760    0.7600 C.3     1  UNL1        0.0470
      7  C          7.1170    1.0210   -0.3310 C.2     1  UNL1       -0.0470
      8  C          6.3850    0.1080   -1.0540 C.2     1  UNL1        0.0040
      9  C          8.4430    1.2350   -0.6310 C.2     1  UNL1        0.0040
     10  C          7.0370   -0.5760   -2.0830 C.2     1  UNL1        0.0000
     11  C          9.0850    0.5570   -1.6490 C.2     1  UNL1        0.0000
     12  C          8.3590   -0.3590   -2.3780 C.2     1  UNL1        0.0000
@<TRIPOS>BOND
     1    12    10    2
     2    12    11    1
     3    10     8    1
     4    11     9    2
     5     8     7    2
     6     9     7    1
     7     7     6    1
     8     1     6    1
     9     1     2    1
    10     2     4    1
    11     2     3    2
    12     4     5    1
