@<TRIPOS>MOLECULE
/home/cewinharhar/GITHUB/reincatalyze/data/processed/docking_pred/2023_Apr_20-15:07/f15420a79f585431148ea344134f913ab78e73cd_ligand_2.pdbqt
 12 12 0 0 0
SMALL
GASTEIGER

@<TRIPOS>ATOM
      1  C          8.2410    0.2410   -2.2540 C.3     1  UNL1        0.1270
      2  C          9.3590    0.3390   -1.2850 C.2     1  UNL1        0.3030
      3  O          9.4220   -0.4200   -0.2860 O.2     1  UNL1       -0.2520
      4  O         10.3670    1.2740   -1.4560 O.3     1  UNL1       -0.4810
      5  H         10.2760    2.1940   -1.0170 H       1  UNL1        0.2960
      6  C          7.1060   -0.4780   -1.5920 C.3     1  UNL1        0.0470
      7  C          6.3260    0.3550   -0.6790 C.2     1  UNL1       -0.0470
      8  C          5.8100    1.5610   -1.0940 C.2     1  UNL1        0.0040
      9  C          6.1080   -0.0810    0.6080 C.2     1  UNL1        0.0040
     10  C          5.0740    2.3040   -0.1680 C.2     1  UNL1        0.0000
     11  C          5.3800    0.6550    1.5210 C.2     1  UNL1        0.0000
     12  C          4.8600    1.8640    1.1140 C.2     1  UNL1        0.0000
@<TRIPOS>BOND
     1     1     6    1
     2     1     2    1
     3     6     7    1
     4     4     2    1
     5     4     5    1
     6     2     3    2
     7     8     7    2
     8     8    10    1
     9     7     9    1
    10    10    12    2
    11     9    11    2
    12    12    11    1
