MODEL 1
REMARK VINA RESULT:      -7.4      0.000      0.000
REMARK SMILES O=C(O)CCc1ccccc1
REMARK SMILES IDX 4 1 2 2 1 3 3 4 5 6 6 7 7 8 11 9 8 10 10 11 9 12
REMARK H PARENT 3 5
REMARK Flexibility Score: inf
ROOT
ATOM      1  C   UNL     1       8.431  -0.591  -2.193  1.00  0.00     0.127 C 
ENDROOT
BRANCH   1   2
ATOM      2  C   UNL     1       8.468  -1.885  -2.913  1.00  0.00     0.303 C 
ATOM      3  O   UNL     1       9.550  -2.495  -3.101  1.00  0.00    -0.252 OA
BRANCH   2   4
ATOM      4  O   UNL     1       7.306  -2.459  -3.402  1.00  0.00    -0.481 OA
ATOM      5  H   UNL     1       6.792  -1.990  -4.153  1.00  0.00     0.296 HD
ENDBRANCH   2   4
ENDBRANCH   1   2
BRANCH   1   6
ATOM      6  C   UNL     1       7.010  -0.120  -2.144  1.00  0.00     0.047 C 
BRANCH   6   7
ATOM      7  C   UNL     1       6.480   0.032  -0.790  1.00  0.00    -0.047 A 
ATOM      8  C   UNL     1       6.604  -0.982   0.131  1.00  0.00     0.004 A 
ATOM      9  C   UNL     1       5.853   1.206  -0.442  1.00  0.00     0.004 A 
ATOM     10  C   UNL     1       6.075  -0.768   1.406  1.00  0.00     0.000 A 
ATOM     11  C   UNL     1       5.330   1.416   0.818  1.00  0.00     0.000 A 
ATOM     12  C   UNL     1       5.450   0.405   1.747  1.00  0.00     0.000 A 
ENDBRANCH   6   7
ENDBRANCH   1   6
TORSDOF 4
ENDMDL
MODEL 2
REMARK VINA RESULT:      -7.3      0.070      1.438
REMARK SMILES O=C(O)CCc1ccccc1
REMARK SMILES IDX 4 1 2 2 1 3 3 4 5 6 6 7 7 8 11 9 8 10 10 11 9 12
REMARK H PARENT 3 5
REMARK Flexibility Score: inf
ROOT
ATOM      1  C   UNL     1       8.467  -0.606  -2.182  1.00  0.00     0.127 C 
ENDROOT
BRANCH   1   2
ATOM      2  C   UNL     1       8.492  -1.892  -2.917  1.00  0.00     0.303 C 
ATOM      3  O   UNL     1       9.567  -2.514  -3.105  1.00  0.00    -0.252 OA
BRANCH   2   4
ATOM      4  O   UNL     1       7.325  -2.446  -3.419  1.00  0.00    -0.481 OA
ATOM      5  H   UNL     1       7.294  -2.746  -4.397  1.00  0.00     0.296 HD
ENDBRANCH   2   4
ENDBRANCH   1   2
BRANCH   1   6
ATOM      6  C   UNL     1       7.055  -0.104  -2.159  1.00  0.00     0.047 C 
BRANCH   6   7
ATOM      7  C   UNL     1       6.506   0.063  -0.814  1.00  0.00    -0.047 A 
ATOM      8  C   UNL     1       5.862   1.225  -0.458  1.00  0.00     0.004 A 
ATOM      9  C   UNL     1       6.637  -0.959   0.097  1.00  0.00     0.004 A 
ATOM     10  C   UNL     1       5.361   1.315   0.843  1.00  0.00     0.000 A 
ATOM     11  C   UNL     1       6.142  -0.868   1.382  1.00  0.00     0.000 A 
ATOM     12  C   UNL     1       5.496   0.293   1.748  1.00  0.00     0.000 A 
ENDBRANCH   6   7
ENDBRANCH   1   6
TORSDOF 4
ENDMDL
MODEL 3
REMARK VINA RESULT:      -6.8      3.371      5.058
REMARK SMILES O=C(O)CCc1ccccc1
REMARK SMILES IDX 4 1 2 2 1 3 3 4 5 6 6 7 7 8 11 9 8 10 10 11 9 12
REMARK H PARENT 3 5
REMARK Flexibility Score: inf
ROOT
ATOM      1  C   UNL     1       5.006   1.806   0.712  1.00  0.00     0.127 C 
ENDROOT
BRANCH   1   2
ATOM      2  C   UNL     1       4.487   1.116   1.917  1.00  0.00     0.303 C 
ATOM      3  O   UNL     1       5.145   0.207   2.480  1.00  0.00    -0.252 OA
BRANCH   2   4
ATOM      4  O   UNL     1       3.257   1.457   2.456  1.00  0.00    -0.481 OA
ATOM      5  H   UNL     1       2.776   0.791   3.067  1.00  0.00     0.296 HD
ENDBRANCH   2   4
ENDBRANCH   1   2
BRANCH   1   6
ATOM      6  C   UNL     1       6.503   1.776   0.760  1.00  0.00     0.047 C 
BRANCH   6   7
ATOM      7  C   UNL     1       7.117   1.021  -0.331  1.00  0.00    -0.047 A 
ATOM      8  C   UNL     1       6.385   0.108  -1.054  1.00  0.00     0.004 A 
ATOM      9  C   UNL     1       8.443   1.235  -0.631  1.00  0.00     0.004 A 
ATOM     10  C   UNL     1       7.037  -0.576  -2.083  1.00  0.00     0.000 A 
ATOM     11  C   UNL     1       9.085   0.557  -1.649  1.00  0.00     0.000 A 
ATOM     12  C   UNL     1       8.359  -0.359  -2.378  1.00  0.00     0.000 A 
ENDBRANCH   6   7
ENDBRANCH   1   6
TORSDOF 4
ENDMDL
MODEL 4
REMARK VINA RESULT:      -6.7      3.777      4.937
REMARK SMILES O=C(O)CCc1ccccc1
REMARK SMILES IDX 4 1 2 2 1 3 3 4 5 6 6 7 7 8 11 9 8 10 10 11 9 12
REMARK H PARENT 3 5
REMARK Flexibility Score: inf
ROOT
ATOM      1  C   UNL     1       5.388   2.922   0.042  1.00  0.00     0.127 C 
ENDROOT
BRANCH   1   2
ATOM      2  C   UNL     1       6.223   3.886   0.796  1.00  0.00     0.303 C 
ATOM      3  O   UNL     1       6.893   4.769   0.205  1.00  0.00    -0.252 OA
BRANCH   2   4
ATOM      4  O   UNL     1       6.288   3.839   2.179  1.00  0.00    -0.481 OA
ATOM      5  H   UNL     1       5.645   3.227   2.690  1.00  0.00     0.296 HD
ENDBRANCH   2   4
ENDBRANCH   1   2
BRANCH   1   6
ATOM      6  C   UNL     1       4.947   1.843   0.983  1.00  0.00     0.047 C 
BRANCH   6   7
ATOM      7  C   UNL     1       5.730   0.612   0.886  1.00  0.00    -0.047 A 
ATOM      8  C   UNL     1       5.850  -0.233   1.964  1.00  0.00     0.004 A 
ATOM      9  C   UNL     1       6.349   0.303  -0.304  1.00  0.00     0.004 A 
ATOM     10  C   UNL     1       6.612  -1.391   1.799  1.00  0.00     0.000 A 
ATOM     11  C   UNL     1       7.103  -0.843  -0.466  1.00  0.00     0.000 A 
ATOM     12  C   UNL     1       7.228  -1.694   0.610  1.00  0.00     0.000 A 
ENDBRANCH   6   7
ENDBRANCH   1   6
TORSDOF 4
ENDMDL
MODEL 5
REMARK VINA RESULT:      -6.6      1.919      2.652
REMARK SMILES O=C(O)CCc1ccccc1
REMARK SMILES IDX 4 1 2 2 1 3 3 4 5 6 6 7 7 8 11 9 8 10 10 11 9 12
REMARK H PARENT 3 5
REMARK Flexibility Score: inf
ROOT
ATOM      1  C   UNL     1       8.241   0.241  -2.254  1.00  0.00     0.127 C 
ENDROOT
BRANCH   1   2
ATOM      2  C   UNL     1       9.359   0.339  -1.285  1.00  0.00     0.303 C 
ATOM      3  O   UNL     1       9.422  -0.420  -0.286  1.00  0.00    -0.252 OA
BRANCH   2   4
ATOM      4  O   UNL     1      10.367   1.274  -1.456  1.00  0.00    -0.481 OA
ATOM      5  H   UNL     1      10.276   2.194  -1.017  1.00  0.00     0.296 HD
ENDBRANCH   2   4
ENDBRANCH   1   2
BRANCH   1   6
ATOM      6  C   UNL     1       7.106  -0.478  -1.592  1.00  0.00     0.047 C 
BRANCH   6   7
ATOM      7  C   UNL     1       6.326   0.355  -0.679  1.00  0.00    -0.047 A 
ATOM      8  C   UNL     1       5.810   1.561  -1.094  1.00  0.00     0.004 A 
ATOM      9  C   UNL     1       6.108  -0.081   0.608  1.00  0.00     0.004 A 
ATOM     10  C   UNL     1       5.074   2.304  -0.168  1.00  0.00     0.000 A 
ATOM     11  C   UNL     1       5.380   0.655   1.521  1.00  0.00     0.000 A 
ATOM     12  C   UNL     1       4.860   1.864   1.114  1.00  0.00     0.000 A 
ENDBRANCH   6   7
ENDBRANCH   1   6
TORSDOF 4
ENDMDL
