MODEL 1
REMARK VINA RESULT:      -7.2      0.000      0.000
REMARK SMILES O=C(O)CCc1ccccc1
REMARK SMILES IDX 4 1 2 2 1 3 3 4 5 6 6 7 7 8 11 9 8 10 10 11 9 12
REMARK H PARENT 3 5
REMARK Flexibility Score: inf
ROOT
ATOM      1  C   UNL     1       8.414  -0.745  -1.955  1.00  0.00     0.127 C 
ENDROOT
BRANCH   1   2
ATOM      2  C   UNL     1       8.372  -1.928  -2.847  1.00  0.00     0.303 C 
ATOM      3  O   UNL     1       7.281  -2.407  -3.242  1.00  0.00    -0.252 OA
BRANCH   2   4
ATOM      4  O   UNL     1       9.542  -2.539  -3.269  1.00  0.00    -0.481 OA
ATOM      5  H   UNL     1       9.635  -3.555  -3.182  1.00  0.00     0.296 HD
ENDBRANCH   2   4
ENDBRANCH   1   2
BRANCH   1   6
ATOM      6  C   UNL     1       7.078  -0.069  -2.008  1.00  0.00     0.047 C 
BRANCH   6   7
ATOM      7  C   UNL     1       6.461   0.133  -0.698  1.00  0.00    -0.047 A 
ATOM      8  C   UNL     1       5.776   1.292  -0.413  1.00  0.00     0.004 A 
ATOM      9  C   UNL     1       6.570  -0.854   0.254  1.00  0.00     0.004 A 
ATOM     10  C   UNL     1       5.212   1.416   0.858  1.00  0.00     0.000 A 
ATOM     11  C   UNL     1       6.012  -0.730   1.511  1.00  0.00     0.000 A 
ATOM     12  C   UNL     1       5.325   0.428   1.804  1.00  0.00     0.000 A 
ENDBRANCH   6   7
ENDBRANCH   1   6
TORSDOF 4
ENDMDL
MODEL 2
REMARK VINA RESULT:      -7.2      0.093      1.439
REMARK SMILES O=C(O)CCc1ccccc1
REMARK SMILES IDX 4 1 2 2 1 3 3 4 5 6 6 7 7 8 11 9 8 10 10 11 9 12
REMARK H PARENT 3 5
REMARK Flexibility Score: inf
ROOT
ATOM      1  C   UNL     1       8.448  -0.663  -2.097  1.00  0.00     0.127 C 
ENDROOT
BRANCH   1   2
ATOM      2  C   UNL     1       8.388  -1.920  -2.879  1.00  0.00     0.303 C 
ATOM      3  O   UNL     1       7.291  -2.402  -3.253  1.00  0.00    -0.252 OA
BRANCH   2   4
ATOM      4  O   UNL     1       9.547  -2.599  -3.221  1.00  0.00    -0.481 OA
ATOM      5  H   UNL     1       9.476  -3.528  -3.647  1.00  0.00     0.296 HD
ENDBRANCH   2   4
ENDBRANCH   1   2
BRANCH   1   6
ATOM      6  C   UNL     1       7.078  -0.058  -2.072  1.00  0.00     0.047 C 
BRANCH   6   7
ATOM      7  C   UNL     1       6.506   0.065  -0.732  1.00  0.00    -0.047 A 
ATOM      8  C   UNL     1       6.636  -0.953   0.184  1.00  0.00     0.004 A 
ATOM      9  C   UNL     1       5.833   1.216  -0.393  1.00  0.00     0.004 A 
ATOM     10  C   UNL     1       6.065  -0.766   1.445  1.00  0.00     0.000 A 
ATOM     11  C   UNL     1       5.269   1.398   0.855  1.00  0.00     0.000 A 
ATOM     12  C   UNL     1       5.395   0.383   1.778  1.00  0.00     0.000 A 
ENDBRANCH   6   7
ENDBRANCH   1   6
TORSDOF 4
ENDMDL
MODEL 3
REMARK VINA RESULT:      -7.1      0.650      1.438
REMARK SMILES O=C(O)CCc1ccccc1
REMARK SMILES IDX 4 1 2 2 1 3 3 4 5 6 6 7 7 8 11 9 8 10 10 11 9 12
REMARK H PARENT 3 5
REMARK Flexibility Score: inf
ROOT
ATOM      1  C   UNL     1       8.288  -1.048  -1.715  1.00  0.00     0.127 C 
ENDROOT
BRANCH   1   2
ATOM      2  C   UNL     1       8.399  -2.059  -2.793  1.00  0.00     0.303 C 
ATOM      3  O   UNL     1       9.512  -2.535  -3.126  1.00  0.00    -0.252 OA
BRANCH   2   4
ATOM      4  O   UNL     1       7.273  -2.507  -3.465  1.00  0.00    -0.481 OA
ATOM      5  H   UNL     1       6.641  -3.165  -3.001  1.00  0.00     0.296 HD
ENDBRANCH   2   4
ENDBRANCH   1   2
BRANCH   1   6
ATOM      6  C   UNL     1       7.164  -1.448  -0.809  1.00  0.00     0.047 C 
BRANCH   6   7
ATOM      7  C   UNL     1       6.437  -0.320  -0.229  1.00  0.00    -0.047 A 
ATOM      8  C   UNL     1       6.170   0.804  -0.976  1.00  0.00     0.004 A 
ATOM      9  C   UNL     1       6.018  -0.393   1.079  1.00  0.00     0.004 A 
ATOM     10  C   UNL     1       5.471   1.842  -0.358  1.00  0.00     0.000 A 
ATOM     11  C   UNL     1       5.327   0.636   1.689  1.00  0.00     0.000 A 
ATOM     12  C   UNL     1       5.056   1.765   0.948  1.00  0.00     0.000 A 
ENDBRANCH   6   7
ENDBRANCH   1   6
TORSDOF 4
ENDMDL
MODEL 4
REMARK VINA RESULT:      -6.7      3.309      5.157
REMARK SMILES O=C(O)CCc1ccccc1
REMARK SMILES IDX 4 1 2 2 1 3 3 4 5 6 6 7 7 8 11 9 8 10 10 11 9 12
REMARK H PARENT 3 5
REMARK Flexibility Score: inf
ROOT
ATOM      1  C   UNL     1       4.993   1.801   0.701  1.00  0.00     0.127 C 
ENDROOT
BRANCH   1   2
ATOM      2  C   UNL     1       4.487   1.116   1.914  1.00  0.00     0.303 C 
ATOM      3  O   UNL     1       5.154   0.214   2.479  1.00  0.00    -0.252 OA
BRANCH   2   4
ATOM      4  O   UNL     1       3.258   1.452   2.458  1.00  0.00    -0.481 OA
ATOM      5  H   UNL     1       2.799   0.800   3.100  1.00  0.00     0.296 HD
ENDBRANCH   2   4
ENDBRANCH   1   2
BRANCH   1   6
ATOM      6  C   UNL     1       6.491   1.793   0.747  1.00  0.00     0.047 C 
BRANCH   6   7
ATOM      7  C   UNL     1       7.115   1.040  -0.339  1.00  0.00    -0.047 A 
ATOM      8  C   UNL     1       6.382   0.148  -1.088  1.00  0.00     0.004 A 
ATOM      9  C   UNL     1       8.450   1.233  -0.610  1.00  0.00     0.004 A 
ATOM     10  C   UNL     1       7.043  -0.536  -2.111  1.00  0.00     0.000 A 
ATOM     11  C   UNL     1       9.102   0.556  -1.621  1.00  0.00     0.000 A 
ATOM     12  C   UNL     1       8.375  -0.340  -2.376  1.00  0.00     0.000 A 
ENDBRANCH   6   7
ENDBRANCH   1   6
TORSDOF 4
ENDMDL
MODEL 5
REMARK VINA RESULT:      -6.5      1.899      2.872
REMARK SMILES O=C(O)CCc1ccccc1
REMARK SMILES IDX 4 1 2 2 1 3 3 4 5 6 6 7 7 8 11 9 8 10 10 11 9 12
REMARK H PARENT 3 5
REMARK Flexibility Score: inf
ROOT
ATOM      1  C   UNL     1       8.212  -1.532   1.090  1.00  0.00     0.127 C 
ENDROOT
BRANCH   1   2
ATOM      2  C   UNL     1       8.492  -2.767   0.320  1.00  0.00     0.303 C 
ATOM      3  O   UNL     1       9.128  -3.722   0.831  1.00  0.00    -0.252 OA
BRANCH   2   4
ATOM      4  O   UNL     1       8.058  -2.901  -0.989  1.00  0.00    -0.481 OA
ATOM      5  H   UNL     1       8.750  -2.985  -1.739  1.00  0.00     0.296 HD
ENDBRANCH   2   4
ENDBRANCH   1   2
BRANCH   1   6
ATOM      6  C   UNL     1       6.728  -1.401   1.245  1.00  0.00     0.047 C 
BRANCH   6   7
ATOM      7  C   UNL     1       6.183  -0.152   0.715  1.00  0.00    -0.047 A 
ATOM      8  C   UNL     1       6.442   0.235  -0.580  1.00  0.00     0.004 A 
ATOM      9  C   UNL     1       5.401   0.637   1.526  1.00  0.00     0.004 A 
ATOM     10  C   UNL     1       5.888   1.439  -1.020  1.00  0.00     0.000 A 
ATOM     11  C   UNL     1       4.854   1.828   1.089  1.00  0.00     0.000 A 
ATOM     12  C   UNL     1       5.110   2.223  -0.206  1.00  0.00     0.000 A 
ENDBRANCH   6   7
ENDBRANCH   1   6
TORSDOF 4
ENDMDL
