@<TRIPOS>MOLECULE
/home/cewinharhar/GITHUB/reincatalyze/data/processed/docking_pred/2023_Apr_20-15:07/f32d20faebe3d2be17d1bcf3c85c7c889e58fe23_ligand_2.pdbqt
 12 12 0 0 0
SMALL
GASTEIGER

@<TRIPOS>ATOM
      1  C          4.9930    1.8010    0.7010 C.3     1  UNL1        0.1270
      2  C          4.4870    1.1160    1.9140 C.2     1  UNL1        0.3030
      3  O          5.1540    0.2140    2.4790 O.2     1  UNL1       -0.2520
      4  O          3.2580    1.4520    2.4580 O.3     1  UNL1       -0.4810
      5  H          2.7990    0.8000    3.1000 H       1  UNL1        0.2960
      6  C          6.4910    1.7930    0.7470 C.3     1  UNL1        0.0470
      7  C          7.1150    1.0400   -0.3390 C.2     1  UNL1       -0.0470
      8  C          6.3820    0.1480   -1.0880 C.2     1  UNL1        0.0040
      9  C          8.4500    1.2330   -0.6100 C.2     1  UNL1        0.0040
     10  C          7.0430   -0.5360   -2.1110 C.2     1  UNL1        0.0000
     11  C          9.1020    0.5560   -1.6210 C.2     1  UNL1        0.0000
     12  C          8.3750   -0.3400   -2.3760 C.2     1  UNL1        0.0000
@<TRIPOS>BOND
     1    12    10    2
     2    12    11    1
     3    10     8    1
     4    11     9    2
     5     8     7    2
     6     9     7    1
     7     7     6    1
     8     1     6    1
     9     1     2    1
    10     2     4    1
    11     2     3    2
    12     4     5    1
