@<TRIPOS>MOLECULE
/home/cewinharhar/GITHUB/reincatalyze/data/processed/docking_pred/2023_Apr_20-15:07/f32d20faebe3d2be17d1bcf3c85c7c889e58fe23_ligand_2.pdbqt
 12 12 0 0 0
SMALL
GASTEIGER

@<TRIPOS>ATOM
      1  C          8.2880   -1.0480   -1.7150 C.3     1  UNL1        0.1270
      2  C          8.3990   -2.0590   -2.7930 C.2     1  UNL1        0.3030
      3  O          9.5120   -2.5350   -3.1260 O.2     1  UNL1       -0.2520
      4  O          7.2730   -2.5070   -3.4650 O.3     1  UNL1       -0.4810
      5  H          6.6410   -3.1650   -3.0010 H       1  UNL1        0.2960
      6  C          7.1640   -1.4480   -0.8090 C.3     1  UNL1        0.0470
      7  C          6.4370   -0.3200   -0.2290 C.2     1  UNL1       -0.0470
      8  C          6.1700    0.8040   -0.9760 C.2     1  UNL1        0.0040
      9  C          6.0180   -0.3930    1.0790 C.2     1  UNL1        0.0040
     10  C          5.4710    1.8420   -0.3580 C.2     1  UNL1        0.0000
     11  C          5.3270    0.6360    1.6890 C.2     1  UNL1        0.0000
     12  C          5.0560    1.7650    0.9480 C.2     1  UNL1        0.0000
@<TRIPOS>BOND
     1     4     5    1
     2     4     2    1
     3     3     2    2
     4     2     1    1
     5     1     6    1
     6     8    10    1
     7     8     7    2
     8     6     7    1
     9    10    12    2
    10     7     9    1
    11    12    11    1
    12     9    11    2
