@<TRIPOS>MOLECULE
/home/cewinharhar/GITHUB/reincatalyze/data/processed/docking_pred/2023_Apr_20-15:07/f32d20faebe3d2be17d1bcf3c85c7c889e58fe23_ligand_2.pdbqt
 12 12 0 0 0
SMALL
GASTEIGER

@<TRIPOS>ATOM
      1  C          8.2120   -1.5320    1.0900 C.3     1  UNL1        0.1270
      2  C          8.4920   -2.7670    0.3200 C.2     1  UNL1        0.3030
      3  O          9.1280   -3.7220    0.8310 O.2     1  UNL1       -0.2520
      4  O          8.0580   -2.9010   -0.9890 O.3     1  UNL1       -0.4810
      5  H          8.7500   -2.9850   -1.7390 H       1  UNL1        0.2960
      6  C          6.7280   -1.4010    1.2450 C.3     1  UNL1        0.0470
      7  C          6.1830   -0.1520    0.7150 C.2     1  UNL1       -0.0470
      8  C          6.4420    0.2350   -0.5800 C.2     1  UNL1        0.0040
      9  C          5.4010    0.6370    1.5260 C.2     1  UNL1        0.0040
     10  C          5.8880    1.4390   -1.0200 C.2     1  UNL1        0.0000
     11  C          4.8540    1.8280    1.0890 C.2     1  UNL1        0.0000
     12  C          5.1100    2.2230   -0.2060 C.2     1  UNL1        0.0000
@<TRIPOS>BOND
     1     5     4    1
     2    10     8    1
     3    10    12    2
     4     4     2    1
     5     8     7    2
     6    12    11    1
     7     2     3    2
     8     2     1    1
     9     7     6    1
    10     7     9    1
    11    11     9    2
    12     1     6    1
