@<TRIPOS>MOLECULE
/home/cewinharhar/GITHUB/reincatalyze/data/processed/docking_pred/2023_Apr_20-15:07/f32d20faebe3d2be17d1bcf3c85c7c889e58fe23_ligand_2.pdbqt
 12 12 0 0 0
SMALL
GASTEIGER

@<TRIPOS>ATOM
      1  C          8.4480   -0.6630   -2.0970 C.3     1  UNL1        0.1270
      2  C          8.3880   -1.9200   -2.8790 C.2     1  UNL1        0.3030
      3  O          7.2910   -2.4020   -3.2530 O.2     1  UNL1       -0.2520
      4  O          9.5470   -2.5990   -3.2210 O.3     1  UNL1       -0.4810
      5  H          9.4760   -3.5280   -3.6470 H       1  UNL1        0.2960
      6  C          7.0780   -0.0580   -2.0720 C.3     1  UNL1        0.0470
      7  C          6.5060    0.0650   -0.7320 C.2     1  UNL1       -0.0470
      8  C          6.6360   -0.9530    0.1840 C.2     1  UNL1        0.0040
      9  C          5.8330    1.2160   -0.3930 C.2     1  UNL1        0.0040
     10  C          6.0650   -0.7660    1.4450 C.2     1  UNL1        0.0000
     11  C          5.2690    1.3980    0.8550 C.2     1  UNL1        0.0000
     12  C          5.3950    0.3830    1.7780 C.2     1  UNL1        0.0000
@<TRIPOS>BOND
     1     5     4    1
     2     3     2    2
     3     4     2    1
     4     2     1    1
     5     1     6    1
     6     6     7    1
     7     7     9    2
     8     7     8    1
     9     9    11    1
    10     8    10    2
    11    11    12    2
    12    10    12    1
