@<TRIPOS>MOLECULE
/home/cewinharhar/GITHUB/reincatalyze/data/processed/docking_pred/2023_Apr_20-15:07/f32d20faebe3d2be17d1bcf3c85c7c889e58fe23_ligand_2.pdbqt
 12 12 0 0 0
SMALL
GASTEIGER

@<TRIPOS>ATOM
      1  C          8.4140   -0.7450   -1.9550 C.3     1  UNL1        0.1270
      2  C          8.3720   -1.9280   -2.8470 C.2     1  UNL1        0.3030
      3  O          7.2810   -2.4070   -3.2420 O.2     1  UNL1       -0.2520
      4  O          9.5420   -2.5390   -3.2690 O.3     1  UNL1       -0.4810
      5  H          9.6350   -3.5550   -3.1820 H       1  UNL1        0.2960
      6  C          7.0780   -0.0690   -2.0080 C.3     1  UNL1        0.0470
      7  C          6.4610    0.1330   -0.6980 C.2     1  UNL1       -0.0470
      8  C          5.7760    1.2920   -0.4130 C.2     1  UNL1        0.0040
      9  C          6.5700   -0.8540    0.2540 C.2     1  UNL1        0.0040
     10  C          5.2120    1.4160    0.8580 C.2     1  UNL1        0.0000
     11  C          6.0120   -0.7300    1.5110 C.2     1  UNL1        0.0000
     12  C          5.3250    0.4280    1.8040 C.2     1  UNL1        0.0000
@<TRIPOS>BOND
     1     4     5    1
     2     4     2    1
     3     3     2    2
     4     2     1    1
     5     6     1    1
     6     6     7    1
     7     7     8    2
     8     7     9    1
     9     8    10    1
    10     9    11    2
    11    10    12    2
    12    11    12    1
