@<TRIPOS>MOLECULE
/home/cewinharhar/GITHUB/reincatalyze/data/processed/docking_pred/2023_Apr_20-15:07/f338baa35ded8d3cb3d8a5b9e0cebf8a24c11f6d_ligand_2.pdbqt
 12 12 0 0 0
SMALL
GASTEIGER

@<TRIPOS>ATOM
      1  C          7.4330   -0.2140    0.9300 C.3     1  UNL1        0.1270
      2  C          6.6210   -1.0940    1.8030 C.2     1  UNL1        0.3030
      3  O          6.0190   -0.6380    2.8060 O.2     1  UNL1       -0.2520
      4  O          6.5050   -2.4480    1.5350 O.3     1  UNL1       -0.4810
      5  H          5.6460   -2.8020    1.1040 H       1  UNL1        0.2960
      6  C          7.8700    0.9730    1.7330 C.3     1  UNL1        0.0470
      7  C          9.2930    0.9730    2.0680 C.2     1  UNL1       -0.0470
      8  C         10.1530    0.0710    1.4850 C.2     1  UNL1        0.0040
      9  C          9.7690    1.8900    2.9760 C.2     1  UNL1        0.0040
     10  C         11.4990    0.1290    1.8520 C.2     1  UNL1        0.0000
     11  C         11.1000    1.9460    3.3380 C.2     1  UNL1        0.0000
     12  C         11.9680    1.0460    2.7590 C.2     1  UNL1        0.0000
@<TRIPOS>BOND
     1     1     6    1
     2     1     2    1
     3     5     4    1
     4     8    10    1
     5     8     7    2
     6     4     2    1
     7     6     7    1
     8     2     3    2
     9    10    12    2
    10     7     9    1
    11    12    11    1
    12     9    11    2
