@<TRIPOS>MOLECULE
/home/cewinharhar/GITHUB/reincatalyze/data/processed/docking_pred/2023_Apr_20-15:07/f338baa35ded8d3cb3d8a5b9e0cebf8a24c11f6d_ligand_2.pdbqt
 12 12 0 0 0
SMALL
GASTEIGER

@<TRIPOS>ATOM
      1  C          4.9470    1.8480    0.7820 C.3     1  UNL1        0.1270
      2  C          4.4300    1.1130    1.9600 C.2     1  UNL1        0.3030
      3  O          5.0880    0.1810    2.4850 O.2     1  UNL1       -0.2520
      4  O          3.2030    1.4360    2.5160 O.3     1  UNL1       -0.4810
      5  H          2.8820    0.9340    3.3490 H       1  UNL1        0.2960
      6  C          6.4370    1.9420    0.9020 C.3     1  UNL1        0.0470
      7  C          7.1640    1.2620   -0.1690 C.2     1  UNL1       -0.0470
      8  C          8.5330    1.3590   -0.2610 C.2     1  UNL1        0.0040
      9  C          6.4630    0.5180   -1.0890 C.2     1  UNL1        0.0040
     10  C          9.1620    0.6820   -1.3080 C.2     1  UNL1        0.0000
     11  C          7.0860   -0.1500   -2.1240 C.2     1  UNL1        0.0000
     12  C          8.4570   -0.0580   -2.2240 C.2     1  UNL1        0.0000
@<TRIPOS>BOND
     1    12    11    2
     2    12    10    1
     3    11     9    1
     4    10     8    2
     5     9     7    2
     6     8     7    1
     7     7     6    1
     8     1     6    1
     9     1     2    1
    10     2     3    2
    11     2     4    1
    12     4     5    1
