@<TRIPOS>MOLECULE
/home/cewinharhar/GITHUB/reincatalyze/data/processed/docking_pred/2023_Apr_20-15:07/f338baa35ded8d3cb3d8a5b9e0cebf8a24c11f6d_ligand_2.pdbqt
 12 12 0 0 0
SMALL
GASTEIGER

@<TRIPOS>ATOM
      1  C          9.9890    1.8250    1.2670 C.3     1  UNL1        0.1270
      2  C         10.7720    0.7110    0.6830 C.2     1  UNL1        0.3030
      3  O         11.2410   -0.2030    1.4060 O.2     1  UNL1       -0.2520
      4  O         11.0100    0.6470   -0.6800 O.3     1  UNL1       -0.4810
      5  H         10.3860    0.0920   -1.2720 H       1  UNL1        0.2960
      6  C          8.7150    1.2650    1.8210 C.3     1  UNL1        0.0470
      7  C          7.5110    1.7380    1.1390 C.2     1  UNL1       -0.0470
      8  C          7.1540    3.0660    1.1820 C.2     1  UNL1        0.0040
      9  C          6.7350    0.8380    0.4460 C.2     1  UNL1        0.0040
     10  C          5.9920    3.4460    0.5060 C.2     1  UNL1        0.0000
     11  C          5.5870    1.2160   -0.2210 C.2     1  UNL1        0.0000
     12  C          5.2210    2.5440   -0.1820 C.2     1  UNL1        0.0000
@<TRIPOS>BOND
     1     5     4    1
     2     4     2    1
     3    11    12    2
     4    11     9    1
     5    12    10    1
     6     9     7    2
     7    10     8    2
     8     2     1    1
     9     2     3    2
    10     7     8    1
    11     7     6    1
    12     1     6    1
