MODEL 1
REMARK VINA RESULT:      -7.1      0.000      0.000
REMARK SMILES O=C(O)CCc1ccccc1
REMARK SMILES IDX 4 1 2 2 1 3 3 4 5 6 6 7 7 8 11 9 8 10 10 11 9 12
REMARK H PARENT 3 5
REMARK Flexibility Score: inf
ROOT
ATOM      1  C   UNL     1       8.475  -0.639  -2.125  1.00  0.00     0.127 C 
ENDROOT
BRANCH   1   2
ATOM      2  C   UNL     1       8.498  -1.904  -2.897  1.00  0.00     0.303 C 
ATOM      3  O   UNL     1       9.573  -2.517  -3.111  1.00  0.00    -0.252 OA
BRANCH   2   4
ATOM      4  O   UNL     1       7.329  -2.446  -3.408  1.00  0.00    -0.481 OA
ATOM      5  H   UNL     1       6.440  -1.967  -3.239  1.00  0.00     0.296 HD
ENDBRANCH   2   4
ENDBRANCH   1   2
BRANCH   1   6
ATOM      6  C   UNL     1       7.071  -0.116  -2.121  1.00  0.00     0.047 C 
BRANCH   6   7
ATOM      7  C   UNL     1       6.500   0.044  -0.785  1.00  0.00    -0.047 A 
ATOM      8  C   UNL     1       6.617  -0.954   0.155  1.00  0.00     0.004 A 
ATOM      9  C   UNL     1       5.842   1.211  -0.471  1.00  0.00     0.004 A 
ATOM     10  C   UNL     1       6.048  -0.732   1.411  1.00  0.00     0.000 A 
ATOM     11  C   UNL     1       5.280   1.429   0.771  1.00  0.00     0.000 A 
ATOM     12  C   UNL     1       5.392   0.434   1.717  1.00  0.00     0.000 A 
ENDBRANCH   6   7
ENDBRANCH   1   6
TORSDOF 4
ENDMDL
MODEL 2
REMARK VINA RESULT:      -6.7      1.357      1.962
REMARK SMILES O=C(O)CCc1ccccc1
REMARK SMILES IDX 4 1 2 2 1 3 3 4 5 6 6 7 7 8 11 9 8 10 10 11 9 12
REMARK H PARENT 3 5
REMARK Flexibility Score: inf
ROOT
ATOM      1  C   UNL     1       8.345  -0.628  -2.108  1.00  0.00     0.127 C 
ENDROOT
BRANCH   1   2
ATOM      2  C   UNL     1       8.349  -1.883  -2.897  1.00  0.00     0.303 C 
ATOM      3  O   UNL     1       7.277  -2.417  -3.275  1.00  0.00    -0.252 OA
BRANCH   2   4
ATOM      4  O   UNL     1       9.539  -2.503  -3.239  1.00  0.00    -0.481 OA
ATOM      5  H   UNL     1      10.400  -1.950  -3.273  1.00  0.00     0.296 HD
ENDBRANCH   2   4
ENDBRANCH   1   2
BRANCH   1   6
ATOM      6  C   UNL     1       6.948  -0.377  -1.629  1.00  0.00     0.047 C 
BRANCH   6   7
ATOM      7  C   UNL     1       6.815   0.803  -0.777  1.00  0.00    -0.047 A 
ATOM      8  C   UNL     1       7.914   1.352  -0.158  1.00  0.00     0.004 A 
ATOM      9  C   UNL     1       5.572   1.365  -0.598  1.00  0.00     0.004 A 
ATOM     10  C   UNL     1       7.713   2.479   0.641  1.00  0.00     0.000 A 
ATOM     11  C   UNL     1       5.375   2.480   0.193  1.00  0.00     0.000 A 
ATOM     12  C   UNL     1       6.471   3.036   0.816  1.00  0.00     0.000 A 
ENDBRANCH   6   7
ENDBRANCH   1   6
TORSDOF 4
ENDMDL
MODEL 3
REMARK VINA RESULT:      -6.4      3.421      5.109
REMARK SMILES O=C(O)CCc1ccccc1
REMARK SMILES IDX 4 1 2 2 1 3 3 4 5 6 6 7 7 8 11 9 8 10 10 11 9 12
REMARK H PARENT 3 5
REMARK Flexibility Score: inf
ROOT
ATOM      1  C   UNL     1       4.947   1.848   0.782  1.00  0.00     0.127 C 
ENDROOT
BRANCH   1   2
ATOM      2  C   UNL     1       4.430   1.113   1.960  1.00  0.00     0.303 C 
ATOM      3  O   UNL     1       5.088   0.181   2.485  1.00  0.00    -0.252 OA
BRANCH   2   4
ATOM      4  O   UNL     1       3.203   1.436   2.516  1.00  0.00    -0.481 OA
ATOM      5  H   UNL     1       2.882   0.934   3.349  1.00  0.00     0.296 HD
ENDBRANCH   2   4
ENDBRANCH   1   2
BRANCH   1   6
ATOM      6  C   UNL     1       6.437   1.942   0.902  1.00  0.00     0.047 C 
BRANCH   6   7
ATOM      7  C   UNL     1       7.164   1.262  -0.169  1.00  0.00    -0.047 A 
ATOM      8  C   UNL     1       8.533   1.359  -0.261  1.00  0.00     0.004 A 
ATOM      9  C   UNL     1       6.463   0.518  -1.089  1.00  0.00     0.004 A 
ATOM     10  C   UNL     1       9.162   0.682  -1.308  1.00  0.00     0.000 A 
ATOM     11  C   UNL     1       7.086  -0.150  -2.124  1.00  0.00     0.000 A 
ATOM     12  C   UNL     1       8.457  -0.058  -2.224  1.00  0.00     0.000 A 
ENDBRANCH   6   7
ENDBRANCH   1   6
TORSDOF 4
ENDMDL
MODEL 4
REMARK VINA RESULT:      -6.4      4.576      5.273
REMARK SMILES O=C(O)CCc1ccccc1
REMARK SMILES IDX 4 1 2 2 1 3 3 4 5 6 6 7 7 8 11 9 8 10 10 11 9 12
REMARK H PARENT 3 5
REMARK Flexibility Score: inf
ROOT
ATOM      1  C   UNL     1       7.433  -0.214   0.930  1.00  0.00     0.127 C 
ENDROOT
BRANCH   1   2
ATOM      2  C   UNL     1       6.621  -1.094   1.803  1.00  0.00     0.303 C 
ATOM      3  O   UNL     1       6.019  -0.638   2.806  1.00  0.00    -0.252 OA
BRANCH   2   4
ATOM      4  O   UNL     1       6.505  -2.448   1.535  1.00  0.00    -0.481 OA
ATOM      5  H   UNL     1       5.646  -2.802   1.104  1.00  0.00     0.296 HD
ENDBRANCH   2   4
ENDBRANCH   1   2
BRANCH   1   6
ATOM      6  C   UNL     1       7.870   0.973   1.733  1.00  0.00     0.047 C 
BRANCH   6   7
ATOM      7  C   UNL     1       9.293   0.973   2.068  1.00  0.00    -0.047 A 
ATOM      8  C   UNL     1      10.153   0.071   1.485  1.00  0.00     0.004 A 
ATOM      9  C   UNL     1       9.769   1.890   2.976  1.00  0.00     0.004 A 
ATOM     10  C   UNL     1      11.499   0.129   1.852  1.00  0.00     0.000 A 
ATOM     11  C   UNL     1      11.100   1.946   3.338  1.00  0.00     0.000 A 
ATOM     12  C   UNL     1      11.968   1.046   2.759  1.00  0.00     0.000 A 
ENDBRANCH   6   7
ENDBRANCH   1   6
TORSDOF 4
ENDMDL
MODEL 5
REMARK VINA RESULT:      -6.4      3.199      4.026
REMARK SMILES O=C(O)CCc1ccccc1
REMARK SMILES IDX 4 1 2 2 1 3 3 4 5 6 6 7 7 8 11 9 8 10 10 11 9 12
REMARK H PARENT 3 5
REMARK Flexibility Score: inf
ROOT
ATOM      1  C   UNL     1       9.989   1.825   1.267  1.00  0.00     0.127 C 
ENDROOT
BRANCH   1   2
ATOM      2  C   UNL     1      10.772   0.711   0.683  1.00  0.00     0.303 C 
ATOM      3  O   UNL     1      11.241  -0.203   1.406  1.00  0.00    -0.252 OA
BRANCH   2   4
ATOM      4  O   UNL     1      11.010   0.647  -0.680  1.00  0.00    -0.481 OA
ATOM      5  H   UNL     1      10.386   0.092  -1.272  1.00  0.00     0.296 HD
ENDBRANCH   2   4
ENDBRANCH   1   2
BRANCH   1   6
ATOM      6  C   UNL     1       8.715   1.265   1.821  1.00  0.00     0.047 C 
BRANCH   6   7
ATOM      7  C   UNL     1       7.511   1.738   1.139  1.00  0.00    -0.047 A 
ATOM      8  C   UNL     1       7.154   3.066   1.182  1.00  0.00     0.004 A 
ATOM      9  C   UNL     1       6.735   0.838   0.446  1.00  0.00     0.004 A 
ATOM     10  C   UNL     1       5.992   3.446   0.506  1.00  0.00     0.000 A 
ATOM     11  C   UNL     1       5.587   1.216  -0.221  1.00  0.00     0.000 A 
ATOM     12  C   UNL     1       5.221   2.544  -0.182  1.00  0.00     0.000 A 
ENDBRANCH   6   7
ENDBRANCH   1   6
TORSDOF 4
ENDMDL
