@<TRIPOS>MOLECULE
/home/cewinharhar/GITHUB/reincatalyze/data/processed/docking_pred/2023_Apr_20-15:07/f338baa35ded8d3cb3d8a5b9e0cebf8a24c11f6d_ligand_2.pdbqt
 12 12 0 0 0
SMALL
GASTEIGER

@<TRIPOS>ATOM
      1  C          8.3450   -0.6280   -2.1080 C.3     1  UNL1        0.1270
      2  C          8.3490   -1.8830   -2.8970 C.2     1  UNL1        0.3030
      3  O          7.2770   -2.4170   -3.2750 O.2     1  UNL1       -0.2520
      4  O          9.5390   -2.5030   -3.2390 O.3     1  UNL1       -0.4810
      5  H         10.4000   -1.9500   -3.2730 H       1  UNL1        0.2960
      6  C          6.9480   -0.3770   -1.6290 C.3     1  UNL1        0.0470
      7  C          6.8150    0.8030   -0.7770 C.2     1  UNL1       -0.0470
      8  C          7.9140    1.3520   -0.1580 C.2     1  UNL1        0.0040
      9  C          5.5720    1.3650   -0.5980 C.2     1  UNL1        0.0040
     10  C          7.7130    2.4790    0.6410 C.2     1  UNL1        0.0000
     11  C          5.3750    2.4800    0.1930 C.2     1  UNL1        0.0000
     12  C          6.4710    3.0360    0.8160 C.2     1  UNL1        0.0000
@<TRIPOS>BOND
     1     3     2    2
     2     5     4    1
     3     4     2    1
     4     2     1    1
     5     1     6    1
     6     6     7    1
     7     7     9    2
     8     7     8    1
     9     9    11    1
    10     8    10    2
    11    11    12    2
    12    10    12    1
