@<TRIPOS>MOLECULE
/home/cewinharhar/GITHUB/reincatalyze/data/processed/docking_pred/2023_Apr_20-15:07/f3c5d297feb9947f67baa3310bcd1cfc63c32b25_ligand_2.pdbqt
 12 12 0 0 0
SMALL
GASTEIGER

@<TRIPOS>ATOM
      1  C          6.0460   -0.7660    1.8180 C.3     1  UNL1        0.1270
      2  C          5.3470    0.5290    1.9990 C.2     1  UNL1        0.3030
      3  O          4.1720    0.5780    2.4400 O.2     1  UNL1       -0.2520
      4  O          5.9740    1.7240    1.6850 O.3     1  UNL1       -0.4810
      5  H          5.4850    2.4080    1.1020 H       1  UNL1        0.2960
      6  C          7.4640   -0.4850    1.4260 C.3     1  UNL1        0.0470
      7  C          7.6790   -0.4200   -0.0190 C.2     1  UNL1       -0.0470
      8  C          6.9210   -1.1820   -0.8780 C.2     1  UNL1        0.0040
      9  C          8.6510    0.4170   -0.5160 C.2     1  UNL1        0.0040
     10  C          7.1800   -1.0690   -2.2450 C.2     1  UNL1        0.0000
     11  C          8.9060    0.5270   -1.8690 C.2     1  UNL1        0.0000
     12  C          8.1520   -0.2330   -2.7360 C.2     1  UNL1        0.0000
@<TRIPOS>BOND
     1    12    10    2
     2    12    11    1
     3    10     8    1
     4    11     9    2
     5     8     7    2
     6     9     7    1
     7     7     6    1
     8     5     4    1
     9     6     1    1
    10     4     2    1
    11     1     2    1
    12     2     3    2
