@<TRIPOS>MOLECULE
/home/cewinharhar/GITHUB/reincatalyze/data/processed/docking_pred/2023_Apr_20-15:07/f3c5d297feb9947f67baa3310bcd1cfc63c32b25_ligand_2.pdbqt
 12 12 0 0 0
SMALL
GASTEIGER

@<TRIPOS>ATOM
      1  C          8.2000    0.1500   -2.3540 C.3     1  UNL1        0.1270
      2  C          8.1710   -1.3070   -2.6250 C.2     1  UNL1        0.3030
      3  O          7.0880   -1.9430   -2.6480 O.2     1  UNL1       -0.2520
      4  O          9.3420   -2.0080   -2.8610 O.3     1  UNL1       -0.4810
      5  H         10.0610   -1.5950   -3.4620 H       1  UNL1        0.2960
      6  C          8.6610    0.3580   -0.9440 C.3     1  UNL1        0.0470
      7  C          7.6030    0.2170    0.0550 C.2     1  UNL1       -0.0470
      8  C          7.7160   -0.6980    1.0750 C.2     1  UNL1        0.0040
      9  C          6.4860    1.0160   -0.0340 C.2     1  UNL1        0.0040
     10  C          6.6680   -0.7770    1.9940 C.2     1  UNL1        0.0000
     11  C          5.4500    0.9360    0.8750 C.2     1  UNL1        0.0000
     12  C          5.5560    0.0210    1.9000 C.2     1  UNL1        0.0000
@<TRIPOS>BOND
     1     5     4    1
     2     4     2    1
     3     3     2    2
     4     2     1    1
     5     1     6    1
     6     6     7    1
     7     9     7    2
     8     9    11    1
     9     7     8    1
    10    11    12    2
    11     8    10    2
    12    12    10    1
