@<TRIPOS>MOLECULE
/home/cewinharhar/GITHUB/reincatalyze/data/processed/docking_pred/2023_Apr_20-15:07/f3c5d297feb9947f67baa3310bcd1cfc63c32b25_ligand_2.pdbqt
 12 12 0 0 0
SMALL
GASTEIGER

@<TRIPOS>ATOM
      1  C          8.5170   -0.5500   -2.1310 C.3     1  UNL1        0.1270
      2  C          8.5490   -1.8040   -2.9200 C.2     1  UNL1        0.3030
      3  O          7.4930   -2.3230   -3.3610 O.2     1  UNL1       -0.2520
      4  O          9.7480   -2.4410   -3.1940 O.3     1  UNL1       -0.4810
      5  H          9.9230   -2.7960   -4.1390 H       1  UNL1        0.2960
      6  C          7.0960   -0.0860   -2.0420 C.3     1  UNL1        0.0470
      7  C          6.5640   -0.0580   -0.6800 C.2     1  UNL1       -0.0470
      8  C          5.9050    1.0510   -0.2040 C.2     1  UNL1        0.0040
      9  C          6.7280   -1.1610    0.1270 C.2     1  UNL1        0.0040
     10  C          5.4230    1.0070    1.1060 C.2     1  UNL1        0.0000
     11  C          6.2500   -1.2030    1.4220 C.2     1  UNL1        0.0000
     12  C          5.5900   -0.0950    1.9060 C.2     1  UNL1        0.0000
@<TRIPOS>BOND
     1     5     4    1
     2     3     2    2
     3     4     2    1
     4     2     1    1
     5     1     6    1
     6     6     7    1
     7     7     8    2
     8     7     9    1
     9     8    10    1
    10     9    11    2
    11    10    12    2
    12    11    12    1
