MODEL 1
REMARK VINA RESULT:      -6.7      0.000      0.000
REMARK SMILES O=C(O)CCc1ccccc1
REMARK SMILES IDX 4 1 2 2 1 3 3 4 5 6 6 7 7 8 11 9 8 10 10 11 9 12
REMARK H PARENT 3 5
REMARK Flexibility Score: inf
ROOT
ATOM      1  C   UNL     1       8.517  -0.550  -2.131  1.00  0.00     0.127 C 
ENDROOT
BRANCH   1   2
ATOM      2  C   UNL     1       8.549  -1.804  -2.920  1.00  0.00     0.303 C 
ATOM      3  O   UNL     1       7.493  -2.323  -3.361  1.00  0.00    -0.252 OA
BRANCH   2   4
ATOM      4  O   UNL     1       9.748  -2.441  -3.194  1.00  0.00    -0.481 OA
ATOM      5  H   UNL     1       9.923  -2.796  -4.139  1.00  0.00     0.296 HD
ENDBRANCH   2   4
ENDBRANCH   1   2
BRANCH   1   6
ATOM      6  C   UNL     1       7.096  -0.086  -2.042  1.00  0.00     0.047 C 
BRANCH   6   7
ATOM      7  C   UNL     1       6.564  -0.058  -0.680  1.00  0.00    -0.047 A 
ATOM      8  C   UNL     1       5.905   1.051  -0.204  1.00  0.00     0.004 A 
ATOM      9  C   UNL     1       6.728  -1.161   0.127  1.00  0.00     0.004 A 
ATOM     10  C   UNL     1       5.423   1.007   1.106  1.00  0.00     0.000 A 
ATOM     11  C   UNL     1       6.250  -1.203   1.422  1.00  0.00     0.000 A 
ATOM     12  C   UNL     1       5.590  -0.095   1.906  1.00  0.00     0.000 A 
ENDBRANCH   6   7
ENDBRANCH   1   6
TORSDOF 4
ENDMDL
MODEL 2
REMARK VINA RESULT:      -6.6      0.885      1.058
REMARK SMILES O=C(O)CCc1ccccc1
REMARK SMILES IDX 4 1 2 2 1 3 3 4 5 6 6 7 7 8 11 9 8 10 10 11 9 12
REMARK H PARENT 3 5
REMARK Flexibility Score: inf
ROOT
ATOM      1  C   UNL     1       7.268  -1.238  -2.418  1.00  0.00     0.127 C 
ENDROOT
BRANCH   1   2
ATOM      2  C   UNL     1       8.743  -1.324  -2.532  1.00  0.00     0.303 C 
ATOM      3  O   UNL     1       9.296  -2.291  -3.110  1.00  0.00    -0.252 OA
BRANCH   2   4
ATOM      4  O   UNL     1       9.554  -0.334  -2.000  1.00  0.00    -0.481 OA
ATOM      5  H   UNL     1       9.878  -0.419  -1.032  1.00  0.00     0.296 HD
ENDBRANCH   2   4
ENDBRANCH   1   2
BRANCH   1   6
ATOM      6  C   UNL     1       6.917   0.095  -1.831  1.00  0.00     0.047 C 
BRANCH   6   7
ATOM      7  C   UNL     1       6.428   0.029  -0.455  1.00  0.00    -0.047 A 
ATOM      8  C   UNL     1       5.739   1.084   0.097  1.00  0.00     0.004 A 
ATOM      9  C   UNL     1       6.662  -1.105   0.287  1.00  0.00     0.004 A 
ATOM     10  C   UNL     1       5.300   0.951   1.417  1.00  0.00     0.000 A 
ATOM     11  C   UNL     1       6.228  -1.235   1.591  1.00  0.00     0.000 A 
ATOM     12  C   UNL     1       5.537  -0.183   2.153  1.00  0.00     0.000 A 
ENDBRANCH   6   7
ENDBRANCH   1   6
TORSDOF 4
ENDMDL
MODEL 3
REMARK VINA RESULT:      -6.6      0.932      1.700
REMARK SMILES O=C(O)CCc1ccccc1
REMARK SMILES IDX 4 1 2 2 1 3 3 4 5 6 6 7 7 8 11 9 8 10 10 11 9 12
REMARK H PARENT 3 5
REMARK Flexibility Score: inf
ROOT
ATOM      1  C   UNL     1       8.200   0.150  -2.354  1.00  0.00     0.127 C 
ENDROOT
BRANCH   1   2
ATOM      2  C   UNL     1       8.171  -1.307  -2.625  1.00  0.00     0.303 C 
ATOM      3  O   UNL     1       7.088  -1.943  -2.648  1.00  0.00    -0.252 OA
BRANCH   2   4
ATOM      4  O   UNL     1       9.342  -2.008  -2.861  1.00  0.00    -0.481 OA
ATOM      5  H   UNL     1      10.061  -1.595  -3.462  1.00  0.00     0.296 HD
ENDBRANCH   2   4
ENDBRANCH   1   2
BRANCH   1   6
ATOM      6  C   UNL     1       8.661   0.358  -0.944  1.00  0.00     0.047 C 
BRANCH   6   7
ATOM      7  C   UNL     1       7.603   0.217   0.055  1.00  0.00    -0.047 A 
ATOM      8  C   UNL     1       7.716  -0.698   1.075  1.00  0.00     0.004 A 
ATOM      9  C   UNL     1       6.486   1.016  -0.034  1.00  0.00     0.004 A 
ATOM     10  C   UNL     1       6.668  -0.777   1.994  1.00  0.00     0.000 A 
ATOM     11  C   UNL     1       5.450   0.936   0.875  1.00  0.00     0.000 A 
ATOM     12  C   UNL     1       5.556   0.021   1.900  1.00  0.00     0.000 A 
ENDBRANCH   6   7
ENDBRANCH   1   6
TORSDOF 4
ENDMDL
MODEL 4
REMARK VINA RESULT:      -6.5      3.212      4.908
REMARK SMILES O=C(O)CCc1ccccc1
REMARK SMILES IDX 4 1 2 2 1 3 3 4 5 6 6 7 7 8 11 9 8 10 10 11 9 12
REMARK H PARENT 3 5
REMARK Flexibility Score: inf
ROOT
ATOM      1  C   UNL     1       6.046  -0.766   1.818  1.00  0.00     0.127 C 
ENDROOT
BRANCH   1   2
ATOM      2  C   UNL     1       5.347   0.529   1.999  1.00  0.00     0.303 C 
ATOM      3  O   UNL     1       4.172   0.578   2.440  1.00  0.00    -0.252 OA
BRANCH   2   4
ATOM      4  O   UNL     1       5.974   1.724   1.685  1.00  0.00    -0.481 OA
ATOM      5  H   UNL     1       5.485   2.408   1.102  1.00  0.00     0.296 HD
ENDBRANCH   2   4
ENDBRANCH   1   2
BRANCH   1   6
ATOM      6  C   UNL     1       7.464  -0.485   1.426  1.00  0.00     0.047 C 
BRANCH   6   7
ATOM      7  C   UNL     1       7.679  -0.420  -0.019  1.00  0.00    -0.047 A 
ATOM      8  C   UNL     1       6.921  -1.182  -0.878  1.00  0.00     0.004 A 
ATOM      9  C   UNL     1       8.651   0.417  -0.516  1.00  0.00     0.004 A 
ATOM     10  C   UNL     1       7.180  -1.069  -2.245  1.00  0.00     0.000 A 
ATOM     11  C   UNL     1       8.906   0.527  -1.869  1.00  0.00     0.000 A 
ATOM     12  C   UNL     1       8.152  -0.233  -2.736  1.00  0.00     0.000 A 
ENDBRANCH   6   7
ENDBRANCH   1   6
TORSDOF 4
ENDMDL
MODEL 5
REMARK VINA RESULT:      -6.5      3.089      4.883
REMARK SMILES O=C(O)CCc1ccccc1
REMARK SMILES IDX 4 1 2 2 1 3 3 4 5 6 6 7 7 8 11 9 8 10 10 11 9 12
REMARK H PARENT 3 5
REMARK Flexibility Score: inf
ROOT
ATOM      1  C   UNL     1       6.121   1.422   1.274  1.00  0.00     0.127 C 
ENDROOT
BRANCH   1   2
ATOM      2  C   UNL     1       5.220   0.520   2.029  1.00  0.00     0.303 C 
ATOM      3  O   UNL     1       5.564  -0.653   2.316  1.00  0.00    -0.252 OA
BRANCH   2   4
ATOM      4  O   UNL     1       3.968   0.949   2.440  1.00  0.00    -0.481 OA
ATOM      5  H   UNL     1       3.814   1.175   3.426  1.00  0.00     0.296 HD
ENDBRANCH   2   4
ENDBRANCH   1   2
BRANCH   1   6
ATOM      6  C   UNL     1       5.834   1.258  -0.187  1.00  0.00     0.047 C 
BRANCH   6   7
ATOM      7  C   UNL     1       6.904   0.598  -0.933  1.00  0.00    -0.047 A 
ATOM      8  C   UNL     1       8.197   1.063  -0.869  1.00  0.00     0.004 A 
ATOM      9  C   UNL     1       6.606  -0.502  -1.703  1.00  0.00     0.004 A 
ATOM     10  C   UNL     1       9.168   0.382  -1.607  1.00  0.00     0.000 A 
ATOM     11  C   UNL     1       7.567  -1.174  -2.432  1.00  0.00     0.000 A 
ATOM     12  C   UNL     1       8.864  -0.714  -2.374  1.00  0.00     0.000 A 
ENDBRANCH   6   7
ENDBRANCH   1   6
TORSDOF 4
ENDMDL
