@<TRIPOS>MOLECULE
/home/cewinharhar/GITHUB/reincatalyze/data/processed/docking_pred/2023_Apr_20-15:07/f3c5d297feb9947f67baa3310bcd1cfc63c32b25_ligand_2.pdbqt
 12 12 0 0 0
SMALL
GASTEIGER

@<TRIPOS>ATOM
      1  C          7.2680   -1.2380   -2.4180 C.3     1  UNL1        0.1270
      2  C          8.7430   -1.3240   -2.5320 C.2     1  UNL1        0.3030
      3  O          9.2960   -2.2910   -3.1100 O.2     1  UNL1       -0.2520
      4  O          9.5540   -0.3340   -2.0000 O.3     1  UNL1       -0.4810
      5  H          9.8780   -0.4190   -1.0320 H       1  UNL1        0.2960
      6  C          6.9170    0.0950   -1.8310 C.3     1  UNL1        0.0470
      7  C          6.4280    0.0290   -0.4550 C.2     1  UNL1       -0.0470
      8  C          5.7390    1.0840    0.0970 C.2     1  UNL1        0.0040
      9  C          6.6620   -1.1050    0.2870 C.2     1  UNL1        0.0040
     10  C          5.3000    0.9510    1.4170 C.2     1  UNL1        0.0000
     11  C          6.2280   -1.2350    1.5910 C.2     1  UNL1        0.0000
     12  C          5.5370   -0.1830    2.1530 C.2     1  UNL1        0.0000
@<TRIPOS>BOND
     1     3     2    2
     2     2     1    1
     3     2     4    1
     4     1     6    1
     5     4     5    1
     6     6     7    1
     7     7     8    2
     8     7     9    1
     9     8    10    1
    10     9    11    2
    11    10    12    2
    12    11    12    1
