@<TRIPOS>MOLECULE
/home/cewinharhar/GITHUB/reincatalyze/data/processed/docking_pred/2023_Apr_20-15:07/f3c5d297feb9947f67baa3310bcd1cfc63c32b25_ligand_2.pdbqt
 12 12 0 0 0
SMALL
GASTEIGER

@<TRIPOS>ATOM
      1  C          6.1210    1.4220    1.2740 C.3     1  UNL1        0.1270
      2  C          5.2200    0.5200    2.0290 C.2     1  UNL1        0.3030
      3  O          5.5640   -0.6530    2.3160 O.2     1  UNL1       -0.2520
      4  O          3.9680    0.9490    2.4400 O.3     1  UNL1       -0.4810
      5  H          3.8140    1.1750    3.4260 H       1  UNL1        0.2960
      6  C          5.8340    1.2580   -0.1870 C.3     1  UNL1        0.0470
      7  C          6.9040    0.5980   -0.9330 C.2     1  UNL1       -0.0470
      8  C          8.1970    1.0630   -0.8690 C.2     1  UNL1        0.0040
      9  C          6.6060   -0.5020   -1.7030 C.2     1  UNL1        0.0040
     10  C          9.1680    0.3820   -1.6070 C.2     1  UNL1        0.0000
     11  C          7.5670   -1.1740   -2.4320 C.2     1  UNL1        0.0000
     12  C          8.8640   -0.7140   -2.3740 C.2     1  UNL1        0.0000
@<TRIPOS>BOND
     1    11    12    2
     2    11     9    1
     3    12    10    1
     4     9     7    2
     5    10     8    2
     6     7     8    1
     7     7     6    1
     8     6     1    1
     9     1     2    1
    10     2     3    2
    11     2     4    1
    12     4     5    1
