@<TRIPOS>MOLECULE
/home/cewinharhar/GITHUB/reincatalyze/data/processed/docking_pred/2023_Apr_20-15:07/f411d25023d78b520541a26d40866fe70d26d332_ligand_2.pdbqt
 12 12 0 0 0
SMALL
GASTEIGER

@<TRIPOS>ATOM
      1  C          8.4440   -0.5890   -2.1820 C.3     1  UNL1        0.1270
      2  C          8.4820   -1.8760   -2.9160 C.2     1  UNL1        0.3030
      3  O          9.5620   -2.4930   -3.0930 O.2     1  UNL1       -0.2520
      4  O          7.3230   -2.4350   -3.4300 O.3     1  UNL1       -0.4810
      5  H          7.3420   -3.3980   -3.7760 H       1  UNL1        0.2960
      6  C          7.0260   -0.1070   -2.1520 C.3     1  UNL1        0.0470
      7  C          6.4850    0.0620   -0.8040 C.2     1  UNL1       -0.0470
      8  C          5.8490    1.2280   -0.4430 C.2     1  UNL1        0.0040
      9  C          6.6150   -0.9620    0.1050 C.2     1  UNL1        0.0040
     10  C          5.3560    1.3190    0.8610 C.2     1  UNL1        0.0000
     11  C          6.1270   -0.8690    1.3930 C.2     1  UNL1        0.0000
     12  C          5.4890    0.2950    1.7640 C.2     1  UNL1        0.0000
@<TRIPOS>BOND
     1     5     4    1
     2     4     2    1
     3     3     2    2
     4     2     1    1
     5     1     6    1
     6     6     7    1
     7     7     8    2
     8     7     9    1
     9     8    10    1
    10     9    11    2
    11    10    12    2
    12    11    12    1
