MODEL 1
REMARK VINA RESULT:      -7.4      0.000      0.000
REMARK SMILES O=C(O)CCc1ccccc1
REMARK SMILES IDX 4 1 2 2 1 3 3 4 5 6 6 7 7 8 11 9 8 10 10 11 9 12
REMARK H PARENT 3 5
REMARK Flexibility Score: inf
ROOT
ATOM      1  C   UNL     1       8.480  -0.596  -2.182  1.00  0.00     0.127 C 
ENDROOT
BRANCH   1   2
ATOM      2  C   UNL     1       8.498  -1.880  -2.923  1.00  0.00     0.303 C 
ATOM      3  O   UNL     1       9.567  -2.513  -3.103  1.00  0.00    -0.252 OA
BRANCH   2   4
ATOM      4  O   UNL     1       7.330  -2.418  -3.439  1.00  0.00    -0.481 OA
ATOM      5  H   UNL     1       7.289  -2.668  -4.430  1.00  0.00     0.296 HD
ENDBRANCH   2   4
ENDBRANCH   1   2
BRANCH   1   6
ATOM      6  C   UNL     1       7.072  -0.086  -2.157  1.00  0.00     0.047 C 
BRANCH   6   7
ATOM      7  C   UNL     1       6.517   0.061  -0.813  1.00  0.00    -0.047 A 
ATOM      8  C   UNL     1       6.644  -0.946   0.115  1.00  0.00     0.004 A 
ATOM      9  C   UNL     1       5.862   1.225  -0.480  1.00  0.00     0.004 A 
ATOM     10  C   UNL     1       6.090  -0.737   1.380  1.00  0.00     0.000 A 
ATOM     11  C   UNL     1       5.315   1.430   0.770  1.00  0.00     0.000 A 
ATOM     12  C   UNL     1       5.438   0.426   1.706  1.00  0.00     0.000 A 
ENDBRANCH   6   7
ENDBRANCH   1   6
TORSDOF 4
ENDMDL
MODEL 2
REMARK VINA RESULT:      -7.3      0.082      1.438
REMARK SMILES O=C(O)CCc1ccccc1
REMARK SMILES IDX 4 1 2 2 1 3 3 4 5 6 6 7 7 8 11 9 8 10 10 11 9 12
REMARK H PARENT 3 5
REMARK Flexibility Score: inf
ROOT
ATOM      1  C   UNL     1       8.444  -0.589  -2.182  1.00  0.00     0.127 C 
ENDROOT
BRANCH   1   2
ATOM      2  C   UNL     1       8.482  -1.876  -2.916  1.00  0.00     0.303 C 
ATOM      3  O   UNL     1       9.562  -2.493  -3.093  1.00  0.00    -0.252 OA
BRANCH   2   4
ATOM      4  O   UNL     1       7.323  -2.435  -3.430  1.00  0.00    -0.481 OA
ATOM      5  H   UNL     1       7.342  -3.398  -3.776  1.00  0.00     0.296 HD
ENDBRANCH   2   4
ENDBRANCH   1   2
BRANCH   1   6
ATOM      6  C   UNL     1       7.026  -0.107  -2.152  1.00  0.00     0.047 C 
BRANCH   6   7
ATOM      7  C   UNL     1       6.485   0.062  -0.804  1.00  0.00    -0.047 A 
ATOM      8  C   UNL     1       5.849   1.228  -0.443  1.00  0.00     0.004 A 
ATOM      9  C   UNL     1       6.615  -0.962   0.105  1.00  0.00     0.004 A 
ATOM     10  C   UNL     1       5.356   1.319   0.861  1.00  0.00     0.000 A 
ATOM     11  C   UNL     1       6.127  -0.869   1.393  1.00  0.00     0.000 A 
ATOM     12  C   UNL     1       5.489   0.295   1.764  1.00  0.00     0.000 A 
ENDBRANCH   6   7
ENDBRANCH   1   6
TORSDOF 4
ENDMDL
MODEL 3
REMARK VINA RESULT:      -6.8      3.378      5.063
REMARK SMILES O=C(O)CCc1ccccc1
REMARK SMILES IDX 4 1 2 2 1 3 3 4 5 6 6 7 7 8 11 9 8 10 10 11 9 12
REMARK H PARENT 3 5
REMARK Flexibility Score: inf
ROOT
ATOM      1  C   UNL     1       5.018   1.796   0.725  1.00  0.00     0.127 C 
ENDROOT
BRANCH   1   2
ATOM      2  C   UNL     1       4.480   1.111   1.924  1.00  0.00     0.303 C 
ATOM      3  O   UNL     1       5.122   0.193   2.492  1.00  0.00    -0.252 OA
BRANCH   2   4
ATOM      4  O   UNL     1       3.250   1.467   2.454  1.00  0.00    -0.481 OA
ATOM      5  H   UNL     1       2.905   0.984   3.288  1.00  0.00     0.296 HD
ENDBRANCH   2   4
ENDBRANCH   1   2
BRANCH   1   6
ATOM      6  C   UNL     1       6.514   1.740   0.782  1.00  0.00     0.047 C 
BRANCH   6   7
ATOM      7  C   UNL     1       7.123   0.998  -0.320  1.00  0.00    -0.047 A 
ATOM      8  C   UNL     1       6.397   0.069  -1.029  1.00  0.00     0.004 A 
ATOM      9  C   UNL     1       8.438   1.239  -0.646  1.00  0.00     0.004 A 
ATOM     10  C   UNL     1       7.044  -0.602  -2.069  1.00  0.00     0.000 A 
ATOM     11  C   UNL     1       9.075   0.575  -1.675  1.00  0.00     0.000 A 
ATOM     12  C   UNL     1       8.355  -0.358  -2.389  1.00  0.00     0.000 A 
ENDBRANCH   6   7
ENDBRANCH   1   6
TORSDOF 4
ENDMDL
MODEL 4
REMARK VINA RESULT:      -6.7      3.839      4.947
REMARK SMILES O=C(O)CCc1ccccc1
REMARK SMILES IDX 4 1 2 2 1 3 3 4 5 6 6 7 7 8 11 9 8 10 10 11 9 12
REMARK H PARENT 3 5
REMARK Flexibility Score: inf
ROOT
ATOM      1  C   UNL     1       5.441   2.892   0.029  1.00  0.00     0.127 C 
ENDROOT
BRANCH   1   2
ATOM      2  C   UNL     1       6.244   3.859   0.815  1.00  0.00     0.303 C 
ATOM      3  O   UNL     1       6.893   4.775   0.253  1.00  0.00    -0.252 OA
BRANCH   2   4
ATOM      4  O   UNL     1       6.300   3.777   2.197  1.00  0.00    -0.481 OA
ATOM      5  H   UNL     1       7.051   3.239   2.637  1.00  0.00     0.296 HD
ENDBRANCH   2   4
ENDBRANCH   1   2
BRANCH   1   6
ATOM      6  C   UNL     1       4.907   1.852   0.966  1.00  0.00     0.047 C 
BRANCH   6   7
ATOM      7  C   UNL     1       5.689   0.618   0.993  1.00  0.00    -0.047 A 
ATOM      8  C   UNL     1       5.767  -0.141   2.138  1.00  0.00     0.004 A 
ATOM      9  C   UNL     1       6.350   0.217  -0.145  1.00  0.00     0.004 A 
ATOM     10  C   UNL     1       6.531  -1.309   2.092  1.00  0.00     0.000 A 
ATOM     11  C   UNL     1       7.106  -0.938  -0.189  1.00  0.00     0.000 A 
ATOM     12  C   UNL     1       7.190  -1.703   0.954  1.00  0.00     0.000 A 
ENDBRANCH   6   7
ENDBRANCH   1   6
TORSDOF 4
ENDMDL
MODEL 5
REMARK VINA RESULT:      -6.7      1.938      2.241
REMARK SMILES O=C(O)CCc1ccccc1
REMARK SMILES IDX 4 1 2 2 1 3 3 4 5 6 6 7 7 8 11 9 8 10 10 11 9 12
REMARK H PARENT 3 5
REMARK Flexibility Score: inf
ROOT
ATOM      1  C   UNL     1       8.175   0.325  -2.094  1.00  0.00     0.127 C 
ENDROOT
BRANCH   1   2
ATOM      2  C   UNL     1       9.356   0.355  -1.200  1.00  0.00     0.303 C 
ATOM      3  O   UNL     1       9.446  -0.419  -0.214  1.00  0.00    -0.252 OA
BRANCH   2   4
ATOM      4  O   UNL     1      10.397   1.241  -1.427  1.00  0.00    -0.481 OA
ATOM      5  H   UNL     1      10.201   2.245  -1.464  1.00  0.00     0.296 HD
ENDBRANCH   2   4
ENDBRANCH   1   2
BRANCH   1   6
ATOM      6  C   UNL     1       7.123  -0.532  -1.457  1.00  0.00     0.047 C 
BRANCH   6   7
ATOM      7  C   UNL     1       6.342   0.152  -0.428  1.00  0.00    -0.047 A 
ATOM      8  C   UNL     1       6.140  -0.427   0.803  1.00  0.00     0.004 A 
ATOM      9  C   UNL     1       5.808   1.390  -0.703  1.00  0.00     0.004 A 
ATOM     10  C   UNL     1       5.384   0.284   1.738  1.00  0.00     0.000 A 
ATOM     11  C   UNL     1       5.060   2.091   0.222  1.00  0.00     0.000 A 
ATOM     12  C   UNL     1       4.853   1.518   1.458  1.00  0.00     0.000 A 
ENDBRANCH   6   7
ENDBRANCH   1   6
TORSDOF 4
ENDMDL
