@<TRIPOS>MOLECULE
/home/cewinharhar/GITHUB/reincatalyze/data/processed/docking_pred/2023_Apr_20-15:07/f411d25023d78b520541a26d40866fe70d26d332_ligand_2.pdbqt
 12 12 0 0 0
SMALL
GASTEIGER

@<TRIPOS>ATOM
      1  C          8.1750    0.3250   -2.0940 C.3     1  UNL1        0.1270
      2  C          9.3560    0.3550   -1.2000 C.2     1  UNL1        0.3030
      3  O          9.4460   -0.4190   -0.2140 O.2     1  UNL1       -0.2520
      4  O         10.3970    1.2410   -1.4270 O.3     1  UNL1       -0.4810
      5  H         10.2010    2.2450   -1.4640 H       1  UNL1        0.2960
      6  C          7.1230   -0.5320   -1.4570 C.3     1  UNL1        0.0470
      7  C          6.3420    0.1520   -0.4280 C.2     1  UNL1       -0.0470
      8  C          6.1400   -0.4270    0.8030 C.2     1  UNL1        0.0040
      9  C          5.8080    1.3900   -0.7030 C.2     1  UNL1        0.0040
     10  C          5.3840    0.2840    1.7380 C.2     1  UNL1        0.0000
     11  C          5.0600    2.0910    0.2220 C.2     1  UNL1        0.0000
     12  C          4.8530    1.5180    1.4580 C.2     1  UNL1        0.0000
@<TRIPOS>BOND
     1     1     6    1
     2     1     2    1
     3     5     4    1
     4     6     7    1
     5     4     2    1
     6     2     3    2
     7     9     7    2
     8     9    11    1
     9     7     8    1
    10    11    12    2
    11     8    10    2
    12    12    10    1
