@<TRIPOS>MOLECULE
/home/cewinharhar/GITHUB/reincatalyze/data/processed/docking_pred/2023_Apr_20-15:07/f411d25023d78b520541a26d40866fe70d26d332_ligand_2.pdbqt
 12 12 0 0 0
SMALL
GASTEIGER

@<TRIPOS>ATOM
      1  C          8.4800   -0.5960   -2.1820 C.3     1  UNL1        0.1270
      2  C          8.4980   -1.8800   -2.9230 C.2     1  UNL1        0.3030
      3  O          9.5670   -2.5130   -3.1030 O.2     1  UNL1       -0.2520
      4  O          7.3300   -2.4180   -3.4390 O.3     1  UNL1       -0.4810
      5  H          7.2890   -2.6680   -4.4300 H       1  UNL1        0.2960
      6  C          7.0720   -0.0860   -2.1570 C.3     1  UNL1        0.0470
      7  C          6.5170    0.0610   -0.8130 C.2     1  UNL1       -0.0470
      8  C          6.6440   -0.9460    0.1150 C.2     1  UNL1        0.0040
      9  C          5.8620    1.2250   -0.4800 C.2     1  UNL1        0.0040
     10  C          6.0900   -0.7370    1.3800 C.2     1  UNL1        0.0000
     11  C          5.3150    1.4300    0.7700 C.2     1  UNL1        0.0000
     12  C          5.4380    0.4260    1.7060 C.2     1  UNL1        0.0000
@<TRIPOS>BOND
     1     5     4    1
     2     4     2    1
     3     3     2    2
     4     2     1    1
     5     1     6    1
     6     6     7    1
     7     7     9    2
     8     7     8    1
     9     9    11    1
    10     8    10    2
    11    11    12    2
    12    10    12    1
