@<TRIPOS>MOLECULE
/home/cewinharhar/GITHUB/reincatalyze/data/processed/docking_pred/2023_Apr_20-15:07/f411d25023d78b520541a26d40866fe70d26d332_ligand_2.pdbqt
 12 12 0 0 0
SMALL
GASTEIGER

@<TRIPOS>ATOM
      1  C          5.0180    1.7960    0.7250 C.3     1  UNL1        0.1270
      2  C          4.4800    1.1110    1.9240 C.2     1  UNL1        0.3030
      3  O          5.1220    0.1930    2.4920 O.2     1  UNL1       -0.2520
      4  O          3.2500    1.4670    2.4540 O.3     1  UNL1       -0.4810
      5  H          2.9050    0.9840    3.2880 H       1  UNL1        0.2960
      6  C          6.5140    1.7400    0.7820 C.3     1  UNL1        0.0470
      7  C          7.1230    0.9980   -0.3200 C.2     1  UNL1       -0.0470
      8  C          6.3970    0.0690   -1.0290 C.2     1  UNL1        0.0040
      9  C          8.4380    1.2390   -0.6460 C.2     1  UNL1        0.0040
     10  C          7.0440   -0.6020   -2.0690 C.2     1  UNL1        0.0000
     11  C          9.0750    0.5750   -1.6750 C.2     1  UNL1        0.0000
     12  C          8.3550   -0.3580   -2.3890 C.2     1  UNL1        0.0000
@<TRIPOS>BOND
     1    12    10    2
     2    12    11    1
     3    10     8    1
     4    11     9    2
     5     8     7    2
     6     9     7    1
     7     7     6    1
     8     1     6    1
     9     1     2    1
    10     2     4    1
    11     2     3    2
    12     4     5    1
