@<TRIPOS>MOLECULE
/home/cewinharhar/GITHUB/reincatalyze/data/processed/docking_pred/2023_Apr_20-15:07/f411d25023d78b520541a26d40866fe70d26d332_ligand_2.pdbqt
 12 12 0 0 0
SMALL
GASTEIGER

@<TRIPOS>ATOM
      1  C          5.4410    2.8920    0.0290 C.3     1  UNL1        0.1270
      2  C          6.2440    3.8590    0.8150 C.2     1  UNL1        0.3030
      3  O          6.8930    4.7750    0.2530 O.2     1  UNL1       -0.2520
      4  O          6.3000    3.7770    2.1970 O.3     1  UNL1       -0.4810
      5  H          7.0510    3.2390    2.6370 H       1  UNL1        0.2960
      6  C          4.9070    1.8520    0.9660 C.3     1  UNL1        0.0470
      7  C          5.6890    0.6180    0.9930 C.2     1  UNL1       -0.0470
      8  C          5.7670   -0.1410    2.1380 C.2     1  UNL1        0.0040
      9  C          6.3500    0.2170   -0.1450 C.2     1  UNL1        0.0040
     10  C          6.5310   -1.3090    2.0920 C.2     1  UNL1        0.0000
     11  C          7.1060   -0.9380   -0.1890 C.2     1  UNL1        0.0000
     12  C          7.1900   -1.7030    0.9540 C.2     1  UNL1        0.0000
@<TRIPOS>BOND
     1    11     9    1
     2    11    12    2
     3     9     7    2
     4     1     2    1
     5     1     6    1
     6     3     2    2
     7     2     4    1
     8    12    10    1
     9     6     7    1
    10     7     8    1
    11    10     8    2
    12     4     5    1
