@<TRIPOS>MOLECULE
/home/cewinharhar/GITHUB/reincatalyze/data/processed/docking_pred/2023_Apr_20-15:07/f43d8cd6194682d8f3e5600fbc578d0750565092_ligand_2.pdbqt
 12 12 0 0 0
SMALL
GASTEIGER

@<TRIPOS>ATOM
      1  C          8.5180   -0.6370   -2.1410 C.3     1  UNL1        0.1270
      2  C          8.5240   -1.9090   -2.9020 C.2     1  UNL1        0.3030
      3  O          9.5910   -2.5370   -3.1100 O.2     1  UNL1       -0.2520
      4  O          7.3480   -2.4400   -3.4060 O.3     1  UNL1       -0.4810
      5  H          6.4510   -2.1060   -3.0430 H       1  UNL1        0.2960
      6  C          7.1200   -0.0970   -2.1380 C.3     1  UNL1        0.0470
      7  C          6.5420    0.0480   -0.8030 C.2     1  UNL1       -0.0470
      8  C          6.6660   -0.9550    0.1300 C.2     1  UNL1        0.0040
      9  C          5.8690    1.2050   -0.4850 C.2     1  UNL1        0.0040
     10  C          6.0890   -0.7470    1.3850 C.2     1  UNL1        0.0000
     11  C          5.2990    1.4090    0.7560 C.2     1  UNL1        0.0000
     12  C          5.4180    0.4090    1.6960 C.2     1  UNL1        0.0000
@<TRIPOS>BOND
     1     4     5    1
     2     4     2    1
     3     3     2    2
     4     2     1    1
     5     1     6    1
     6     6     7    1
     7     7     9    2
     8     7     8    1
     9     9    11    1
    10     8    10    2
    11    11    12    2
    12    10    12    1
