@<TRIPOS>MOLECULE
/home/cewinharhar/GITHUB/reincatalyze/data/processed/docking_pred/2023_Apr_20-15:07/f43d8cd6194682d8f3e5600fbc578d0750565092_ligand_2.pdbqt
 12 12 0 0 0
SMALL
GASTEIGER

@<TRIPOS>ATOM
      1  C          7.3170   -1.2690   -2.2180 C.3     1  UNL1        0.1270
      2  C          8.7690   -1.3140   -2.5070 C.2     1  UNL1        0.3030
      3  O          9.2700   -2.2460   -3.1840 O.2     1  UNL1       -0.2520
      4  O          9.6180   -0.3260   -2.0350 O.3     1  UNL1       -0.4810
      5  H         10.5620   -0.2490   -2.4240 H       1  UNL1        0.2960
      6  C          7.1270   -1.3930   -0.7370 C.3     1  UNL1        0.0470
      7  C          6.3870   -0.2840   -0.1380 C.2     1  UNL1       -0.0470
      8  C          5.9550   -0.3500    1.1670 C.2     1  UNL1        0.0040
      9  C          6.1260    0.8350   -0.8930 C.2     1  UNL1        0.0040
     10  C          5.2550    0.7460    1.6740 C.2     1  UNL1        0.0000
     11  C          5.4330    1.9190   -0.3900 C.2     1  UNL1        0.0000
     12  C          4.9970    1.8600    0.9160 C.2     1  UNL1        0.0000
@<TRIPOS>BOND
     1     3     2    2
     2     2     1    1
     3     2     4    1
     4     5     4    1
     5     1     6    1
     6     9    11    1
     7     9     7    2
     8     6     7    1
     9    11    12    2
    10     7     8    1
    11    12    10    1
    12     8    10    2
