MODEL 1
REMARK VINA RESULT:      -7.4      0.000      0.000
REMARK SMILES O=C(O)CCc1ccccc1
REMARK SMILES IDX 4 1 2 2 1 3 3 4 5 6 6 7 7 8 11 9 8 10 10 11 9 12
REMARK H PARENT 3 5
REMARK Flexibility Score: inf
ROOT
ATOM      1  C   UNL     1       8.518  -0.637  -2.141  1.00  0.00     0.127 C 
ENDROOT
BRANCH   1   2
ATOM      2  C   UNL     1       8.524  -1.909  -2.902  1.00  0.00     0.303 C 
ATOM      3  O   UNL     1       9.591  -2.537  -3.110  1.00  0.00    -0.252 OA
BRANCH   2   4
ATOM      4  O   UNL     1       7.348  -2.440  -3.406  1.00  0.00    -0.481 OA
ATOM      5  H   UNL     1       6.451  -2.106  -3.043  1.00  0.00     0.296 HD
ENDBRANCH   2   4
ENDBRANCH   1   2
BRANCH   1   6
ATOM      6  C   UNL     1       7.120  -0.097  -2.138  1.00  0.00     0.047 C 
BRANCH   6   7
ATOM      7  C   UNL     1       6.542   0.048  -0.803  1.00  0.00    -0.047 A 
ATOM      8  C   UNL     1       6.666  -0.955   0.130  1.00  0.00     0.004 A 
ATOM      9  C   UNL     1       5.869   1.205  -0.485  1.00  0.00     0.004 A 
ATOM     10  C   UNL     1       6.089  -0.747   1.385  1.00  0.00     0.000 A 
ATOM     11  C   UNL     1       5.299   1.409   0.756  1.00  0.00     0.000 A 
ATOM     12  C   UNL     1       5.418   0.409   1.696  1.00  0.00     0.000 A 
ENDBRANCH   6   7
ENDBRANCH   1   6
TORSDOF 4
ENDMDL
MODEL 2
REMARK VINA RESULT:      -7.3      0.108      1.439
REMARK SMILES O=C(O)CCc1ccccc1
REMARK SMILES IDX 4 1 2 2 1 3 3 4 5 6 6 7 7 8 11 9 8 10 10 11 9 12
REMARK H PARENT 3 5
REMARK Flexibility Score: inf
ROOT
ATOM      1  C   UNL     1       8.427  -0.576  -2.197  1.00  0.00     0.127 C 
ENDROOT
BRANCH   1   2
ATOM      2  C   UNL     1       8.478  -1.875  -2.910  1.00  0.00     0.303 C 
ATOM      3  O   UNL     1       9.563  -2.484  -3.077  1.00  0.00    -0.252 OA
BRANCH   2   4
ATOM      4  O   UNL     1       7.324  -2.453  -3.415  1.00  0.00    -0.481 OA
ATOM      5  H   UNL     1       6.638  -2.851  -2.767  1.00  0.00     0.296 HD
ENDBRANCH   2   4
ENDBRANCH   1   2
BRANCH   1   6
ATOM      6  C   UNL     1       7.000  -0.120  -2.151  1.00  0.00     0.047 C 
BRANCH   6   7
ATOM      7  C   UNL     1       6.476   0.056  -0.798  1.00  0.00    -0.047 A 
ATOM      8  C   UNL     1       5.868   1.233  -0.427  1.00  0.00     0.004 A 
ATOM      9  C   UNL     1       6.595  -0.973   0.108  1.00  0.00     0.004 A 
ATOM     10  C   UNL     1       5.390   1.331   0.882  1.00  0.00     0.000 A 
ATOM     11  C   UNL     1       6.123  -0.873   1.402  1.00  0.00     0.000 A 
ATOM     12  C   UNL     1       5.513   0.302   1.781  1.00  0.00     0.000 A 
ENDBRANCH   6   7
ENDBRANCH   1   6
TORSDOF 4
ENDMDL
MODEL 3
REMARK VINA RESULT:      -7.2      0.670      1.599
REMARK SMILES O=C(O)CCc1ccccc1
REMARK SMILES IDX 4 1 2 2 1 3 3 4 5 6 6 7 7 8 11 9 8 10 10 11 9 12
REMARK H PARENT 3 5
REMARK Flexibility Score: inf
ROOT
ATOM      1  C   UNL     1       8.305  -1.029  -1.725  1.00  0.00     0.127 C 
ENDROOT
BRANCH   1   2
ATOM      2  C   UNL     1       8.438  -2.024  -2.815  1.00  0.00     0.303 C 
ATOM      3  O   UNL     1       9.561  -2.477  -3.148  1.00  0.00    -0.252 OA
BRANCH   2   4
ATOM      4  O   UNL     1       7.324  -2.482  -3.499  1.00  0.00    -0.481 OA
ATOM      5  H   UNL     1       7.289  -2.393  -4.518  1.00  0.00     0.296 HD
ENDBRANCH   2   4
ENDBRANCH   1   2
BRANCH   1   6
ATOM      6  C   UNL     1       7.152  -1.433  -0.858  1.00  0.00     0.047 C 
BRANCH   6   7
ATOM      7  C   UNL     1       6.432  -0.308  -0.264  1.00  0.00    -0.047 A 
ATOM      8  C   UNL     1       6.145   0.814  -1.006  1.00  0.00     0.004 A 
ATOM      9  C   UNL     1       6.038  -0.383   1.052  1.00  0.00     0.004 A 
ATOM     10  C   UNL     1       5.453   1.850  -0.374  1.00  0.00     0.000 A 
ATOM     11  C   UNL     1       5.354   0.642   1.675  1.00  0.00     0.000 A 
ATOM     12  C   UNL     1       5.064   1.771   0.939  1.00  0.00     0.000 A 
ENDBRANCH   6   7
ENDBRANCH   1   6
TORSDOF 4
ENDMDL
MODEL 4
REMARK VINA RESULT:      -6.9      1.032      1.600
REMARK SMILES O=C(O)CCc1ccccc1
REMARK SMILES IDX 4 1 2 2 1 3 3 4 5 6 6 7 7 8 11 9 8 10 10 11 9 12
REMARK H PARENT 3 5
REMARK Flexibility Score: inf
ROOT
ATOM      1  C   UNL     1       7.317  -1.269  -2.218  1.00  0.00     0.127 C 
ENDROOT
BRANCH   1   2
ATOM      2  C   UNL     1       8.769  -1.314  -2.507  1.00  0.00     0.303 C 
ATOM      3  O   UNL     1       9.270  -2.246  -3.184  1.00  0.00    -0.252 OA
BRANCH   2   4
ATOM      4  O   UNL     1       9.618  -0.326  -2.035  1.00  0.00    -0.481 OA
ATOM      5  H   UNL     1      10.562  -0.249  -2.424  1.00  0.00     0.296 HD
ENDBRANCH   2   4
ENDBRANCH   1   2
BRANCH   1   6
ATOM      6  C   UNL     1       7.127  -1.393  -0.737  1.00  0.00     0.047 C 
BRANCH   6   7
ATOM      7  C   UNL     1       6.387  -0.284  -0.138  1.00  0.00    -0.047 A 
ATOM      8  C   UNL     1       5.955  -0.350   1.167  1.00  0.00     0.004 A 
ATOM      9  C   UNL     1       6.126   0.835  -0.893  1.00  0.00     0.004 A 
ATOM     10  C   UNL     1       5.255   0.746   1.674  1.00  0.00     0.000 A 
ATOM     11  C   UNL     1       5.433   1.919  -0.390  1.00  0.00     0.000 A 
ATOM     12  C   UNL     1       4.997   1.860   0.916  1.00  0.00     0.000 A 
ENDBRANCH   6   7
ENDBRANCH   1   6
TORSDOF 4
ENDMDL
MODEL 5
REMARK VINA RESULT:      -6.7      3.346      5.044
REMARK SMILES O=C(O)CCc1ccccc1
REMARK SMILES IDX 4 1 2 2 1 3 3 4 5 6 6 7 7 8 11 9 8 10 10 11 9 12
REMARK H PARENT 3 5
REMARK Flexibility Score: inf
ROOT
ATOM      1  C   UNL     1       5.026   1.743   0.704  1.00  0.00     0.127 C 
ENDROOT
BRANCH   1   2
ATOM      2  C   UNL     1       4.574   1.047   1.932  1.00  0.00     0.303 C 
ATOM      3  O   UNL     1       5.295   0.186   2.494  1.00  0.00    -0.252 OA
BRANCH   2   4
ATOM      4  O   UNL     1       3.340   1.329   2.495  1.00  0.00    -0.481 OA
ATOM      5  H   UNL     1       3.271   1.471   3.506  1.00  0.00     0.296 HD
ENDBRANCH   2   4
ENDBRANCH   1   2
BRANCH   1   6
ATOM      6  C   UNL     1       6.523   1.788   0.712  1.00  0.00     0.047 C 
BRANCH   6   7
ATOM      7  C   UNL     1       7.147   1.023  -0.366  1.00  0.00    -0.047 A 
ATOM      8  C   UNL     1       6.416   0.119  -1.101  1.00  0.00     0.004 A 
ATOM      9  C   UNL     1       8.481   1.217  -0.642  1.00  0.00     0.004 A 
ATOM     10  C   UNL     1       7.076  -0.577  -2.116  1.00  0.00     0.000 A 
ATOM     11  C   UNL     1       9.132   0.528  -1.645  1.00  0.00     0.000 A 
ATOM     12  C   UNL     1       8.407  -0.380  -2.386  1.00  0.00     0.000 A 
ENDBRANCH   6   7
ENDBRANCH   1   6
TORSDOF 4
ENDMDL
