@<TRIPOS>MOLECULE
/home/cewinharhar/GITHUB/reincatalyze/data/processed/docking_pred/2023_Apr_20-15:07/f43d8cd6194682d8f3e5600fbc578d0750565092_ligand_2.pdbqt
 12 12 0 0 0
SMALL
GASTEIGER

@<TRIPOS>ATOM
      1  C          5.0260    1.7430    0.7040 C.3     1  UNL1        0.1270
      2  C          4.5740    1.0470    1.9320 C.2     1  UNL1        0.3030
      3  O          5.2950    0.1860    2.4940 O.2     1  UNL1       -0.2520
      4  O          3.3400    1.3290    2.4950 O.3     1  UNL1       -0.4810
      5  H          3.2710    1.4710    3.5060 H       1  UNL1        0.2960
      6  C          6.5230    1.7880    0.7120 C.3     1  UNL1        0.0470
      7  C          7.1470    1.0230   -0.3660 C.2     1  UNL1       -0.0470
      8  C          6.4160    0.1190   -1.1010 C.2     1  UNL1        0.0040
      9  C          8.4810    1.2170   -0.6420 C.2     1  UNL1        0.0040
     10  C          7.0760   -0.5770   -2.1160 C.2     1  UNL1        0.0000
     11  C          9.1320    0.5280   -1.6450 C.2     1  UNL1        0.0000
     12  C          8.4070   -0.3800   -2.3860 C.2     1  UNL1        0.0000
@<TRIPOS>BOND
     1    12    10    2
     2    12    11    1
     3    10     8    1
     4    11     9    2
     5     8     7    2
     6     9     7    1
     7     7     6    1
     8     1     6    1
     9     1     2    1
    10     2     3    2
    11     2     4    1
    12     4     5    1
