@<TRIPOS>MOLECULE
/home/cewinharhar/GITHUB/reincatalyze/data/processed/docking_pred/2023_Apr_20-15:07/f43d8cd6194682d8f3e5600fbc578d0750565092_ligand_2.pdbqt
 12 12 0 0 0
SMALL
GASTEIGER

@<TRIPOS>ATOM
      1  C          8.3050   -1.0290   -1.7250 C.3     1  UNL1        0.1270
      2  C          8.4380   -2.0240   -2.8150 C.2     1  UNL1        0.3030
      3  O          9.5610   -2.4770   -3.1480 O.2     1  UNL1       -0.2520
      4  O          7.3240   -2.4820   -3.4990 O.3     1  UNL1       -0.4810
      5  H          7.2890   -2.3930   -4.5180 H       1  UNL1        0.2960
      6  C          7.1520   -1.4330   -0.8580 C.3     1  UNL1        0.0470
      7  C          6.4320   -0.3080   -0.2640 C.2     1  UNL1       -0.0470
      8  C          6.1450    0.8140   -1.0060 C.2     1  UNL1        0.0040
      9  C          6.0380   -0.3830    1.0520 C.2     1  UNL1        0.0040
     10  C          5.4530    1.8500   -0.3740 C.2     1  UNL1        0.0000
     11  C          5.3540    0.6420    1.6750 C.2     1  UNL1        0.0000
     12  C          5.0640    1.7710    0.9390 C.2     1  UNL1        0.0000
@<TRIPOS>BOND
     1     5     4    1
     2     4     2    1
     3     3     2    2
     4     2     1    1
     5     1     6    1
     6     8    10    1
     7     8     7    2
     8     6     7    1
     9    10    12    2
    10     7     9    1
    11    12    11    1
    12     9    11    2
