@<TRIPOS>MOLECULE
/home/cewinharhar/GITHUB/reincatalyze/data/processed/docking_pred/2023_Apr_20-15:07/f43d8cd6194682d8f3e5600fbc578d0750565092_ligand_2.pdbqt
 12 12 0 0 0
SMALL
GASTEIGER

@<TRIPOS>ATOM
      1  C          8.4270   -0.5760   -2.1970 C.3     1  UNL1        0.1270
      2  C          8.4780   -1.8750   -2.9100 C.2     1  UNL1        0.3030
      3  O          9.5630   -2.4840   -3.0770 O.2     1  UNL1       -0.2520
      4  O          7.3240   -2.4530   -3.4150 O.3     1  UNL1       -0.4810
      5  H          6.6380   -2.8510   -2.7670 H       1  UNL1        0.2960
      6  C          7.0000   -0.1200   -2.1510 C.3     1  UNL1        0.0470
      7  C          6.4760    0.0560   -0.7980 C.2     1  UNL1       -0.0470
      8  C          5.8680    1.2330   -0.4270 C.2     1  UNL1        0.0040
      9  C          6.5950   -0.9730    0.1080 C.2     1  UNL1        0.0040
     10  C          5.3900    1.3310    0.8820 C.2     1  UNL1        0.0000
     11  C          6.1230   -0.8730    1.4020 C.2     1  UNL1        0.0000
     12  C          5.5130    0.3020    1.7810 C.2     1  UNL1        0.0000
@<TRIPOS>BOND
     1     4     2    1
     2     4     5    1
     3     3     2    2
     4     2     1    1
     5     1     6    1
     6     6     7    1
     7     7     8    2
     8     7     9    1
     9     8    10    1
    10     9    11    2
    11    10    12    2
    12    11    12    1
