MODEL 1
REMARK VINA RESULT:      -7.3      0.000      0.000
REMARK SMILES O=C(O)CCc1ccccc1
REMARK SMILES IDX 4 1 2 2 1 3 3 4 5 6 6 7 7 8 11 9 8 10 10 11 9 12
REMARK H PARENT 3 5
REMARK Flexibility Score: inf
ROOT
ATOM      1  C   UNL     1       8.466  -0.561  -2.213  1.00  0.00     0.127 C 
ENDROOT
BRANCH   1   2
ATOM      2  C   UNL     1       8.517  -1.849  -2.944  1.00  0.00     0.303 C 
ATOM      3  O   UNL     1       9.605  -2.450  -3.129  1.00  0.00    -0.252 OA
BRANCH   2   4
ATOM      4  O   UNL     1       7.362  -2.428  -3.445  1.00  0.00    -0.481 OA
ATOM      5  H   UNL     1       7.121  -2.293  -4.431  1.00  0.00     0.296 HD
ENDBRANCH   2   4
ENDBRANCH   1   2
BRANCH   1   6
ATOM      6  C   UNL     1       7.042  -0.097  -2.178  1.00  0.00     0.047 C 
BRANCH   6   7
ATOM      7  C   UNL     1       6.499   0.054  -0.829  1.00  0.00    -0.047 A 
ATOM      8  C   UNL     1       6.629  -0.954   0.098  1.00  0.00     0.004 A 
ATOM      9  C   UNL     1       5.855   1.222  -0.491  1.00  0.00     0.004 A 
ATOM     10  C   UNL     1       6.087  -0.740   1.368  1.00  0.00     0.000 A 
ATOM     11  C   UNL     1       5.320   1.431   0.765  1.00  0.00     0.000 A 
ATOM     12  C   UNL     1       5.445   0.426   1.699  1.00  0.00     0.000 A 
ENDBRANCH   6   7
ENDBRANCH   1   6
TORSDOF 4
ENDMDL
MODEL 2
REMARK VINA RESULT:      -7.3      0.091      1.439
REMARK SMILES O=C(O)CCc1ccccc1
REMARK SMILES IDX 4 1 2 2 1 3 3 4 5 6 6 7 7 8 11 9 8 10 10 11 9 12
REMARK H PARENT 3 5
REMARK Flexibility Score: inf
ROOT
ATOM      1  C   UNL     1       8.419  -0.577  -2.179  1.00  0.00     0.127 C 
ENDROOT
BRANCH   1   2
ATOM      2  C   UNL     1       8.474  -1.870  -2.901  1.00  0.00     0.303 C 
ATOM      3  O   UNL     1       9.563  -2.470  -3.080  1.00  0.00    -0.252 OA
BRANCH   2   4
ATOM      4  O   UNL     1       7.321  -2.453  -3.401  1.00  0.00    -0.481 OA
ATOM      5  H   UNL     1       6.724  -3.000  -2.775  1.00  0.00     0.296 HD
ENDBRANCH   2   4
ENDBRANCH   1   2
BRANCH   1   6
ATOM      6  C   UNL     1       6.993  -0.119  -2.141  1.00  0.00     0.047 C 
BRANCH   6   7
ATOM      7  C   UNL     1       6.462   0.061  -0.791  1.00  0.00    -0.047 A 
ATOM      8  C   UNL     1       5.837   1.232  -0.431  1.00  0.00     0.004 A 
ATOM      9  C   UNL     1       6.592  -0.960   0.123  1.00  0.00     0.004 A 
ATOM     10  C   UNL     1       5.353   1.334   0.875  1.00  0.00     0.000 A 
ATOM     11  C   UNL     1       6.113  -0.857   1.414  1.00  0.00     0.000 A 
ATOM     12  C   UNL     1       5.486   0.313   1.783  1.00  0.00     0.000 A 
ENDBRANCH   6   7
ENDBRANCH   1   6
TORSDOF 4
ENDMDL
MODEL 3
REMARK VINA RESULT:      -6.7      3.381      5.076
REMARK SMILES O=C(O)CCc1ccccc1
REMARK SMILES IDX 4 1 2 2 1 3 3 4 5 6 6 7 7 8 11 9 8 10 10 11 9 12
REMARK H PARENT 3 5
REMARK Flexibility Score: inf
ROOT
ATOM      1  C   UNL     1       4.987   1.756   0.667  1.00  0.00     0.127 C 
ENDROOT
BRANCH   1   2
ATOM      2  C   UNL     1       4.491   1.100   1.900  1.00  0.00     0.303 C 
ATOM      3  O   UNL     1       5.158   0.205   2.474  1.00  0.00    -0.252 OA
BRANCH   2   4
ATOM      4  O   UNL     1       3.273   1.459   2.454  1.00  0.00    -0.481 OA
ATOM      5  H   UNL     1       3.156   1.429   3.470  1.00  0.00     0.296 HD
ENDBRANCH   2   4
ENDBRANCH   1   2
BRANCH   1   6
ATOM      6  C   UNL     1       6.484   1.798   0.726  1.00  0.00     0.047 C 
BRANCH   6   7
ATOM      7  C   UNL     1       7.142   1.050  -0.345  1.00  0.00    -0.047 A 
ATOM      8  C   UNL     1       8.478   1.237  -0.615  1.00  0.00     0.004 A 
ATOM      9  C   UNL     1       6.409   0.150  -1.083  1.00  0.00     0.004 A 
ATOM     10  C   UNL     1       9.041   0.488  -1.651  1.00  0.00     0.000 A 
ATOM     11  C   UNL     1       6.967  -0.589  -2.108  1.00  0.00     0.000 A 
ATOM     12  C   UNL     1       8.305  -0.407  -2.385  1.00  0.00     0.000 A 
ENDBRANCH   6   7
ENDBRANCH   1   6
TORSDOF 4
ENDMDL
MODEL 4
REMARK VINA RESULT:      -6.6      1.951      2.298
REMARK SMILES O=C(O)CCc1ccccc1
REMARK SMILES IDX 4 1 2 2 1 3 3 4 5 6 6 7 7 8 11 9 8 10 10 11 9 12
REMARK H PARENT 3 5
REMARK Flexibility Score: inf
ROOT
ATOM      1  C   UNL     1       8.274   0.157  -2.125  1.00  0.00     0.127 C 
ENDROOT
BRANCH   1   2
ATOM      2  C   UNL     1       9.398   0.324  -1.174  1.00  0.00     0.303 C 
ATOM      3  O   UNL     1       9.479  -0.372  -0.132  1.00  0.00    -0.252 OA
BRANCH   2   4
ATOM      4  O   UNL     1      10.395   1.258  -1.410  1.00  0.00    -0.481 OA
ATOM      5  H   UNL     1      10.218   2.024  -2.066  1.00  0.00     0.296 HD
ENDBRANCH   2   4
ENDBRANCH   1   2
BRANCH   1   6
ATOM      6  C   UNL     1       7.185  -0.609  -1.436  1.00  0.00     0.047 C 
BRANCH   6   7
ATOM      7  C   UNL     1       6.382   0.195  -0.517  1.00  0.00    -0.047 A 
ATOM      8  C   UNL     1       6.125  -0.244   0.761  1.00  0.00     0.004 A 
ATOM      9  C   UNL     1       5.884   1.405  -0.943  1.00  0.00     0.004 A 
ATOM     10  C   UNL     1       5.352   0.577   1.585  1.00  0.00     0.000 A 
ATOM     11  C   UNL     1       5.119   2.215  -0.127  1.00  0.00     0.000 A 
ATOM     12  C   UNL     1       4.856   1.781   1.155  1.00  0.00     0.000 A 
ENDBRANCH   6   7
ENDBRANCH   1   6
TORSDOF 4
ENDMDL
MODEL 5
REMARK VINA RESULT:      -6.5      3.714      4.972
REMARK SMILES O=C(O)CCc1ccccc1
REMARK SMILES IDX 4 1 2 2 1 3 3 4 5 6 6 7 7 8 11 9 8 10 10 11 9 12
REMARK H PARENT 3 5
REMARK Flexibility Score: inf
ROOT
ATOM      1  C   UNL     1       5.342   2.924   0.071  1.00  0.00     0.127 C 
ENDROOT
BRANCH   1   2
ATOM      2  C   UNL     1       6.203   3.866   0.825  1.00  0.00     0.303 C 
ATOM      3  O   UNL     1       6.862   4.758   0.236  1.00  0.00    -0.252 OA
BRANCH   2   4
ATOM      4  O   UNL     1       6.303   3.787   2.205  1.00  0.00    -0.481 OA
ATOM      5  H   UNL     1       6.374   4.649   2.752  1.00  0.00     0.296 HD
ENDBRANCH   2   4
ENDBRANCH   1   2
BRANCH   1   6
ATOM      6  C   UNL     1       5.312   1.620   0.809  1.00  0.00     0.047 C 
BRANCH   6   7
ATOM      7  C   UNL     1       6.035   0.541   0.138  1.00  0.00    -0.047 A 
ATOM      8  C   UNL     1       6.437  -0.575   0.835  1.00  0.00     0.004 A 
ATOM      9  C   UNL     1       6.311   0.651  -1.205  1.00  0.00     0.004 A 
ATOM     10  C   UNL     1       7.123  -1.567   0.130  1.00  0.00     0.000 A 
ATOM     11  C   UNL     1       6.989  -0.330  -1.900  1.00  0.00     0.000 A 
ATOM     12  C   UNL     1       7.396  -1.451  -1.210  1.00  0.00     0.000 A 
ENDBRANCH   6   7
ENDBRANCH   1   6
TORSDOF 4
ENDMDL
