@<TRIPOS>MOLECULE
/home/cewinharhar/GITHUB/reincatalyze/data/processed/docking_pred/2023_Apr_20-15:07/f5d21a1fca5b46740ede221944c3c0743e15dd7f_ligand_2.pdbqt
 12 12 0 0 0
SMALL
GASTEIGER

@<TRIPOS>ATOM
      1  C          8.4190   -0.5770   -2.1790 C.3     1  UNL1        0.1270
      2  C          8.4740   -1.8700   -2.9010 C.2     1  UNL1        0.3030
      3  O          9.5630   -2.4700   -3.0800 O.2     1  UNL1       -0.2520
      4  O          7.3210   -2.4530   -3.4010 O.3     1  UNL1       -0.4810
      5  H          6.7240   -3.0000   -2.7750 H       1  UNL1        0.2960
      6  C          6.9930   -0.1190   -2.1410 C.3     1  UNL1        0.0470
      7  C          6.4620    0.0610   -0.7910 C.2     1  UNL1       -0.0470
      8  C          5.8370    1.2320   -0.4310 C.2     1  UNL1        0.0040
      9  C          6.5920   -0.9600    0.1230 C.2     1  UNL1        0.0040
     10  C          5.3530    1.3340    0.8750 C.2     1  UNL1        0.0000
     11  C          6.1130   -0.8570    1.4140 C.2     1  UNL1        0.0000
     12  C          5.4860    0.3130    1.7830 C.2     1  UNL1        0.0000
@<TRIPOS>BOND
     1     4     2    1
     2     4     5    1
     3     3     2    2
     4     2     1    1
     5     1     6    1
     6     6     7    1
     7     7     8    2
     8     7     9    1
     9     8    10    1
    10     9    11    2
    11    10    12    2
    12    11    12    1
