@<TRIPOS>MOLECULE
/home/cewinharhar/GITHUB/reincatalyze/data/processed/docking_pred/2023_Apr_20-15:07/f5d21a1fca5b46740ede221944c3c0743e15dd7f_ligand_2.pdbqt
 12 12 0 0 0
SMALL
GASTEIGER

@<TRIPOS>ATOM
      1  C          8.2740    0.1570   -2.1250 C.3     1  UNL1        0.1270
      2  C          9.3980    0.3240   -1.1740 C.2     1  UNL1        0.3030
      3  O          9.4790   -0.3720   -0.1320 O.2     1  UNL1       -0.2520
      4  O         10.3950    1.2580   -1.4100 O.3     1  UNL1       -0.4810
      5  H         10.2180    2.0240   -2.0660 H       1  UNL1        0.2960
      6  C          7.1850   -0.6090   -1.4360 C.3     1  UNL1        0.0470
      7  C          6.3820    0.1950   -0.5170 C.2     1  UNL1       -0.0470
      8  C          6.1250   -0.2440    0.7610 C.2     1  UNL1        0.0040
      9  C          5.8840    1.4050   -0.9430 C.2     1  UNL1        0.0040
     10  C          5.3520    0.5770    1.5850 C.2     1  UNL1        0.0000
     11  C          5.1190    2.2150   -0.1270 C.2     1  UNL1        0.0000
     12  C          4.8560    1.7810    1.1550 C.2     1  UNL1        0.0000
@<TRIPOS>BOND
     1     1     6    1
     2     1     2    1
     3     5     4    1
     4     6     7    1
     5     4     2    1
     6     2     3    2
     7     9     7    2
     8     9    11    1
     9     7     8    1
    10    11    12    2
    11     8    10    2
    12    12    10    1
