@<TRIPOS>MOLECULE
/home/cewinharhar/GITHUB/reincatalyze/data/processed/docking_pred/2023_Apr_20-15:07/f5d21a1fca5b46740ede221944c3c0743e15dd7f_ligand_2.pdbqt
 12 12 0 0 0
SMALL
GASTEIGER

@<TRIPOS>ATOM
      1  C          8.4660   -0.5610   -2.2130 C.3     1  UNL1        0.1270
      2  C          8.5170   -1.8490   -2.9440 C.2     1  UNL1        0.3030
      3  O          9.6050   -2.4500   -3.1290 O.2     1  UNL1       -0.2520
      4  O          7.3620   -2.4280   -3.4450 O.3     1  UNL1       -0.4810
      5  H          7.1210   -2.2930   -4.4310 H       1  UNL1        0.2960
      6  C          7.0420   -0.0970   -2.1780 C.3     1  UNL1        0.0470
      7  C          6.4990    0.0540   -0.8290 C.2     1  UNL1       -0.0470
      8  C          6.6290   -0.9540    0.0980 C.2     1  UNL1        0.0040
      9  C          5.8550    1.2220   -0.4910 C.2     1  UNL1        0.0040
     10  C          6.0870   -0.7400    1.3680 C.2     1  UNL1        0.0000
     11  C          5.3200    1.4310    0.7650 C.2     1  UNL1        0.0000
     12  C          5.4450    0.4260    1.6990 C.2     1  UNL1        0.0000
@<TRIPOS>BOND
     1     5     4    1
     2     4     2    1
     3     3     2    2
     4     2     1    1
     5     1     6    1
     6     6     7    1
     7     7     9    2
     8     7     8    1
     9     9    11    1
    10     8    10    2
    11    11    12    2
    12    10    12    1
