@<TRIPOS>MOLECULE
/home/cewinharhar/GITHUB/reincatalyze/data/processed/docking_pred/2023_Apr_20-15:07/f5d21a1fca5b46740ede221944c3c0743e15dd7f_ligand_2.pdbqt
 12 12 0 0 0
SMALL
GASTEIGER

@<TRIPOS>ATOM
      1  C          5.3420    2.9240    0.0710 C.3     1  UNL1        0.1270
      2  C          6.2030    3.8660    0.8250 C.2     1  UNL1        0.3030
      3  O          6.8620    4.7580    0.2360 O.2     1  UNL1       -0.2520
      4  O          6.3030    3.7870    2.2050 O.3     1  UNL1       -0.4810
      5  H          6.3740    4.6490    2.7520 H       1  UNL1        0.2960
      6  C          5.3120    1.6200    0.8090 C.3     1  UNL1        0.0470
      7  C          6.0350    0.5410    0.1380 C.2     1  UNL1       -0.0470
      8  C          6.4370   -0.5750    0.8350 C.2     1  UNL1        0.0040
      9  C          6.3110    0.6510   -1.2050 C.2     1  UNL1        0.0040
     10  C          7.1230   -1.5670    0.1300 C.2     1  UNL1        0.0000
     11  C          6.9890   -0.3300   -1.9000 C.2     1  UNL1        0.0000
     12  C          7.3960   -1.4510   -1.2100 C.2     1  UNL1        0.0000
@<TRIPOS>BOND
     1    11    12    2
     2    11     9    1
     3    12    10    1
     4     9     7    2
     5     1     6    1
     6     1     2    1
     7    10     8    2
     8     7     6    1
     9     7     8    1
    10     3     2    2
    11     2     4    1
    12     4     5    1
