@<TRIPOS>MOLECULE
/home/cewinharhar/GITHUB/reincatalyze/data/processed/docking_pred/2023_Apr_20-15:07/f5d21a1fca5b46740ede221944c3c0743e15dd7f_ligand_2.pdbqt
 12 12 0 0 0
SMALL
GASTEIGER

@<TRIPOS>ATOM
      1  C          4.9870    1.7560    0.6670 C.3     1  UNL1        0.1270
      2  C          4.4910    1.1000    1.9000 C.2     1  UNL1        0.3030
      3  O          5.1580    0.2050    2.4740 O.2     1  UNL1       -0.2520
      4  O          3.2730    1.4590    2.4540 O.3     1  UNL1       -0.4810
      5  H          3.1560    1.4290    3.4700 H       1  UNL1        0.2960
      6  C          6.4840    1.7980    0.7260 C.3     1  UNL1        0.0470
      7  C          7.1420    1.0500   -0.3450 C.2     1  UNL1       -0.0470
      8  C          8.4780    1.2370   -0.6150 C.2     1  UNL1        0.0040
      9  C          6.4090    0.1500   -1.0830 C.2     1  UNL1        0.0040
     10  C          9.0410    0.4880   -1.6510 C.2     1  UNL1        0.0000
     11  C          6.9670   -0.5890   -2.1080 C.2     1  UNL1        0.0000
     12  C          8.3050   -0.4070   -2.3850 C.2     1  UNL1        0.0000
@<TRIPOS>BOND
     1    12    11    2
     2    12    10    1
     3    11     9    1
     4    10     8    2
     5     9     7    2
     6     8     7    1
     7     7     6    1
     8     1     6    1
     9     1     2    1
    10     2     4    1
    11     2     3    2
    12     4     5    1
