MODEL 1
REMARK VINA RESULT:      -7.3      0.000      0.000
REMARK SMILES O=C(O)CCc1ccccc1
REMARK SMILES IDX 4 1 2 2 1 3 3 4 5 6 6 7 7 8 11 9 8 10 10 11 9 12
REMARK H PARENT 3 5
REMARK Flexibility Score: inf
ROOT
ATOM      1  C   UNL     1       8.429  -0.645  -2.131  1.00  0.00     0.127 C 
ENDROOT
BRANCH   1   2
ATOM      2  C   UNL     1       8.474  -1.902  -2.915  1.00  0.00     0.303 C 
ATOM      3  O   UNL     1       9.553  -2.520  -3.091  1.00  0.00    -0.252 OA
BRANCH   2   4
ATOM      4  O   UNL     1       7.323  -2.431  -3.475  1.00  0.00    -0.481 OA
ATOM      5  H   UNL     1       6.410  -2.083  -3.167  1.00  0.00     0.296 HD
ENDBRANCH   2   4
ENDBRANCH   1   2
BRANCH   1   6
ATOM      6  C   UNL     1       7.014  -0.153  -2.111  1.00  0.00     0.047 C 
BRANCH   6   7
ATOM      7  C   UNL     1       6.467   0.029  -0.768  1.00  0.00    -0.047 A 
ATOM      8  C   UNL     1       6.583  -0.962   0.179  1.00  0.00     0.004 A 
ATOM      9  C   UNL     1       5.833   1.209  -0.455  1.00  0.00     0.004 A 
ATOM     10  C   UNL     1       6.037  -0.719   1.442  1.00  0.00     0.000 A 
ATOM     11  C   UNL     1       5.294   1.447   0.794  1.00  0.00     0.000 A 
ATOM     12  C   UNL     1       5.405   0.459   1.748  1.00  0.00     0.000 A 
ENDBRANCH   6   7
ENDBRANCH   1   6
TORSDOF 4
ENDMDL
MODEL 2
REMARK VINA RESULT:      -7.3      0.129      1.731
REMARK SMILES O=C(O)CCc1ccccc1
REMARK SMILES IDX 4 1 2 2 1 3 3 4 5 6 6 7 7 8 11 9 8 10 10 11 9 12
REMARK H PARENT 3 5
REMARK Flexibility Score: inf
ROOT
ATOM      1  C   UNL     1       8.419  -0.676  -2.038  1.00  0.00     0.127 C 
ENDROOT
BRANCH   1   2
ATOM      2  C   UNL     1       8.382  -1.903  -2.868  1.00  0.00     0.303 C 
ATOM      3  O   UNL     1       7.292  -2.409  -3.233  1.00  0.00    -0.252 OA
BRANCH   2   4
ATOM      4  O   UNL     1       9.554  -2.528  -3.264  1.00  0.00    -0.481 OA
ATOM      5  H   UNL     1      10.129  -3.004  -2.564  1.00  0.00     0.296 HD
ENDBRANCH   2   4
ENDBRANCH   1   2
BRANCH   1   6
ATOM      6  C   UNL     1       7.055  -0.057  -2.052  1.00  0.00     0.047 C 
BRANCH   6   7
ATOM      7  C   UNL     1       6.467   0.119  -0.725  1.00  0.00    -0.047 A 
ATOM      8  C   UNL     1       5.806   1.279  -0.397  1.00  0.00     0.004 A 
ATOM      9  C   UNL     1       6.581  -0.895   0.198  1.00  0.00     0.004 A 
ATOM     10  C   UNL     1       5.268   1.377   0.889  1.00  0.00     0.000 A 
ATOM     11  C   UNL     1       6.049  -0.796   1.469  1.00  0.00     0.000 A 
ATOM     12  C   UNL     1       5.385   0.363   1.806  1.00  0.00     0.000 A 
ENDBRANCH   6   7
ENDBRANCH   1   6
TORSDOF 4
ENDMDL
MODEL 3
REMARK VINA RESULT:      -6.7      3.356      5.050
REMARK SMILES O=C(O)CCc1ccccc1
REMARK SMILES IDX 4 1 2 2 1 3 3 4 5 6 6 7 7 8 11 9 8 10 10 11 9 12
REMARK H PARENT 3 5
REMARK Flexibility Score: inf
ROOT
ATOM      1  C   UNL     1       5.045   1.742   0.670  1.00  0.00     0.127 C 
ENDROOT
BRANCH   1   2
ATOM      2  C   UNL     1       4.598   1.058   1.906  1.00  0.00     0.303 C 
ATOM      3  O   UNL     1       5.325   0.211   2.481  1.00  0.00    -0.252 OA
BRANCH   2   4
ATOM      4  O   UNL     1       3.361   1.337   2.464  1.00  0.00    -0.481 OA
ATOM      5  H   UNL     1       2.560   0.745   2.228  1.00  0.00     0.296 HD
ENDBRANCH   2   4
ENDBRANCH   1   2
BRANCH   1   6
ATOM      6  C   UNL     1       6.542   1.806   0.682  1.00  0.00     0.047 C 
BRANCH   6   7
ATOM      7  C   UNL     1       7.179   1.032  -0.382  1.00  0.00    -0.047 A 
ATOM      8  C   UNL     1       8.513   1.200  -0.672  1.00  0.00     0.004 A 
ATOM      9  C   UNL     1       6.428   0.125  -1.094  1.00  0.00     0.004 A 
ATOM     10  C   UNL     1       9.055   0.426  -1.701  1.00  0.00     0.000 A 
ATOM     11  C   UNL     1       6.966  -0.639  -2.111  1.00  0.00     0.000 A 
ATOM     12  C   UNL     1       8.302  -0.475  -2.409  1.00  0.00     0.000 A 
ENDBRANCH   6   7
ENDBRANCH   1   6
TORSDOF 4
ENDMDL
MODEL 4
REMARK VINA RESULT:      -6.7      1.960      2.300
REMARK SMILES O=C(O)CCc1ccccc1
REMARK SMILES IDX 4 1 2 2 1 3 3 4 5 6 6 7 7 8 11 9 8 10 10 11 9 12
REMARK H PARENT 3 5
REMARK Flexibility Score: inf
ROOT
ATOM      1  C   UNL     1       8.268   0.245  -2.125  1.00  0.00     0.127 C 
ENDROOT
BRANCH   1   2
ATOM      2  C   UNL     1       9.411   0.371  -1.191  1.00  0.00     0.303 C 
ATOM      3  O   UNL     1       9.510  -0.367  -0.179  1.00  0.00    -0.252 OA
BRANCH   2   4
ATOM      4  O   UNL     1      10.406   1.311  -1.409  1.00  0.00    -0.481 OA
ATOM      5  H   UNL     1      10.259   2.042  -2.110  1.00  0.00     0.296 HD
ENDBRANCH   2   4
ENDBRANCH   1   2
BRANCH   1   6
ATOM      6  C   UNL     1       7.196  -0.557  -1.451  1.00  0.00     0.047 C 
BRANCH   6   7
ATOM      7  C   UNL     1       6.388   0.208  -0.503  1.00  0.00    -0.047 A 
ATOM      8  C   UNL     1       6.170  -0.259   0.772  1.00  0.00     0.004 A 
ATOM      9  C   UNL     1       5.845   1.408  -0.900  1.00  0.00     0.004 A 
ATOM     10  C   UNL     1       5.389   0.525   1.625  1.00  0.00     0.000 A 
ATOM     11  C   UNL     1       5.072   2.181  -0.056  1.00  0.00     0.000 A 
ATOM     12  C   UNL     1       4.849   1.720   1.223  1.00  0.00     0.000 A 
ENDBRANCH   6   7
ENDBRANCH   1   6
TORSDOF 4
ENDMDL
MODEL 5
REMARK VINA RESULT:      -6.6      1.994      2.540
REMARK SMILES O=C(O)CCc1ccccc1
REMARK SMILES IDX 4 1 2 2 1 3 3 4 5 6 6 7 7 8 11 9 8 10 10 11 9 12
REMARK H PARENT 3 5
REMARK Flexibility Score: inf
ROOT
ATOM      1  C   UNL     1       7.854  -2.221   0.892  1.00  0.00     0.127 C 
ENDROOT
BRANCH   1   2
ATOM      2  C   UNL     1       8.712  -3.309   0.366  1.00  0.00     0.303 C 
ATOM      3  O   UNL     1       9.616  -3.823   1.071  1.00  0.00    -0.252 OA
BRANCH   2   4
ATOM      4  O   UNL     1       8.541  -3.789  -0.922  1.00  0.00    -0.481 OA
ATOM      5  H   UNL     1       9.360  -3.916  -1.523  1.00  0.00     0.296 HD
ENDBRANCH   2   4
ENDBRANCH   1   2
BRANCH   1   6
ATOM      6  C   UNL     1       7.472  -1.330  -0.250  1.00  0.00     0.047 C 
BRANCH   6   7
ATOM      7  C   UNL     1       6.574  -0.238   0.123  1.00  0.00    -0.047 A 
ATOM      8  C   UNL     1       6.009  -0.189   1.376  1.00  0.00     0.004 A 
ATOM      9  C   UNL     1       6.300   0.749  -0.796  1.00  0.00     0.004 A 
ATOM     10  C   UNL     1       5.162   0.884   1.663  1.00  0.00     0.000 A 
ATOM     11  C   UNL     1       5.463   1.809  -0.510  1.00  0.00     0.000 A 
ATOM     12  C   UNL     1       4.891   1.865   0.743  1.00  0.00     0.000 A 
ENDBRANCH   6   7
ENDBRANCH   1   6
TORSDOF 4
ENDMDL
