@<TRIPOS>MOLECULE
/home/cewinharhar/GITHUB/reincatalyze/data/processed/docking_pred/2023_Apr_20-15:07/f6e3ea477952fa895fac814ddb6280364cb1460b_ligand_2.pdbqt
 12 12 0 0 0
SMALL
GASTEIGER

@<TRIPOS>ATOM
      1  C          7.8540   -2.2210    0.8920 C.3     1  UNL1        0.1270
      2  C          8.7120   -3.3090    0.3660 C.2     1  UNL1        0.3030
      3  O          9.6160   -3.8230    1.0710 O.2     1  UNL1       -0.2520
      4  O          8.5410   -3.7890   -0.9220 O.3     1  UNL1       -0.4810
      5  H          9.3600   -3.9160   -1.5230 H       1  UNL1        0.2960
      6  C          7.4720   -1.3300   -0.2500 C.3     1  UNL1        0.0470
      7  C          6.5740   -0.2380    0.1230 C.2     1  UNL1       -0.0470
      8  C          6.0090   -0.1890    1.3760 C.2     1  UNL1        0.0040
      9  C          6.3000    0.7490   -0.7960 C.2     1  UNL1        0.0040
     10  C          5.1620    0.8840    1.6630 C.2     1  UNL1        0.0000
     11  C          5.4630    1.8090   -0.5100 C.2     1  UNL1        0.0000
     12  C          4.8910    1.8650    0.7430 C.2     1  UNL1        0.0000
@<TRIPOS>BOND
     1     5     4    1
     2     4     2    1
     3     9    11    1
     4     9     7    2
     5    11    12    2
     6     6     7    1
     7     6     1    1
     8     7     8    1
     9     2     1    1
    10     2     3    2
    11    12    10    1
    12     8    10    2
