@<TRIPOS>MOLECULE
/home/cewinharhar/GITHUB/reincatalyze/data/processed/docking_pred/2023_Apr_20-15:07/f6e3ea477952fa895fac814ddb6280364cb1460b_ligand_2.pdbqt
 12 12 0 0 0
SMALL
GASTEIGER

@<TRIPOS>ATOM
      1  C          8.4190   -0.6760   -2.0380 C.3     1  UNL1        0.1270
      2  C          8.3820   -1.9030   -2.8680 C.2     1  UNL1        0.3030
      3  O          7.2920   -2.4090   -3.2330 O.2     1  UNL1       -0.2520
      4  O          9.5540   -2.5280   -3.2640 O.3     1  UNL1       -0.4810
      5  H         10.1290   -3.0040   -2.5640 H       1  UNL1        0.2960
      6  C          7.0550   -0.0570   -2.0520 C.3     1  UNL1        0.0470
      7  C          6.4670    0.1190   -0.7250 C.2     1  UNL1       -0.0470
      8  C          5.8060    1.2790   -0.3970 C.2     1  UNL1        0.0040
      9  C          6.5810   -0.8950    0.1980 C.2     1  UNL1        0.0040
     10  C          5.2680    1.3770    0.8890 C.2     1  UNL1        0.0000
     11  C          6.0490   -0.7960    1.4690 C.2     1  UNL1        0.0000
     12  C          5.3850    0.3630    1.8060 C.2     1  UNL1        0.0000
@<TRIPOS>BOND
     1     4     2    1
     2     4     5    1
     3     3     2    2
     4     2     1    1
     5     6     1    1
     6     6     7    1
     7     7     8    2
     8     7     9    1
     9     8    10    1
    10     9    11    2
    11    10    12    2
    12    11    12    1
