@<TRIPOS>MOLECULE
/home/cewinharhar/GITHUB/reincatalyze/data/processed/docking_pred/2023_Apr_20-15:07/f6e3ea477952fa895fac814ddb6280364cb1460b_ligand_2.pdbqt
 12 12 0 0 0
SMALL
GASTEIGER

@<TRIPOS>ATOM
      1  C          8.4290   -0.6450   -2.1310 C.3     1  UNL1        0.1270
      2  C          8.4740   -1.9020   -2.9150 C.2     1  UNL1        0.3030
      3  O          9.5530   -2.5200   -3.0910 O.2     1  UNL1       -0.2520
      4  O          7.3230   -2.4310   -3.4750 O.3     1  UNL1       -0.4810
      5  H          6.4100   -2.0830   -3.1670 H       1  UNL1        0.2960
      6  C          7.0140   -0.1530   -2.1110 C.3     1  UNL1        0.0470
      7  C          6.4670    0.0290   -0.7680 C.2     1  UNL1       -0.0470
      8  C          6.5830   -0.9620    0.1790 C.2     1  UNL1        0.0040
      9  C          5.8330    1.2090   -0.4550 C.2     1  UNL1        0.0040
     10  C          6.0370   -0.7190    1.4420 C.2     1  UNL1        0.0000
     11  C          5.2940    1.4470    0.7940 C.2     1  UNL1        0.0000
     12  C          5.4050    0.4590    1.7480 C.2     1  UNL1        0.0000
@<TRIPOS>BOND
     1     4     5    1
     2     4     2    1
     3     3     2    2
     4     2     1    1
     5     1     6    1
     6     6     7    1
     7     7     9    2
     8     7     8    1
     9     9    11    1
    10     8    10    2
    11    11    12    2
    12    10    12    1
