@<TRIPOS>MOLECULE
/home/cewinharhar/GITHUB/reincatalyze/data/processed/docking_pred/2023_Apr_20-15:07/f6e3ea477952fa895fac814ddb6280364cb1460b_ligand_2.pdbqt
 12 12 0 0 0
SMALL
GASTEIGER

@<TRIPOS>ATOM
      1  C          8.2680    0.2450   -2.1250 C.3     1  UNL1        0.1270
      2  C          9.4110    0.3710   -1.1910 C.2     1  UNL1        0.3030
      3  O          9.5100   -0.3670   -0.1790 O.2     1  UNL1       -0.2520
      4  O         10.4060    1.3110   -1.4090 O.3     1  UNL1       -0.4810
      5  H         10.2590    2.0420   -2.1100 H       1  UNL1        0.2960
      6  C          7.1960   -0.5570   -1.4510 C.3     1  UNL1        0.0470
      7  C          6.3880    0.2080   -0.5030 C.2     1  UNL1       -0.0470
      8  C          6.1700   -0.2590    0.7720 C.2     1  UNL1        0.0040
      9  C          5.8450    1.4080   -0.9000 C.2     1  UNL1        0.0040
     10  C          5.3890    0.5250    1.6250 C.2     1  UNL1        0.0000
     11  C          5.0720    2.1810   -0.0560 C.2     1  UNL1        0.0000
     12  C          4.8490    1.7200    1.2230 C.2     1  UNL1        0.0000
@<TRIPOS>BOND
     1     1     6    1
     2     1     2    1
     3     5     4    1
     4     6     7    1
     5     4     2    1
     6     2     3    2
     7     9     7    2
     8     9    11    1
     9     7     8    1
    10    11    12    2
    11     8    10    2
    12    12    10    1
