@<TRIPOS>MOLECULE
/home/cewinharhar/GITHUB/reincatalyze/data/processed/docking_pred/2023_Apr_20-15:07/f6e3ea477952fa895fac814ddb6280364cb1460b_ligand_2.pdbqt
 12 12 0 0 0
SMALL
GASTEIGER

@<TRIPOS>ATOM
      1  C          5.0450    1.7420    0.6700 C.3     1  UNL1        0.1270
      2  C          4.5980    1.0580    1.9060 C.2     1  UNL1        0.3030
      3  O          5.3250    0.2110    2.4810 O.2     1  UNL1       -0.2520
      4  O          3.3610    1.3370    2.4640 O.3     1  UNL1       -0.4810
      5  H          2.5600    0.7450    2.2280 H       1  UNL1        0.2960
      6  C          6.5420    1.8060    0.6820 C.3     1  UNL1        0.0470
      7  C          7.1790    1.0320   -0.3820 C.2     1  UNL1       -0.0470
      8  C          8.5130    1.2000   -0.6720 C.2     1  UNL1        0.0040
      9  C          6.4280    0.1250   -1.0940 C.2     1  UNL1        0.0040
     10  C          9.0550    0.4260   -1.7010 C.2     1  UNL1        0.0000
     11  C          6.9660   -0.6390   -2.1110 C.2     1  UNL1        0.0000
     12  C          8.3020   -0.4750   -2.4090 C.2     1  UNL1        0.0000
@<TRIPOS>BOND
     1    12    11    2
     2    12    10    1
     3    11     9    1
     4    10     8    2
     5     9     7    2
     6     8     7    1
     7     7     6    1
     8     1     6    1
     9     1     2    1
    10     2     4    1
    11     2     3    2
    12     5     4    1
