@<TRIPOS>MOLECULE
/home/cewinharhar/GITHUB/reincatalyze/data/processed/docking_pred/2023_Apr_20-15:07/f74925e0f2dbd9eb14447f51d5c862455f02ecd6_ligand_2.pdbqt
 12 12 0 0 0
SMALL
GASTEIGER

@<TRIPOS>ATOM
      1  C          5.0370    1.7840    0.7380 C.3     1  UNL1        0.1270
      2  C          4.4800    1.1010    1.9300 C.2     1  UNL1        0.3030
      3  O          5.1030    0.1710    2.4980 O.2     1  UNL1       -0.2520
      4  O          3.2500    1.4730    2.4500 O.3     1  UNL1       -0.4810
      5  H          2.6740    0.7710    2.9230 H       1  UNL1        0.2960
      6  C          6.5310    1.6910    0.7990 C.3     1  UNL1        0.0470
      7  C          7.1260    0.9460   -0.3090 C.2     1  UNL1       -0.0470
      8  C          6.4070   -0.0210   -0.9730 C.2     1  UNL1        0.0040
      9  C          8.4200    1.2230   -0.6870 C.2     1  UNL1        0.0040
     10  C          7.0380   -0.6920   -2.0230 C.2     1  UNL1        0.0000
     11  C          9.0420    0.5580   -1.7240 C.2     1  UNL1        0.0000
     12  C          8.3290   -0.4120   -2.3940 C.2     1  UNL1        0.0000
@<TRIPOS>BOND
     1    12    10    2
     2    12    11    1
     3    10     8    1
     4    11     9    2
     5     8     7    2
     6     9     7    1
     7     7     6    1
     8     1     6    1
     9     1     2    1
    10     2     4    1
    11     2     3    2
    12     4     5    1
