@<TRIPOS>MOLECULE
/home/cewinharhar/GITHUB/reincatalyze/data/processed/docking_pred/2023_Apr_20-15:07/f74925e0f2dbd9eb14447f51d5c862455f02ecd6_ligand_2.pdbqt
 12 12 0 0 0
SMALL
GASTEIGER

@<TRIPOS>ATOM
      1  C          5.0690    1.7210    0.7060 C.3     1  UNL1        0.1270
      2  C          4.5870    1.0350    1.9280 C.2     1  UNL1        0.3030
      3  O          5.2800    0.1570    2.4980 O.2     1  UNL1       -0.2520
      4  O          3.3520    1.3450    2.4750 O.3     1  UNL1       -0.4810
      5  H          3.2310    2.2370    2.9630 H       1  UNL1        0.2960
      6  C          6.5670    1.7390    0.7370 C.3     1  UNL1        0.0470
      7  C          7.1940    0.9970   -0.3560 C.2     1  UNL1       -0.0470
      8  C          8.5100    1.2160   -0.6910 C.2     1  UNL1        0.0040
      9  C          6.4520    0.0700   -1.0500 C.2     1  UNL1        0.0040
     10  C          9.0430    0.4710   -1.7450 C.2     1  UNL1        0.0000
     11  C          6.9800   -0.6660   -2.0920 C.2     1  UNL1        0.0000
     12  C          8.2980   -0.4520   -2.4340 C.2     1  UNL1        0.0000
@<TRIPOS>BOND
     1    12    11    2
     2    12    10    1
     3    11     9    1
     4    10     8    2
     5     9     7    2
     6     8     7    1
     7     7     6    1
     8     1     6    1
     9     1     2    1
    10     2     4    1
    11     2     3    2
    12     4     5    1
