@<TRIPOS>MOLECULE
/home/cewinharhar/GITHUB/reincatalyze/data/processed/docking_pred/2023_Apr_20-15:07/f74925e0f2dbd9eb14447f51d5c862455f02ecd6_ligand_2.pdbqt
 12 12 0 0 0
SMALL
GASTEIGER

@<TRIPOS>ATOM
      1  C          5.4190    2.9630   -0.0080 C.3     1  UNL1        0.1270
      2  C          6.2370    3.9040    0.7950 C.2     1  UNL1        0.3030
      3  O          6.9650    4.7660    0.2440 O.2     1  UNL1       -0.2520
      4  O          6.2200    3.8560    2.1790 O.3     1  UNL1       -0.4810
      5  H          6.4720    2.9840    2.6530 H       1  UNL1        0.2960
      6  C          4.8940    1.8980    0.9050 C.3     1  UNL1        0.0470
      7  C          5.6970    0.6760    0.9160 C.2     1  UNL1       -0.0470
      8  C          5.8170   -0.0770    2.0610 C.2     1  UNL1        0.0040
      9  C          6.3330    0.2810   -0.2380 C.2     1  UNL1        0.0040
     10  C          6.5980   -1.2330    1.9980 C.2     1  UNL1        0.0000
     11  C          7.1060   -0.8620   -0.2980 C.2     1  UNL1        0.0000
     12  C          7.2320   -1.6210    0.8450 C.2     1  UNL1        0.0000
@<TRIPOS>BOND
     1    11     9    1
     2    11    12    2
     3     9     7    2
     4     1     2    1
     5     1     6    1
     6     3     2    2
     7     2     4    1
     8    12    10    1
     9     6     7    1
    10     7     8    1
    11    10     8    2
    12     4     5    1
