@<TRIPOS>MOLECULE
/home/cewinharhar/GITHUB/reincatalyze/data/processed/docking_pred/2023_Apr_20-15:07/f74925e0f2dbd9eb14447f51d5c862455f02ecd6_ligand_2.pdbqt
 12 12 0 0 0
SMALL
GASTEIGER

@<TRIPOS>ATOM
      1  C          8.4170   -0.6410   -2.1300 C.3     1  UNL1        0.1270
      2  C          8.4620   -1.9040   -2.9030 C.2     1  UNL1        0.3030
      3  O          9.5440   -2.5140   -3.0920 O.2     1  UNL1       -0.2520
      4  O          7.3070   -2.4490   -3.4410 O.3     1  UNL1       -0.4810
      5  H          6.4050   -2.0110   -3.2370 H       1  UNL1        0.2960
      6  C          7.0020   -0.1490   -2.1140 C.3     1  UNL1        0.0470
      7  C          6.4580    0.0540   -0.7720 C.2     1  UNL1       -0.0470
      8  C          5.8240    1.2290   -0.4400 C.2     1  UNL1        0.0040
      9  C          6.5850   -0.9480    0.1630 C.2     1  UNL1        0.0040
     10  C          5.3290    1.3540    0.8600 C.2     1  UNL1        0.0000
     11  C          6.0950   -0.8220    1.4470 C.2     1  UNL1        0.0000
     12  C          5.4590    0.3520    1.7880 C.2     1  UNL1        0.0000
@<TRIPOS>BOND
     1     4     5    1
     2     4     2    1
     3     3     2    2
     4     2     1    1
     5     1     6    1
     6     6     7    1
     7     7     8    2
     8     7     9    1
     9     8    10    1
    10     9    11    2
    11    10    12    2
    12    11    12    1
