MODEL 1
REMARK VINA RESULT:      -7.3      0.000      0.000
REMARK SMILES O=C(O)CCc1ccccc1
REMARK SMILES IDX 4 1 2 2 1 3 3 4 5 6 6 7 7 8 11 9 8 10 10 11 9 12
REMARK H PARENT 3 5
REMARK Flexibility Score: inf
ROOT
ATOM      1  C   UNL     1       8.417  -0.641  -2.130  1.00  0.00     0.127 C 
ENDROOT
BRANCH   1   2
ATOM      2  C   UNL     1       8.462  -1.904  -2.903  1.00  0.00     0.303 C 
ATOM      3  O   UNL     1       9.544  -2.514  -3.092  1.00  0.00    -0.252 OA
BRANCH   2   4
ATOM      4  O   UNL     1       7.307  -2.449  -3.441  1.00  0.00    -0.481 OA
ATOM      5  H   UNL     1       6.405  -2.011  -3.237  1.00  0.00     0.296 HD
ENDBRANCH   2   4
ENDBRANCH   1   2
BRANCH   1   6
ATOM      6  C   UNL     1       7.002  -0.149  -2.114  1.00  0.00     0.047 C 
BRANCH   6   7
ATOM      7  C   UNL     1       6.458   0.054  -0.772  1.00  0.00    -0.047 A 
ATOM      8  C   UNL     1       5.824   1.229  -0.440  1.00  0.00     0.004 A 
ATOM      9  C   UNL     1       6.585  -0.948   0.163  1.00  0.00     0.004 A 
ATOM     10  C   UNL     1       5.329   1.354   0.860  1.00  0.00     0.000 A 
ATOM     11  C   UNL     1       6.095  -0.822   1.447  1.00  0.00     0.000 A 
ATOM     12  C   UNL     1       5.459   0.352   1.788  1.00  0.00     0.000 A 
ENDBRANCH   6   7
ENDBRANCH   1   6
TORSDOF 4
ENDMDL
MODEL 2
REMARK VINA RESULT:      -7.3      0.111      1.731
REMARK SMILES O=C(O)CCc1ccccc1
REMARK SMILES IDX 4 1 2 2 1 3 3 4 5 6 6 7 7 8 11 9 8 10 10 11 9 12
REMARK H PARENT 3 5
REMARK Flexibility Score: inf
ROOT
ATOM      1  C   UNL     1       8.423  -0.638  -2.113  1.00  0.00     0.127 C 
ENDROOT
BRANCH   1   2
ATOM      2  C   UNL     1       8.389  -1.899  -2.891  1.00  0.00     0.303 C 
ATOM      3  O   UNL     1       7.300  -2.420  -3.238  1.00  0.00    -0.252 OA
BRANCH   2   4
ATOM      4  O   UNL     1       9.562  -2.539  -3.258  1.00  0.00    -0.481 OA
ATOM      5  H   UNL     1      10.243  -2.043  -3.839  1.00  0.00     0.296 HD
ENDBRANCH   2   4
ENDBRANCH   1   2
BRANCH   1   6
ATOM      6  C   UNL     1       7.041  -0.061  -2.092  1.00  0.00     0.047 C 
BRANCH   6   7
ATOM      7  C   UNL     1       6.478   0.085  -0.751  1.00  0.00    -0.047 A 
ATOM      8  C   UNL     1       6.600  -0.923   0.177  1.00  0.00     0.004 A 
ATOM      9  C   UNL     1       5.822   1.249  -0.421  1.00  0.00     0.004 A 
ATOM     10  C   UNL     1       6.040  -0.714   1.439  1.00  0.00     0.000 A 
ATOM     11  C   UNL     1       5.268   1.453   0.827  1.00  0.00     0.000 A 
ATOM     12  C   UNL     1       5.386   0.448   1.762  1.00  0.00     0.000 A 
ENDBRANCH   6   7
ENDBRANCH   1   6
TORSDOF 4
ENDMDL
MODEL 3
REMARK VINA RESULT:      -6.8      3.386      5.094
REMARK SMILES O=C(O)CCc1ccccc1
REMARK SMILES IDX 4 1 2 2 1 3 3 4 5 6 6 7 7 8 11 9 8 10 10 11 9 12
REMARK H PARENT 3 5
REMARK Flexibility Score: inf
ROOT
ATOM      1  C   UNL     1       5.037   1.784   0.738  1.00  0.00     0.127 C 
ENDROOT
BRANCH   1   2
ATOM      2  C   UNL     1       4.480   1.101   1.930  1.00  0.00     0.303 C 
ATOM      3  O   UNL     1       5.103   0.171   2.498  1.00  0.00    -0.252 OA
BRANCH   2   4
ATOM      4  O   UNL     1       3.250   1.473   2.450  1.00  0.00    -0.481 OA
ATOM      5  H   UNL     1       2.674   0.771   2.923  1.00  0.00     0.296 HD
ENDBRANCH   2   4
ENDBRANCH   1   2
BRANCH   1   6
ATOM      6  C   UNL     1       6.531   1.691   0.799  1.00  0.00     0.047 C 
BRANCH   6   7
ATOM      7  C   UNL     1       7.126   0.946  -0.309  1.00  0.00    -0.047 A 
ATOM      8  C   UNL     1       6.407  -0.021  -0.973  1.00  0.00     0.004 A 
ATOM      9  C   UNL     1       8.420   1.223  -0.687  1.00  0.00     0.004 A 
ATOM     10  C   UNL     1       7.038  -0.692  -2.023  1.00  0.00     0.000 A 
ATOM     11  C   UNL     1       9.042   0.558  -1.724  1.00  0.00     0.000 A 
ATOM     12  C   UNL     1       8.329  -0.412  -2.394  1.00  0.00     0.000 A 
ENDBRANCH   6   7
ENDBRANCH   1   6
TORSDOF 4
ENDMDL
MODEL 4
REMARK VINA RESULT:      -6.7      3.355      5.027
REMARK SMILES O=C(O)CCc1ccccc1
REMARK SMILES IDX 4 1 2 2 1 3 3 4 5 6 6 7 7 8 11 9 8 10 10 11 9 12
REMARK H PARENT 3 5
REMARK Flexibility Score: inf
ROOT
ATOM      1  C   UNL     1       5.069   1.721   0.706  1.00  0.00     0.127 C 
ENDROOT
BRANCH   1   2
ATOM      2  C   UNL     1       4.587   1.035   1.928  1.00  0.00     0.303 C 
ATOM      3  O   UNL     1       5.280   0.157   2.498  1.00  0.00    -0.252 OA
BRANCH   2   4
ATOM      4  O   UNL     1       3.352   1.345   2.475  1.00  0.00    -0.481 OA
ATOM      5  H   UNL     1       3.231   2.237   2.963  1.00  0.00     0.296 HD
ENDBRANCH   2   4
ENDBRANCH   1   2
BRANCH   1   6
ATOM      6  C   UNL     1       6.567   1.739   0.737  1.00  0.00     0.047 C 
BRANCH   6   7
ATOM      7  C   UNL     1       7.194   0.997  -0.356  1.00  0.00    -0.047 A 
ATOM      8  C   UNL     1       8.510   1.216  -0.691  1.00  0.00     0.004 A 
ATOM      9  C   UNL     1       6.452   0.070  -1.050  1.00  0.00     0.004 A 
ATOM     10  C   UNL     1       9.043   0.471  -1.745  1.00  0.00     0.000 A 
ATOM     11  C   UNL     1       6.980  -0.666  -2.092  1.00  0.00     0.000 A 
ATOM     12  C   UNL     1       8.298  -0.452  -2.434  1.00  0.00     0.000 A 
ENDBRANCH   6   7
ENDBRANCH   1   6
TORSDOF 4
ENDMDL
MODEL 5
REMARK VINA RESULT:      -6.7      3.800      5.000
REMARK SMILES O=C(O)CCc1ccccc1
REMARK SMILES IDX 4 1 2 2 1 3 3 4 5 6 6 7 7 8 11 9 8 10 10 11 9 12
REMARK H PARENT 3 5
REMARK Flexibility Score: inf
ROOT
ATOM      1  C   UNL     1       5.419   2.963  -0.008  1.00  0.00     0.127 C 
ENDROOT
BRANCH   1   2
ATOM      2  C   UNL     1       6.237   3.904   0.795  1.00  0.00     0.303 C 
ATOM      3  O   UNL     1       6.965   4.766   0.244  1.00  0.00    -0.252 OA
BRANCH   2   4
ATOM      4  O   UNL     1       6.220   3.856   2.179  1.00  0.00    -0.481 OA
ATOM      5  H   UNL     1       6.472   2.984   2.653  1.00  0.00     0.296 HD
ENDBRANCH   2   4
ENDBRANCH   1   2
BRANCH   1   6
ATOM      6  C   UNL     1       4.894   1.898   0.905  1.00  0.00     0.047 C 
BRANCH   6   7
ATOM      7  C   UNL     1       5.697   0.676   0.916  1.00  0.00    -0.047 A 
ATOM      8  C   UNL     1       5.817  -0.077   2.061  1.00  0.00     0.004 A 
ATOM      9  C   UNL     1       6.333   0.281  -0.238  1.00  0.00     0.004 A 
ATOM     10  C   UNL     1       6.598  -1.233   1.998  1.00  0.00     0.000 A 
ATOM     11  C   UNL     1       7.106  -0.862  -0.298  1.00  0.00     0.000 A 
ATOM     12  C   UNL     1       7.232  -1.621   0.845  1.00  0.00     0.000 A 
ENDBRANCH   6   7
ENDBRANCH   1   6
TORSDOF 4
ENDMDL
