@<TRIPOS>MOLECULE
/home/cewinharhar/GITHUB/reincatalyze/data/processed/docking_pred/2023_Apr_20-15:07/f74925e0f2dbd9eb14447f51d5c862455f02ecd6_ligand_2.pdbqt
 12 12 0 0 0
SMALL
GASTEIGER

@<TRIPOS>ATOM
      1  C          8.4230   -0.6380   -2.1130 C.3     1  UNL1        0.1270
      2  C          8.3890   -1.8990   -2.8910 C.2     1  UNL1        0.3030
      3  O          7.3000   -2.4200   -3.2380 O.2     1  UNL1       -0.2520
      4  O          9.5620   -2.5390   -3.2580 O.3     1  UNL1       -0.4810
      5  H         10.2430   -2.0430   -3.8390 H       1  UNL1        0.2960
      6  C          7.0410   -0.0610   -2.0920 C.3     1  UNL1        0.0470
      7  C          6.4780    0.0850   -0.7510 C.2     1  UNL1       -0.0470
      8  C          6.6000   -0.9230    0.1770 C.2     1  UNL1        0.0040
      9  C          5.8220    1.2490   -0.4210 C.2     1  UNL1        0.0040
     10  C          6.0400   -0.7140    1.4390 C.2     1  UNL1        0.0000
     11  C          5.2680    1.4530    0.8270 C.2     1  UNL1        0.0000
     12  C          5.3860    0.4480    1.7620 C.2     1  UNL1        0.0000
@<TRIPOS>BOND
     1     5     4    1
     2     4     2    1
     3     3     2    2
     4     2     1    1
     5     1     6    1
     6     6     7    1
     7     7     9    2
     8     7     8    1
     9     9    11    1
    10     8    10    2
    11    11    12    2
    12    10    12    1
