@<TRIPOS>MOLECULE
/home/cewinharhar/GITHUB/reincatalyze/data/processed/docking_pred/2023_Apr_20-15:07/f9550a52c30547fdb3e6e224a3b8a38c5560e948_ligand_2.pdbqt
 12 12 0 0 0
SMALL
GASTEIGER

@<TRIPOS>ATOM
      1  C          8.4330   -0.5520   -2.2350 C.3     1  UNL1        0.1270
      2  C          8.4590   -1.8630   -2.9260 C.2     1  UNL1        0.3030
      3  O          9.5320   -2.5000   -3.0750 O.2     1  UNL1       -0.2520
      4  O          7.2960   -2.4230   -3.4300 O.3     1  UNL1       -0.4810
      5  H          7.0500   -2.2690   -4.4110 H       1  UNL1        0.2960
      6  C          7.0120   -0.0850   -2.1650 C.3     1  UNL1        0.0470
      7  C          6.4970    0.0530   -0.8040 C.2     1  UNL1       -0.0470
      8  C          6.5950   -0.9850    0.0930 C.2     1  UNL1        0.0040
      9  C          5.9110    1.2390   -0.4250 C.2     1  UNL1        0.0040
     10  C          6.0830   -0.7820    1.3770 C.2     1  UNL1        0.0000
     11  C          5.4050    1.4370    0.8450 C.2     1  UNL1        0.0000
     12  C          5.4990    0.4020    1.7500 C.2     1  UNL1        0.0000
@<TRIPOS>BOND
     1     5     4    1
     2     4     2    1
     3     3     2    2
     4     2     1    1
     5     1     6    1
     6     6     7    1
     7     7     9    2
     8     7     8    1
     9     9    11    1
    10     8    10    2
    11    11    12    2
    12    10    12    1
