@<TRIPOS>MOLECULE
/home/cewinharhar/GITHUB/reincatalyze/data/processed/docking_pred/2023_Apr_20-15:07/f9550a52c30547fdb3e6e224a3b8a38c5560e948_ligand_2.pdbqt
 12 12 0 0 0
SMALL
GASTEIGER

@<TRIPOS>ATOM
      1  C          5.3870    2.9160    0.0790 C.3     1  UNL1        0.1270
      2  C          6.2550    3.8210    0.8700 C.2     1  UNL1        0.3030
      3  O          6.8660    4.7750    0.3270 O.2     1  UNL1       -0.2520
      4  O          6.4150    3.6390    2.2340 O.3     1  UNL1       -0.4810
      5  H          5.5940    3.4410    2.8130 H       1  UNL1        0.2960
      6  C          5.2190    1.6390    0.8440 C.3     1  UNL1        0.0470
      7  C          6.0290    0.5320    0.3380 C.2     1  UNL1       -0.0470
      8  C          6.3890    0.4730   -0.9880 C.2     1  UNL1        0.0040
      9  C          6.4330   -0.4560    1.2060 C.2     1  UNL1        0.0040
     10  C          7.1640   -0.6130   -1.4020 C.2     1  UNL1        0.0000
     11  C          7.1990   -1.5280    0.7960 C.2     1  UNL1        0.0000
     12  C          7.5640   -1.5960   -0.5320 C.2     1  UNL1        0.0000
@<TRIPOS>BOND
     1    10     8    1
     2    10    12    2
     3     8     7    2
     4    12    11    1
     5     1     6    1
     6     1     2    1
     7     3     2    2
     8     7     6    1
     9     7     9    1
    10    11     9    2
    11     2     4    1
    12     4     5    1
