@<TRIPOS>MOLECULE
/home/cewinharhar/GITHUB/reincatalyze/data/processed/docking_pred/2023_Apr_20-15:07/f9550a52c30547fdb3e6e224a3b8a38c5560e948_ligand_2.pdbqt
 12 12 0 0 0
SMALL
GASTEIGER

@<TRIPOS>ATOM
      1  C          8.2330    0.2540   -2.2130 C.3     1  UNL1        0.1270
      2  C          9.3570    0.3660   -1.2540 C.2     1  UNL1        0.3030
      3  O          9.4480   -0.4030   -0.2650 O.2     1  UNL1       -0.2520
      4  O         10.3410    1.3270   -1.4230 O.3     1  UNL1       -0.4810
      5  H         10.1440    2.2970   -1.1620 H       1  UNL1        0.2960
      6  C          7.1190   -0.4960   -1.5480 C.3     1  UNL1        0.0470
      7  C          6.3350    0.3100   -0.6140 C.2     1  UNL1       -0.0470
      8  C          5.8160    1.5250   -0.9960 C.2     1  UNL1        0.0040
      9  C          6.1160   -0.1620    0.6600 C.2     1  UNL1        0.0040
     10  C          5.0760    2.2400   -0.0520 C.2     1  UNL1        0.0000
     11  C          5.3840    0.5470    1.5920 C.2     1  UNL1        0.0000
     12  C          4.8620    1.7650    1.2170 C.2     1  UNL1        0.0000
@<TRIPOS>BOND
     1     1     6    1
     2     1     2    1
     3     6     7    1
     4     4     2    1
     5     4     5    1
     6     2     3    2
     7     8     7    2
     8     8    10    1
     9     7     9    1
    10    10    12    2
    11     9    11    2
    12    12    11    1
