@<TRIPOS>MOLECULE
/home/cewinharhar/GITHUB/reincatalyze/data/processed/docking_pred/2023_Apr_20-15:07/f9550a52c30547fdb3e6e224a3b8a38c5560e948_ligand_2.pdbqt
 12 12 0 0 0
SMALL
GASTEIGER

@<TRIPOS>ATOM
      1  C          8.4350   -0.6490   -2.1240 C.3     1  UNL1        0.1270
      2  C          8.4720   -1.9060   -2.9080 C.2     1  UNL1        0.3030
      3  O          9.5490   -2.5260   -3.0940 O.2     1  UNL1       -0.2520
      4  O          7.3160   -2.4330   -3.4600 O.3     1  UNL1       -0.4810
      5  H          7.0900   -3.4190   -3.3030 H       1  UNL1        0.2960
      6  C          7.0240   -0.1460   -2.1080 C.3     1  UNL1        0.0470
      7  C          6.4750    0.0420   -0.7660 C.2     1  UNL1       -0.0470
      8  C          5.8300    1.2080   -0.4270 C.2     1  UNL1        0.0040
      9  C          6.6080   -0.9660    0.1610 C.2     1  UNL1        0.0040
     10  C          5.3300    1.3180    0.8730 C.2     1  UNL1        0.0000
     11  C          6.1140   -0.8560    1.4460 C.2     1  UNL1        0.0000
     12  C          5.4660    0.3100    1.7940 C.2     1  UNL1        0.0000
@<TRIPOS>BOND
     1     4     5    1
     2     4     2    1
     3     3     2    2
     4     2     1    1
     5     1     6    1
     6     6     7    1
     7     7     8    2
     8     7     9    1
     9     8    10    1
    10     9    11    2
    11    10    12    2
    12    11    12    1
