@<TRIPOS>MOLECULE
/home/cewinharhar/GITHUB/reincatalyze/data/processed/docking_pred/2023_Apr_20-15:07/f9550a52c30547fdb3e6e224a3b8a38c5560e948_ligand_2.pdbqt
 12 12 0 0 0
SMALL
GASTEIGER

@<TRIPOS>ATOM
      1  C          4.9990    1.7920    0.7050 C.3     1  UNL1        0.1270
      2  C          4.4820    1.1100    1.9140 C.2     1  UNL1        0.3030
      3  O          5.1380    0.2000    2.4790 O.2     1  UNL1       -0.2520
      4  O          3.2550    1.4580    2.4560 O.3     1  UNL1       -0.4810
      5  H          3.1740    1.5920    3.4680 H       1  UNL1        0.2960
      6  C          6.4970    1.7670    0.7540 C.3     1  UNL1        0.0470
      7  C          7.1150    1.0130   -0.3350 C.2     1  UNL1       -0.0470
      8  C          6.3870    0.0950   -1.0570 C.2     1  UNL1        0.0040
      9  C          8.4390    1.2320   -0.6360 C.2     1  UNL1        0.0040
     10  C          7.0420   -0.5880   -2.0840 C.2     1  UNL1        0.0000
     11  C          9.0850    0.5550   -1.6520 C.2     1  UNL1        0.0000
     12  C          8.3630   -0.3660   -2.3790 C.2     1  UNL1        0.0000
@<TRIPOS>BOND
     1    12    10    2
     2    12    11    1
     3    10     8    1
     4    11     9    2
     5     8     7    2
     6     9     7    1
     7     7     6    1
     8     1     6    1
     9     1     2    1
    10     2     4    1
    11     2     3    2
    12     4     5    1
