MODEL 1
REMARK VINA RESULT:      -7.3      0.000      0.000
REMARK SMILES O=C(O)CCc1ccccc1
REMARK SMILES IDX 4 1 2 2 1 3 3 4 5 6 6 7 7 8 11 9 8 10 10 11 9 12
REMARK H PARENT 3 5
REMARK Flexibility Score: inf
ROOT
ATOM      1  C   UNL     1       8.435  -0.649  -2.124  1.00  0.00     0.127 C 
ENDROOT
BRANCH   1   2
ATOM      2  C   UNL     1       8.472  -1.906  -2.908  1.00  0.00     0.303 C 
ATOM      3  O   UNL     1       9.549  -2.526  -3.094  1.00  0.00    -0.252 OA
BRANCH   2   4
ATOM      4  O   UNL     1       7.316  -2.433  -3.460  1.00  0.00    -0.481 OA
ATOM      5  H   UNL     1       7.090  -3.419  -3.303  1.00  0.00     0.296 HD
ENDBRANCH   2   4
ENDBRANCH   1   2
BRANCH   1   6
ATOM      6  C   UNL     1       7.024  -0.146  -2.108  1.00  0.00     0.047 C 
BRANCH   6   7
ATOM      7  C   UNL     1       6.475   0.042  -0.766  1.00  0.00    -0.047 A 
ATOM      8  C   UNL     1       5.830   1.208  -0.427  1.00  0.00     0.004 A 
ATOM      9  C   UNL     1       6.608  -0.966   0.161  1.00  0.00     0.004 A 
ATOM     10  C   UNL     1       5.330   1.318   0.873  1.00  0.00     0.000 A 
ATOM     11  C   UNL     1       6.114  -0.856   1.446  1.00  0.00     0.000 A 
ATOM     12  C   UNL     1       5.466   0.310   1.794  1.00  0.00     0.000 A 
ENDBRANCH   6   7
ENDBRANCH   1   6
TORSDOF 4
ENDMDL
MODEL 2
REMARK VINA RESULT:      -7.3      0.091      1.438
REMARK SMILES O=C(O)CCc1ccccc1
REMARK SMILES IDX 4 1 2 2 1 3 3 4 5 6 6 7 7 8 11 9 8 10 10 11 9 12
REMARK H PARENT 3 5
REMARK Flexibility Score: inf
ROOT
ATOM      1  C   UNL     1       8.433  -0.552  -2.235  1.00  0.00     0.127 C 
ENDROOT
BRANCH   1   2
ATOM      2  C   UNL     1       8.459  -1.863  -2.926  1.00  0.00     0.303 C 
ATOM      3  O   UNL     1       9.532  -2.500  -3.075  1.00  0.00    -0.252 OA
BRANCH   2   4
ATOM      4  O   UNL     1       7.296  -2.423  -3.430  1.00  0.00    -0.481 OA
ATOM      5  H   UNL     1       7.050  -2.269  -4.411  1.00  0.00     0.296 HD
ENDBRANCH   2   4
ENDBRANCH   1   2
BRANCH   1   6
ATOM      6  C   UNL     1       7.012  -0.085  -2.165  1.00  0.00     0.047 C 
BRANCH   6   7
ATOM      7  C   UNL     1       6.497   0.053  -0.804  1.00  0.00    -0.047 A 
ATOM      8  C   UNL     1       6.595  -0.985   0.093  1.00  0.00     0.004 A 
ATOM      9  C   UNL     1       5.911   1.239  -0.425  1.00  0.00     0.004 A 
ATOM     10  C   UNL     1       6.083  -0.782   1.377  1.00  0.00     0.000 A 
ATOM     11  C   UNL     1       5.405   1.437   0.845  1.00  0.00     0.000 A 
ATOM     12  C   UNL     1       5.499   0.402   1.750  1.00  0.00     0.000 A 
ENDBRANCH   6   7
ENDBRANCH   1   6
TORSDOF 4
ENDMDL
MODEL 3
REMARK VINA RESULT:      -6.8      3.391      5.090
REMARK SMILES O=C(O)CCc1ccccc1
REMARK SMILES IDX 4 1 2 2 1 3 3 4 5 6 6 7 7 8 11 9 8 10 10 11 9 12
REMARK H PARENT 3 5
REMARK Flexibility Score: inf
ROOT
ATOM      1  C   UNL     1       4.999   1.792   0.705  1.00  0.00     0.127 C 
ENDROOT
BRANCH   1   2
ATOM      2  C   UNL     1       4.482   1.110   1.914  1.00  0.00     0.303 C 
ATOM      3  O   UNL     1       5.138   0.200   2.479  1.00  0.00    -0.252 OA
BRANCH   2   4
ATOM      4  O   UNL     1       3.255   1.458   2.456  1.00  0.00    -0.481 OA
ATOM      5  H   UNL     1       3.174   1.592   3.468  1.00  0.00     0.296 HD
ENDBRANCH   2   4
ENDBRANCH   1   2
BRANCH   1   6
ATOM      6  C   UNL     1       6.497   1.767   0.754  1.00  0.00     0.047 C 
BRANCH   6   7
ATOM      7  C   UNL     1       7.115   1.013  -0.335  1.00  0.00    -0.047 A 
ATOM      8  C   UNL     1       6.387   0.095  -1.057  1.00  0.00     0.004 A 
ATOM      9  C   UNL     1       8.439   1.232  -0.636  1.00  0.00     0.004 A 
ATOM     10  C   UNL     1       7.042  -0.588  -2.084  1.00  0.00     0.000 A 
ATOM     11  C   UNL     1       9.085   0.555  -1.652  1.00  0.00     0.000 A 
ATOM     12  C   UNL     1       8.363  -0.366  -2.379  1.00  0.00     0.000 A 
ENDBRANCH   6   7
ENDBRANCH   1   6
TORSDOF 4
ENDMDL
MODEL 4
REMARK VINA RESULT:      -6.6      1.938      2.311
REMARK SMILES O=C(O)CCc1ccccc1
REMARK SMILES IDX 4 1 2 2 1 3 3 4 5 6 6 7 7 8 11 9 8 10 10 11 9 12
REMARK H PARENT 3 5
REMARK Flexibility Score: inf
ROOT
ATOM      1  C   UNL     1       8.233   0.254  -2.213  1.00  0.00     0.127 C 
ENDROOT
BRANCH   1   2
ATOM      2  C   UNL     1       9.357   0.366  -1.254  1.00  0.00     0.303 C 
ATOM      3  O   UNL     1       9.448  -0.403  -0.265  1.00  0.00    -0.252 OA
BRANCH   2   4
ATOM      4  O   UNL     1      10.341   1.327  -1.423  1.00  0.00    -0.481 OA
ATOM      5  H   UNL     1      10.144   2.297  -1.162  1.00  0.00     0.296 HD
ENDBRANCH   2   4
ENDBRANCH   1   2
BRANCH   1   6
ATOM      6  C   UNL     1       7.119  -0.496  -1.548  1.00  0.00     0.047 C 
BRANCH   6   7
ATOM      7  C   UNL     1       6.335   0.310  -0.614  1.00  0.00    -0.047 A 
ATOM      8  C   UNL     1       5.816   1.525  -0.996  1.00  0.00     0.004 A 
ATOM      9  C   UNL     1       6.116  -0.162   0.660  1.00  0.00     0.004 A 
ATOM     10  C   UNL     1       5.076   2.240  -0.052  1.00  0.00     0.000 A 
ATOM     11  C   UNL     1       5.384   0.547   1.592  1.00  0.00     0.000 A 
ATOM     12  C   UNL     1       4.862   1.765   1.217  1.00  0.00     0.000 A 
ENDBRANCH   6   7
ENDBRANCH   1   6
TORSDOF 4
ENDMDL
MODEL 5
REMARK VINA RESULT:      -6.5      3.720      4.939
REMARK SMILES O=C(O)CCc1ccccc1
REMARK SMILES IDX 4 1 2 2 1 3 3 4 5 6 6 7 7 8 11 9 8 10 10 11 9 12
REMARK H PARENT 3 5
REMARK Flexibility Score: inf
ROOT
ATOM      1  C   UNL     1       5.387   2.916   0.079  1.00  0.00     0.127 C 
ENDROOT
BRANCH   1   2
ATOM      2  C   UNL     1       6.255   3.821   0.870  1.00  0.00     0.303 C 
ATOM      3  O   UNL     1       6.866   4.775   0.327  1.00  0.00    -0.252 OA
BRANCH   2   4
ATOM      4  O   UNL     1       6.415   3.639   2.234  1.00  0.00    -0.481 OA
ATOM      5  H   UNL     1       5.594   3.441   2.813  1.00  0.00     0.296 HD
ENDBRANCH   2   4
ENDBRANCH   1   2
BRANCH   1   6
ATOM      6  C   UNL     1       5.219   1.639   0.844  1.00  0.00     0.047 C 
BRANCH   6   7
ATOM      7  C   UNL     1       6.029   0.532   0.338  1.00  0.00    -0.047 A 
ATOM      8  C   UNL     1       6.389   0.473  -0.988  1.00  0.00     0.004 A 
ATOM      9  C   UNL     1       6.433  -0.456   1.206  1.00  0.00     0.004 A 
ATOM     10  C   UNL     1       7.164  -0.613  -1.402  1.00  0.00     0.000 A 
ATOM     11  C   UNL     1       7.199  -1.528   0.796  1.00  0.00     0.000 A 
ATOM     12  C   UNL     1       7.564  -1.596  -0.532  1.00  0.00     0.000 A 
ENDBRANCH   6   7
ENDBRANCH   1   6
TORSDOF 4
ENDMDL
