@<TRIPOS>MOLECULE
/home/cewinharhar/GITHUB/reincatalyze/data/processed/docking_pred/2023_Apr_20-15:07/faf685cb0c2e1ff185f0c147bdf23d27aa2a460b_ligand_2.pdbqt
 12 12 0 0 0
SMALL
GASTEIGER

@<TRIPOS>ATOM
      1  C          8.1960   -0.9750   -1.8010 C.3     1  UNL1        0.1270
      2  C          8.3900   -2.0160   -2.8380 C.2     1  UNL1        0.3030
      3  O          9.5350   -2.4450   -3.1220 O.2     1  UNL1       -0.2520
      4  O          7.3090   -2.5440   -3.5240 O.3     1  UNL1       -0.4810
      5  H          6.3780   -2.5050   -3.0990 H       1  UNL1        0.2960
      6  C          7.1050   -1.4270   -0.8780 C.3     1  UNL1        0.0470
      7  C          6.4050   -0.3340   -0.2060 C.2     1  UNL1       -0.0470
      8  C          6.0320   -0.4450    1.1140 C.2     1  UNL1        0.0040
      9  C          6.1220    0.8150   -0.9070 C.2     1  UNL1        0.0040
     10  C          5.3660    0.6380    1.6920 C.2     1  UNL1        0.0000
     11  C          5.4640    1.8850   -0.3340 C.2     1  UNL1        0.0000
     12  C          5.0860    1.7820    0.9870 C.2     1  UNL1        0.0000
@<TRIPOS>BOND
     1     4     5    1
     2     4     2    1
     3     3     2    2
     4     2     1    1
     5     1     6    1
     6     9    11    1
     7     9     7    2
     8     6     7    1
     9    11    12    2
    10     7     8    1
    11    12    10    1
    12     8    10    2
