@<TRIPOS>MOLECULE
/home/cewinharhar/GITHUB/reincatalyze/data/processed/docking_pred/2023_Apr_20-15:07/faf685cb0c2e1ff185f0c147bdf23d27aa2a460b_ligand_2.pdbqt
 12 12 0 0 0
SMALL
GASTEIGER

@<TRIPOS>ATOM
      1  C          8.4040   -0.5420   -2.2520 C.3     1  UNL1        0.1270
      2  C          8.4730   -1.8640   -2.9180 C.2     1  UNL1        0.3030
      3  O          9.5660   -2.4680   -3.0530 O.2     1  UNL1       -0.2520
      4  O          7.3300   -2.4700   -3.4130 O.3     1  UNL1       -0.4810
      5  H          7.3180   -2.8020   -4.3810 H       1  UNL1        0.2960
      6  C          6.9660   -0.1250   -2.1810 C.3     1  UNL1        0.0470
      7  C          6.4640    0.0460   -0.8190 C.2     1  UNL1       -0.0470
      8  C          5.8400    1.2130   -0.4410 C.2     1  UNL1        0.0040
      9  C          6.6190   -0.9770    0.0880 C.2     1  UNL1        0.0040
     10  C          5.3840    1.3070    0.8760 C.2     1  UNL1        0.0000
     11  C          6.1680   -0.8820    1.3900 C.2     1  UNL1        0.0000
     12  C          5.5420    0.2840    1.7760 C.2     1  UNL1        0.0000
@<TRIPOS>BOND
     1     5     4    1
     2     4     2    1
     3     3     2    2
     4     2     1    1
     5     1     6    1
     6     6     7    1
     7     7     8    2
     8     7     9    1
     9     8    10    1
    10     9    11    2
    11    10    12    2
    12    11    12    1
