@<TRIPOS>MOLECULE
/home/cewinharhar/GITHUB/reincatalyze/data/processed/docking_pred/2023_Apr_20-15:07/faf685cb0c2e1ff185f0c147bdf23d27aa2a460b_ligand_2.pdbqt
 12 12 0 0 0
SMALL
GASTEIGER

@<TRIPOS>ATOM
      1  C          8.4270   -0.5270   -2.2510 C.3     1  UNL1        0.1270
      2  C          8.4870   -1.8330   -2.9480 C.2     1  UNL1        0.3030
      3  O          9.5760   -2.4400   -3.1010 O.2     1  UNL1       -0.2520
      4  O          7.3390   -2.4230   -3.4520 O.3     1  UNL1       -0.4810
      5  H          7.0870   -2.2710   -4.4320 H       1  UNL1        0.2960
      6  C          6.9940   -0.0950   -2.1840 C.3     1  UNL1        0.0470
      7  C          6.4810    0.0560   -0.8230 C.2     1  UNL1       -0.0470
      8  C          6.6410   -0.9470    0.1040 C.2     1  UNL1        0.0040
      9  C          5.8360    1.2200   -0.4740 C.2     1  UNL1        0.0040
     10  C          6.1260   -0.7340    1.3850 C.2     1  UNL1        0.0000
     11  C          5.3280    1.4290    0.7920 C.2     1  UNL1        0.0000
     12  C          5.4820    0.4280    1.7270 C.2     1  UNL1        0.0000
@<TRIPOS>BOND
     1     5     4    1
     2     4     2    1
     3     3     2    2
     4     2     1    1
     5     1     6    1
     6     6     7    1
     7     7     9    2
     8     7     8    1
     9     9    11    1
    10     8    10    2
    11    11    12    2
    12    10    12    1
