@<TRIPOS>MOLECULE
/home/cewinharhar/GITHUB/reincatalyze/data/processed/docking_pred/2023_Apr_20-15:07/faf685cb0c2e1ff185f0c147bdf23d27aa2a460b_ligand_2.pdbqt
 12 12 0 0 0
SMALL
GASTEIGER

@<TRIPOS>ATOM
      1  C          5.4180    2.9070    0.0210 C.3     1  UNL1        0.1270
      2  C          6.2270    3.8680    0.8070 C.2     1  UNL1        0.3030
      3  O          6.8940    4.7710    0.2430 O.2     1  UNL1       -0.2520
      4  O          6.2690    3.7970    2.1900 O.3     1  UNL1       -0.4810
      5  H          5.7520    3.0540    2.6690 H       1  UNL1        0.2960
      6  C          4.9230    1.8390    0.9480 C.3     1  UNL1        0.0470
      7  C          5.7130    0.6100    0.9130 C.2     1  UNL1       -0.0470
      8  C          6.3810    0.2350   -0.2290 C.2     1  UNL1        0.0040
      9  C          5.7850   -0.1740    2.0420 C.2     1  UNL1        0.0040
     10  C          7.1160   -0.9520   -0.1910 C.2     1  UNL1        0.0000
     11  C          6.5130   -1.3470    2.0780 C.2     1  UNL1        0.0000
     12  C          7.1840   -1.7300    0.9370 C.2     1  UNL1        0.0000
@<TRIPOS>BOND
     1     8    10    1
     2     8     7    2
     3    10    12    2
     4     1     2    1
     5     1     6    1
     6     3     2    2
     7     2     4    1
     8     7     6    1
     9     7     9    1
    10    12    11    1
    11     9    11    2
    12     4     5    1
