@<TRIPOS>MOLECULE
/home/cewinharhar/GITHUB/reincatalyze/data/processed/docking_pred/2023_Apr_20-15:07/faf685cb0c2e1ff185f0c147bdf23d27aa2a460b_ligand_2.pdbqt
 12 12 0 0 0
SMALL
GASTEIGER

@<TRIPOS>ATOM
      1  C          5.0450    1.7200    0.6700 C.3     1  UNL1        0.1270
      2  C          4.6020    1.0440    1.9130 C.2     1  UNL1        0.3030
      3  O          5.3300    0.1980    2.4890 O.2     1  UNL1       -0.2520
      4  O          3.3680    1.3290    2.4740 O.3     1  UNL1       -0.4810
      5  H          3.1700    1.0240    3.4310 H       1  UNL1        0.2960
      6  C          6.5420    1.7940    0.6830 C.3     1  UNL1        0.0470
      7  C          7.1840    1.0260   -0.3820 C.2     1  UNL1       -0.0470
      8  C          8.5180    1.2010   -0.6700 C.2     1  UNL1        0.0040
      9  C          6.4390    0.1170   -1.0980 C.2     1  UNL1        0.0040
     10  C          9.0650    0.4330   -1.7000 C.2     1  UNL1        0.0000
     11  C          6.9820   -0.6420   -2.1150 C.2     1  UNL1        0.0000
     12  C          8.3170   -0.4710   -2.4110 C.2     1  UNL1        0.0000
@<TRIPOS>BOND
     1    12    11    2
     2    12    10    1
     3    11     9    1
     4    10     8    2
     5     9     7    2
     6     8     7    1
     7     7     6    1
     8     1     6    1
     9     1     2    1
    10     2     4    1
    11     2     3    2
    12     4     5    1
