MODEL 1
REMARK VINA RESULT:      -7.3      0.000      0.000
REMARK SMILES O=C(O)CCc1ccccc1
REMARK SMILES IDX 4 1 2 2 1 3 3 4 5 6 6 7 7 8 11 9 8 10 10 11 9 12
REMARK H PARENT 3 5
REMARK Flexibility Score: inf
ROOT
ATOM      1  C   UNL     1       8.427  -0.527  -2.251  1.00  0.00     0.127 C 
ENDROOT
BRANCH   1   2
ATOM      2  C   UNL     1       8.487  -1.833  -2.948  1.00  0.00     0.303 C 
ATOM      3  O   UNL     1       9.576  -2.440  -3.101  1.00  0.00    -0.252 OA
BRANCH   2   4
ATOM      4  O   UNL     1       7.339  -2.423  -3.452  1.00  0.00    -0.481 OA
ATOM      5  H   UNL     1       7.087  -2.271  -4.432  1.00  0.00     0.296 HD
ENDBRANCH   2   4
ENDBRANCH   1   2
BRANCH   1   6
ATOM      6  C   UNL     1       6.994  -0.095  -2.184  1.00  0.00     0.047 C 
BRANCH   6   7
ATOM      7  C   UNL     1       6.481   0.056  -0.823  1.00  0.00    -0.047 A 
ATOM      8  C   UNL     1       6.641  -0.947   0.104  1.00  0.00     0.004 A 
ATOM      9  C   UNL     1       5.836   1.220  -0.474  1.00  0.00     0.004 A 
ATOM     10  C   UNL     1       6.126  -0.734   1.385  1.00  0.00     0.000 A 
ATOM     11  C   UNL     1       5.328   1.429   0.792  1.00  0.00     0.000 A 
ATOM     12  C   UNL     1       5.482   0.428   1.727  1.00  0.00     0.000 A 
ENDBRANCH   6   7
ENDBRANCH   1   6
TORSDOF 4
ENDMDL
MODEL 2
REMARK VINA RESULT:      -7.3      0.090      1.439
REMARK SMILES O=C(O)CCc1ccccc1
REMARK SMILES IDX 4 1 2 2 1 3 3 4 5 6 6 7 7 8 11 9 8 10 10 11 9 12
REMARK H PARENT 3 5
REMARK Flexibility Score: inf
ROOT
ATOM      1  C   UNL     1       8.404  -0.542  -2.252  1.00  0.00     0.127 C 
ENDROOT
BRANCH   1   2
ATOM      2  C   UNL     1       8.473  -1.864  -2.918  1.00  0.00     0.303 C 
ATOM      3  O   UNL     1       9.566  -2.468  -3.053  1.00  0.00    -0.252 OA
BRANCH   2   4
ATOM      4  O   UNL     1       7.330  -2.470  -3.413  1.00  0.00    -0.481 OA
ATOM      5  H   UNL     1       7.318  -2.802  -4.381  1.00  0.00     0.296 HD
ENDBRANCH   2   4
ENDBRANCH   1   2
BRANCH   1   6
ATOM      6  C   UNL     1       6.966  -0.125  -2.181  1.00  0.00     0.047 C 
BRANCH   6   7
ATOM      7  C   UNL     1       6.464   0.046  -0.819  1.00  0.00    -0.047 A 
ATOM      8  C   UNL     1       5.840   1.213  -0.441  1.00  0.00     0.004 A 
ATOM      9  C   UNL     1       6.619  -0.977   0.088  1.00  0.00     0.004 A 
ATOM     10  C   UNL     1       5.384   1.307   0.876  1.00  0.00     0.000 A 
ATOM     11  C   UNL     1       6.168  -0.882   1.390  1.00  0.00     0.000 A 
ATOM     12  C   UNL     1       5.542   0.284   1.776  1.00  0.00     0.000 A 
ENDBRANCH   6   7
ENDBRANCH   1   6
TORSDOF 4
ENDMDL
MODEL 3
REMARK VINA RESULT:      -7.2      0.664      1.097
REMARK SMILES O=C(O)CCc1ccccc1
REMARK SMILES IDX 4 1 2 2 1 3 3 4 5 6 6 7 7 8 11 9 8 10 10 11 9 12
REMARK H PARENT 3 5
REMARK Flexibility Score: inf
ROOT
ATOM      1  C   UNL     1       8.196  -0.975  -1.801  1.00  0.00     0.127 C 
ENDROOT
BRANCH   1   2
ATOM      2  C   UNL     1       8.390  -2.016  -2.838  1.00  0.00     0.303 C 
ATOM      3  O   UNL     1       9.535  -2.445  -3.122  1.00  0.00    -0.252 OA
BRANCH   2   4
ATOM      4  O   UNL     1       7.309  -2.544  -3.524  1.00  0.00    -0.481 OA
ATOM      5  H   UNL     1       6.378  -2.505  -3.099  1.00  0.00     0.296 HD
ENDBRANCH   2   4
ENDBRANCH   1   2
BRANCH   1   6
ATOM      6  C   UNL     1       7.105  -1.427  -0.878  1.00  0.00     0.047 C 
BRANCH   6   7
ATOM      7  C   UNL     1       6.405  -0.334  -0.206  1.00  0.00    -0.047 A 
ATOM      8  C   UNL     1       6.032  -0.445   1.114  1.00  0.00     0.004 A 
ATOM      9  C   UNL     1       6.122   0.815  -0.907  1.00  0.00     0.004 A 
ATOM     10  C   UNL     1       5.366   0.638   1.692  1.00  0.00     0.000 A 
ATOM     11  C   UNL     1       5.464   1.885  -0.334  1.00  0.00     0.000 A 
ATOM     12  C   UNL     1       5.086   1.782   0.987  1.00  0.00     0.000 A 
ENDBRANCH   6   7
ENDBRANCH   1   6
TORSDOF 4
ENDMDL
MODEL 4
REMARK VINA RESULT:      -6.7      3.348      5.032
REMARK SMILES O=C(O)CCc1ccccc1
REMARK SMILES IDX 4 1 2 2 1 3 3 4 5 6 6 7 7 8 11 9 8 10 10 11 9 12
REMARK H PARENT 3 5
REMARK Flexibility Score: inf
ROOT
ATOM      1  C   UNL     1       5.045   1.720   0.670  1.00  0.00     0.127 C 
ENDROOT
BRANCH   1   2
ATOM      2  C   UNL     1       4.602   1.044   1.913  1.00  0.00     0.303 C 
ATOM      3  O   UNL     1       5.330   0.198   2.489  1.00  0.00    -0.252 OA
BRANCH   2   4
ATOM      4  O   UNL     1       3.368   1.329   2.474  1.00  0.00    -0.481 OA
ATOM      5  H   UNL     1       3.170   1.024   3.431  1.00  0.00     0.296 HD
ENDBRANCH   2   4
ENDBRANCH   1   2
BRANCH   1   6
ATOM      6  C   UNL     1       6.542   1.794   0.683  1.00  0.00     0.047 C 
BRANCH   6   7
ATOM      7  C   UNL     1       7.184   1.026  -0.382  1.00  0.00    -0.047 A 
ATOM      8  C   UNL     1       8.518   1.201  -0.670  1.00  0.00     0.004 A 
ATOM      9  C   UNL     1       6.439   0.117  -1.098  1.00  0.00     0.004 A 
ATOM     10  C   UNL     1       9.065   0.433  -1.700  1.00  0.00     0.000 A 
ATOM     11  C   UNL     1       6.982  -0.642  -2.115  1.00  0.00     0.000 A 
ATOM     12  C   UNL     1       8.317  -0.471  -2.411  1.00  0.00     0.000 A 
ENDBRANCH   6   7
ENDBRANCH   1   6
TORSDOF 4
ENDMDL
MODEL 5
REMARK VINA RESULT:      -6.7      3.819      4.989
REMARK SMILES O=C(O)CCc1ccccc1
REMARK SMILES IDX 4 1 2 2 1 3 3 4 5 6 6 7 7 8 11 9 8 10 10 11 9 12
REMARK H PARENT 3 5
REMARK Flexibility Score: inf
ROOT
ATOM      1  C   UNL     1       5.418   2.907   0.021  1.00  0.00     0.127 C 
ENDROOT
BRANCH   1   2
ATOM      2  C   UNL     1       6.227   3.868   0.807  1.00  0.00     0.303 C 
ATOM      3  O   UNL     1       6.894   4.771   0.243  1.00  0.00    -0.252 OA
BRANCH   2   4
ATOM      4  O   UNL     1       6.269   3.797   2.190  1.00  0.00    -0.481 OA
ATOM      5  H   UNL     1       5.752   3.054   2.669  1.00  0.00     0.296 HD
ENDBRANCH   2   4
ENDBRANCH   1   2
BRANCH   1   6
ATOM      6  C   UNL     1       4.923   1.839   0.948  1.00  0.00     0.047 C 
BRANCH   6   7
ATOM      7  C   UNL     1       5.713   0.610   0.913  1.00  0.00    -0.047 A 
ATOM      8  C   UNL     1       6.381   0.235  -0.229  1.00  0.00     0.004 A 
ATOM      9  C   UNL     1       5.785  -0.174   2.042  1.00  0.00     0.004 A 
ATOM     10  C   UNL     1       7.116  -0.952  -0.191  1.00  0.00     0.000 A 
ATOM     11  C   UNL     1       6.513  -1.347   2.078  1.00  0.00     0.000 A 
ATOM     12  C   UNL     1       7.184  -1.730   0.937  1.00  0.00     0.000 A 
ENDBRANCH   6   7
ENDBRANCH   1   6
TORSDOF 4
ENDMDL
