MODEL 1
REMARK VINA RESULT:      -7.3      0.000      0.000
REMARK SMILES O=C(O)CCc1ccccc1
REMARK SMILES IDX 4 1 2 2 1 3 3 4 5 6 6 7 7 8 11 9 8 10 10 11 9 12
REMARK H PARENT 3 5
REMARK Flexibility Score: inf
ROOT
ATOM      1  C   UNL     1       8.440  -0.605  -2.164  1.00  0.00     0.127 C 
ENDROOT
BRANCH   1   2
ATOM      2  C   UNL     1       8.486  -1.883  -2.912  1.00  0.00     0.303 C 
ATOM      3  O   UNL     1       9.571  -2.487  -3.104  1.00  0.00    -0.252 OA
BRANCH   2   4
ATOM      4  O   UNL     1       7.329  -2.449  -3.423  1.00  0.00    -0.481 OA
ATOM      5  H   UNL     1       6.474  -1.887  -3.468  1.00  0.00     0.296 HD
ENDBRANCH   2   4
ENDBRANCH   1   2
BRANCH   1   6
ATOM      6  C   UNL     1       7.021  -0.126  -2.136  1.00  0.00     0.047 C 
BRANCH   6   7
ATOM      7  C   UNL     1       6.481   0.055  -0.790  1.00  0.00    -0.047 A 
ATOM      8  C   UNL     1       5.845   1.223  -0.438  1.00  0.00     0.004 A 
ATOM      9  C   UNL     1       6.612  -0.961   0.128  1.00  0.00     0.004 A 
ATOM     10  C   UNL     1       5.353   1.326   0.865  1.00  0.00     0.000 A 
ATOM     11  C   UNL     1       6.125  -0.858   1.416  1.00  0.00     0.000 A 
ATOM     12  C   UNL     1       5.488   0.310   1.777  1.00  0.00     0.000 A 
ENDBRANCH   6   7
ENDBRANCH   1   6
TORSDOF 4
ENDMDL
MODEL 2
REMARK VINA RESULT:      -7.2      0.146      1.733
REMARK SMILES O=C(O)CCc1ccccc1
REMARK SMILES IDX 4 1 2 2 1 3 3 4 5 6 6 7 7 8 11 9 8 10 10 11 9 12
REMARK H PARENT 3 5
REMARK Flexibility Score: inf
ROOT
ATOM      1  C   UNL     1       8.460  -0.651  -2.081  1.00  0.00     0.127 C 
ENDROOT
BRANCH   1   2
ATOM      2  C   UNL     1       8.397  -1.902  -2.873  1.00  0.00     0.303 C 
ATOM      3  O   UNL     1       7.296  -2.403  -3.211  1.00  0.00    -0.252 OA
BRANCH   2   4
ATOM      4  O   UNL     1       9.555  -2.555  -3.262  1.00  0.00    -0.481 OA
ATOM      5  H   UNL     1       9.968  -2.341  -4.175  1.00  0.00     0.296 HD
ENDBRANCH   2   4
ENDBRANCH   1   2
BRANCH   1   6
ATOM      6  C   UNL     1       7.099  -0.025  -2.080  1.00  0.00     0.047 C 
BRANCH   6   7
ATOM      7  C   UNL     1       6.508   0.111  -0.749  1.00  0.00    -0.047 A 
ATOM      8  C   UNL     1       6.630  -0.896   0.180  1.00  0.00     0.004 A 
ATOM      9  C   UNL     1       5.825   1.262  -0.432  1.00  0.00     0.004 A 
ATOM     10  C   UNL     1       6.041  -0.698   1.431  1.00  0.00     0.000 A 
ATOM     11  C   UNL     1       5.244   1.457   0.805  1.00  0.00     0.000 A 
ATOM     12  C   UNL     1       5.361   0.453   1.742  1.00  0.00     0.000 A 
ENDBRANCH   6   7
ENDBRANCH   1   6
TORSDOF 4
ENDMDL
MODEL 3
REMARK VINA RESULT:      -6.6      3.342      5.018
REMARK SMILES O=C(O)CCc1ccccc1
REMARK SMILES IDX 4 1 2 2 1 3 3 4 5 6 6 7 7 8 11 9 8 10 10 11 9 12
REMARK H PARENT 3 5
REMARK Flexibility Score: inf
ROOT
ATOM      1  C   UNL     1       5.035   1.721   0.678  1.00  0.00     0.127 C 
ENDROOT
BRANCH   1   2
ATOM      2  C   UNL     1       4.600   1.031   1.915  1.00  0.00     0.303 C 
ATOM      3  O   UNL     1       5.331   0.178   2.476  1.00  0.00    -0.252 OA
BRANCH   2   4
ATOM      4  O   UNL     1       3.369   1.309   2.488  1.00  0.00    -0.481 OA
ATOM      5  H   UNL     1       2.982   0.663   3.181  1.00  0.00     0.296 HD
ENDBRANCH   2   4
ENDBRANCH   1   2
BRANCH   1   6
ATOM      6  C   UNL     1       6.531   1.803   0.686  1.00  0.00     0.047 C 
BRANCH   6   7
ATOM      7  C   UNL     1       7.174   1.035  -0.379  1.00  0.00    -0.047 A 
ATOM      8  C   UNL     1       8.516   1.184  -0.641  1.00  0.00     0.004 A 
ATOM      9  C   UNL     1       6.422   0.152  -1.119  1.00  0.00     0.004 A 
ATOM     10  C   UNL     1       9.064   0.417  -1.672  1.00  0.00     0.000 A 
ATOM     11  C   UNL     1       6.965  -0.605  -2.137  1.00  0.00     0.000 A 
ATOM     12  C   UNL     1       8.309  -0.460  -2.408  1.00  0.00     0.000 A 
ENDBRANCH   6   7
ENDBRANCH   1   6
TORSDOF 4
ENDMDL
MODEL 4
REMARK VINA RESULT:      -6.6      1.945      2.663
REMARK SMILES O=C(O)CCc1ccccc1
REMARK SMILES IDX 4 1 2 2 1 3 3 4 5 6 6 7 7 8 11 9 8 10 10 11 9 12
REMARK H PARENT 3 5
REMARK Flexibility Score: inf
ROOT
ATOM      1  C   UNL     1       8.252   0.178  -2.160  1.00  0.00     0.127 C 
ENDROOT
BRANCH   1   2
ATOM      2  C   UNL     1       9.388   0.344  -1.223  1.00  0.00     0.303 C 
ATOM      3  O   UNL     1       9.497  -0.373  -0.197  1.00  0.00    -0.252 OA
BRANCH   2   4
ATOM      4  O   UNL     1      10.365   1.300  -1.454  1.00  0.00    -0.481 OA
ATOM      5  H   UNL     1      10.907   1.663  -0.665  1.00  0.00     0.296 HD
ENDBRANCH   2   4
ENDBRANCH   1   2
BRANCH   1   6
ATOM      6  C   UNL     1       7.175  -0.594  -1.460  1.00  0.00     0.047 C 
BRANCH   6   7
ATOM      7  C   UNL     1       6.378   0.206  -0.532  1.00  0.00    -0.047 A 
ATOM      8  C   UNL     1       6.146  -0.230   0.752  1.00  0.00     0.004 A 
ATOM      9  C   UNL     1       5.860   1.408  -0.955  1.00  0.00     0.004 A 
ATOM     10  C   UNL     1       5.377   0.586   1.585  1.00  0.00     0.000 A 
ATOM     11  C   UNL     1       5.099   2.213  -0.131  1.00  0.00     0.000 A 
ATOM     12  C   UNL     1       4.862   1.783   1.157  1.00  0.00     0.000 A 
ENDBRANCH   6   7
ENDBRANCH   1   6
TORSDOF 4
ENDMDL
MODEL 5
REMARK VINA RESULT:      -6.5      3.713      4.909
REMARK SMILES O=C(O)CCc1ccccc1
REMARK SMILES IDX 4 1 2 2 1 3 3 4 5 6 6 7 7 8 11 9 8 10 10 11 9 12
REMARK H PARENT 3 5
REMARK Flexibility Score: inf
ROOT
ATOM      1  C   UNL     1       5.332   2.865   0.050  1.00  0.00     0.127 C 
ENDROOT
BRANCH   1   2
ATOM      2  C   UNL     1       6.197   3.744   0.872  1.00  0.00     0.303 C 
ATOM      3  O   UNL     1       6.299   3.581   2.113  1.00  0.00    -0.252 OA
BRANCH   2   4
ATOM      4  O   UNL     1       6.919   4.773   0.290  1.00  0.00    -0.481 OA
ATOM      5  H   UNL     1       6.613   5.741   0.428  1.00  0.00     0.296 HD
ENDBRANCH   2   4
ENDBRANCH   1   2
BRANCH   1   6
ATOM      6  C   UNL     1       5.098   1.594   0.807  1.00  0.00     0.047 C 
BRANCH   6   7
ATOM      7  C   UNL     1       5.961   0.488   0.393  1.00  0.00    -0.047 A 
ATOM      8  C   UNL     1       6.341   0.347  -0.921  1.00  0.00     0.004 A 
ATOM      9  C   UNL     1       6.394  -0.415   1.337  1.00  0.00     0.004 A 
ATOM     10  C   UNL     1       7.167  -0.732  -1.244  1.00  0.00     0.000 A 
ATOM     11  C   UNL     1       7.210  -1.481   1.015  1.00  0.00     0.000 A 
ATOM     12  C   UNL     1       7.595  -1.630  -0.299  1.00  0.00     0.000 A 
ENDBRANCH   6   7
ENDBRANCH   1   6
TORSDOF 4
ENDMDL
