@<TRIPOS>MOLECULE
/home/cewinharhar/GITHUB/reincatalyze/data/processed/docking_pred/2023_Apr_20-15:07/fbb46063794dc265e75c2cefc4e8ae8bb502d9b1_ligand_2.pdbqt
 12 12 0 0 0
SMALL
GASTEIGER

@<TRIPOS>ATOM
      1  C          5.3320    2.8650    0.0500 C.3     1  UNL1        0.1270
      2  C          6.1970    3.7440    0.8720 C.2     1  UNL1        0.3030
      3  O          6.2990    3.5810    2.1130 O.2     1  UNL1       -0.2520
      4  O          6.9190    4.7730    0.2900 O.3     1  UNL1       -0.4810
      5  H          6.6130    5.7410    0.4280 H       1  UNL1        0.2960
      6  C          5.0980    1.5940    0.8070 C.3     1  UNL1        0.0470
      7  C          5.9610    0.4880    0.3930 C.2     1  UNL1       -0.0470
      8  C          6.3410    0.3470   -0.9210 C.2     1  UNL1        0.0040
      9  C          6.3940   -0.4150    1.3370 C.2     1  UNL1        0.0040
     10  C          7.1670   -0.7320   -1.2440 C.2     1  UNL1        0.0000
     11  C          7.2100   -1.4810    1.0150 C.2     1  UNL1        0.0000
     12  C          7.5950   -1.6300   -0.2990 C.2     1  UNL1        0.0000
@<TRIPOS>BOND
     1    10     8    1
     2    10    12    2
     3     8     7    2
     4    12    11    1
     5     1     6    1
     6     1     2    1
     7     4     5    1
     8     4     2    1
     9     7     6    1
    10     7     9    1
    11     2     3    2
    12    11     9    2
