@<TRIPOS>MOLECULE
/home/cewinharhar/GITHUB/reincatalyze/data/processed/docking_pred/2023_Apr_20-15:07/fbb46063794dc265e75c2cefc4e8ae8bb502d9b1_ligand_2.pdbqt
 12 12 0 0 0
SMALL
GASTEIGER

@<TRIPOS>ATOM
      1  C          8.2520    0.1780   -2.1600 C.3     1  UNL1        0.1270
      2  C          9.3880    0.3440   -1.2230 C.2     1  UNL1        0.3030
      3  O          9.4970   -0.3730   -0.1970 O.2     1  UNL1       -0.2520
      4  O         10.3650    1.3000   -1.4540 O.3     1  UNL1       -0.4810
      5  H         10.9070    1.6630   -0.6650 H       1  UNL1        0.2960
      6  C          7.1750   -0.5940   -1.4600 C.3     1  UNL1        0.0470
      7  C          6.3780    0.2060   -0.5320 C.2     1  UNL1       -0.0470
      8  C          6.1460   -0.2300    0.7520 C.2     1  UNL1        0.0040
      9  C          5.8600    1.4080   -0.9550 C.2     1  UNL1        0.0040
     10  C          5.3770    0.5860    1.5850 C.2     1  UNL1        0.0000
     11  C          5.0990    2.2130   -0.1310 C.2     1  UNL1        0.0000
     12  C          4.8620    1.7830    1.1570 C.2     1  UNL1        0.0000
@<TRIPOS>BOND
     1     1     6    1
     2     1     2    1
     3     6     7    1
     4     4     2    1
     5     4     5    1
     6     2     3    2
     7     9     7    2
     8     9    11    1
     9     7     8    1
    10    11    12    2
    11     8    10    2
    12    12    10    1
