@<TRIPOS>MOLECULE
/home/cewinharhar/GITHUB/reincatalyze/data/processed/docking_pred/2023_Apr_20-15:07/fbb46063794dc265e75c2cefc4e8ae8bb502d9b1_ligand_2.pdbqt
 12 12 0 0 0
SMALL
GASTEIGER

@<TRIPOS>ATOM
      1  C          8.4400   -0.6050   -2.1640 C.3     1  UNL1        0.1270
      2  C          8.4860   -1.8830   -2.9120 C.2     1  UNL1        0.3030
      3  O          9.5710   -2.4870   -3.1040 O.2     1  UNL1       -0.2520
      4  O          7.3290   -2.4490   -3.4230 O.3     1  UNL1       -0.4810
      5  H          6.4740   -1.8870   -3.4680 H       1  UNL1        0.2960
      6  C          7.0210   -0.1260   -2.1360 C.3     1  UNL1        0.0470
      7  C          6.4810    0.0550   -0.7900 C.2     1  UNL1       -0.0470
      8  C          5.8450    1.2230   -0.4380 C.2     1  UNL1        0.0040
      9  C          6.6120   -0.9610    0.1280 C.2     1  UNL1        0.0040
     10  C          5.3530    1.3260    0.8650 C.2     1  UNL1        0.0000
     11  C          6.1250   -0.8580    1.4160 C.2     1  UNL1        0.0000
     12  C          5.4880    0.3100    1.7770 C.2     1  UNL1        0.0000
@<TRIPOS>BOND
     1     5     4    1
     2     4     2    1
     3     3     2    2
     4     2     1    1
     5     1     6    1
     6     6     7    1
     7     7     8    2
     8     7     9    1
     9     8    10    1
    10     9    11    2
    11    10    12    2
    12    11    12    1
