@<TRIPOS>MOLECULE
/home/cewinharhar/GITHUB/reincatalyze/data/processed/docking_pred/2023_Apr_20-15:07/fbb46063794dc265e75c2cefc4e8ae8bb502d9b1_ligand_2.pdbqt
 12 12 0 0 0
SMALL
GASTEIGER

@<TRIPOS>ATOM
      1  C          8.4600   -0.6510   -2.0810 C.3     1  UNL1        0.1270
      2  C          8.3970   -1.9020   -2.8730 C.2     1  UNL1        0.3030
      3  O          7.2960   -2.4030   -3.2110 O.2     1  UNL1       -0.2520
      4  O          9.5550   -2.5550   -3.2620 O.3     1  UNL1       -0.4810
      5  H          9.9680   -2.3410   -4.1750 H       1  UNL1        0.2960
      6  C          7.0990   -0.0250   -2.0800 C.3     1  UNL1        0.0470
      7  C          6.5080    0.1110   -0.7490 C.2     1  UNL1       -0.0470
      8  C          6.6300   -0.8960    0.1800 C.2     1  UNL1        0.0040
      9  C          5.8250    1.2620   -0.4320 C.2     1  UNL1        0.0040
     10  C          6.0410   -0.6980    1.4310 C.2     1  UNL1        0.0000
     11  C          5.2440    1.4570    0.8050 C.2     1  UNL1        0.0000
     12  C          5.3610    0.4530    1.7420 C.2     1  UNL1        0.0000
@<TRIPOS>BOND
     1     5     4    1
     2     4     2    1
     3     3     2    2
     4     2     1    1
     5     1     6    1
     6     6     7    1
     7     7     9    2
     8     7     8    1
     9     9    11    1
    10     8    10    2
    11    11    12    2
    12    10    12    1
