@<TRIPOS>MOLECULE
/home/cewinharhar/GITHUB/reincatalyze/data/processed/docking_pred/2023_Apr_20-15:07/fbb46063794dc265e75c2cefc4e8ae8bb502d9b1_ligand_2.pdbqt
 12 12 0 0 0
SMALL
GASTEIGER

@<TRIPOS>ATOM
      1  C          5.0350    1.7210    0.6780 C.3     1  UNL1        0.1270
      2  C          4.6000    1.0310    1.9150 C.2     1  UNL1        0.3030
      3  O          5.3310    0.1780    2.4760 O.2     1  UNL1       -0.2520
      4  O          3.3690    1.3090    2.4880 O.3     1  UNL1       -0.4810
      5  H          2.9820    0.6630    3.1810 H       1  UNL1        0.2960
      6  C          6.5310    1.8030    0.6860 C.3     1  UNL1        0.0470
      7  C          7.1740    1.0350   -0.3790 C.2     1  UNL1       -0.0470
      8  C          8.5160    1.1840   -0.6410 C.2     1  UNL1        0.0040
      9  C          6.4220    0.1520   -1.1190 C.2     1  UNL1        0.0040
     10  C          9.0640    0.4170   -1.6720 C.2     1  UNL1        0.0000
     11  C          6.9650   -0.6050   -2.1370 C.2     1  UNL1        0.0000
     12  C          8.3090   -0.4600   -2.4080 C.2     1  UNL1        0.0000
@<TRIPOS>BOND
     1    12    11    2
     2    12    10    1
     3    11     9    1
     4    10     8    2
     5     9     7    2
     6     8     7    1
     7     7     6    1
     8     1     6    1
     9     1     2    1
    10     2     3    2
    11     2     4    1
    12     4     5    1
