@<TRIPOS>MOLECULE
/home/cewinharhar/GITHUB/reincatalyze/data/processed/docking_pred/2023_Apr_20-15:07/fc1d4194c005f01296b9c57c803e441f6dc40ccd_ligand_2.pdbqt
 12 12 0 0 0
SMALL
GASTEIGER

@<TRIPOS>ATOM
      1  C          5.3840    2.9290    0.0610 C.3     1  UNL1        0.1270
      2  C          6.3130    3.7730    0.8490 C.2     1  UNL1        0.3030
      3  O          6.8740    4.7750    0.3390 O.2     1  UNL1       -0.2520
      4  O          6.5880    3.4790    2.1740 O.3     1  UNL1       -0.4810
      5  H          6.9700    2.5600    2.4150 H       1  UNL1        0.2960
      6  C          5.2180    1.6210    0.7730 C.3     1  UNL1        0.0470
      7  C          6.0190    0.5340    0.2140 C.2     1  UNL1       -0.0470
      8  C          6.4760   -0.4860    1.0160 C.2     1  UNL1        0.0040
      9  C          6.3120    0.5380   -1.1300 C.2     1  UNL1        0.0040
     10  C          7.2350   -1.4930    0.4140 C.2     1  UNL1        0.0000
     11  C          7.0620   -0.4580   -1.7230 C.2     1  UNL1        0.0000
     12  C          7.5250   -1.4830   -0.9270 C.2     1  UNL1        0.0000
@<TRIPOS>BOND
     1    11     9    1
     2    11    12    2
     3     9     7    2
     4    12    10    1
     5     1     6    1
     6     1     2    1
     7     7     6    1
     8     7     8    1
     9     3     2    2
    10    10     8    2
    11     2     4    1
    12     4     5    1
