MODEL 1
REMARK VINA RESULT:      -7.4      0.000      0.000
REMARK SMILES O=C(O)CCc1ccccc1
REMARK SMILES IDX 4 1 2 2 1 3 3 4 5 6 6 7 7 8 11 9 8 10 10 11 9 12
REMARK H PARENT 3 5
REMARK Flexibility Score: inf
ROOT
ATOM      1  C   UNL     1       8.409  -0.615  -2.144  1.00  0.00     0.127 C 
ENDROOT
BRANCH   1   2
ATOM      2  C   UNL     1       8.447  -1.898  -2.886  1.00  0.00     0.303 C 
ATOM      3  O   UNL     1       9.524  -2.524  -3.048  1.00  0.00    -0.252 OA
BRANCH   2   4
ATOM      4  O   UNL     1       7.292  -2.442  -3.424  1.00  0.00    -0.481 OA
ATOM      5  H   UNL     1       7.363  -3.250  -4.048  1.00  0.00     0.296 HD
ENDBRANCH   2   4
ENDBRANCH   1   2
BRANCH   1   6
ATOM      6  C   UNL     1       6.990  -0.135  -2.108  1.00  0.00     0.047 C 
BRANCH   6   7
ATOM      7  C   UNL     1       6.453   0.034  -0.759  1.00  0.00    -0.047 A 
ATOM      8  C   UNL     1       5.827   1.203  -0.392  1.00  0.00     0.004 A 
ATOM      9  C   UNL     1       6.578  -0.994   0.147  1.00  0.00     0.004 A 
ATOM     10  C   UNL     1       5.337   1.294   0.913  1.00  0.00     0.000 A 
ATOM     11  C   UNL     1       6.093  -0.902   1.436  1.00  0.00     0.000 A 
ATOM     12  C   UNL     1       5.466   0.266   1.812  1.00  0.00     0.000 A 
ENDBRANCH   6   7
ENDBRANCH   1   6
TORSDOF 4
ENDMDL
MODEL 2
REMARK VINA RESULT:      -7.3      0.169      1.733
REMARK SMILES O=C(O)CCc1ccccc1
REMARK SMILES IDX 4 1 2 2 1 3 3 4 5 6 6 7 7 8 11 9 8 10 10 11 9 12
REMARK H PARENT 3 5
REMARK Flexibility Score: inf
ROOT
ATOM      1  C   UNL     1       8.476  -0.655  -2.069  1.00  0.00     0.127 C 
ENDROOT
BRANCH   1   2
ATOM      2  C   UNL     1       8.404  -1.902  -2.865  1.00  0.00     0.303 C 
ATOM      3  O   UNL     1       7.299  -2.399  -3.197  1.00  0.00    -0.252 OA
BRANCH   2   4
ATOM      4  O   UNL     1       9.557  -2.557  -3.266  1.00  0.00    -0.481 OA
ATOM      5  H   UNL     1      10.103  -3.078  -2.575  1.00  0.00     0.296 HD
ENDBRANCH   2   4
ENDBRANCH   1   2
BRANCH   1   6
ATOM      6  C   UNL     1       7.121  -0.015  -2.072  1.00  0.00     0.047 C 
BRANCH   6   7
ATOM      7  C   UNL     1       6.522   0.112  -0.744  1.00  0.00    -0.047 A 
ATOM      8  C   UNL     1       6.648  -0.895   0.184  1.00  0.00     0.004 A 
ATOM      9  C   UNL     1       5.827   1.257  -0.429  1.00  0.00     0.004 A 
ATOM     10  C   UNL     1       6.050  -0.705   1.432  1.00  0.00     0.000 A 
ATOM     11  C   UNL     1       5.236   1.443   0.805  1.00  0.00     0.000 A 
ATOM     12  C   UNL     1       5.358   0.439   1.741  1.00  0.00     0.000 A 
ENDBRANCH   6   7
ENDBRANCH   1   6
TORSDOF 4
ENDMDL
MODEL 3
REMARK VINA RESULT:      -6.8      3.377      5.079
REMARK SMILES O=C(O)CCc1ccccc1
REMARK SMILES IDX 4 1 2 2 1 3 3 4 5 6 6 7 7 8 11 9 8 10 10 11 9 12
REMARK H PARENT 3 5
REMARK Flexibility Score: inf
ROOT
ATOM      1  C   UNL     1       5.010   1.734   0.696  1.00  0.00     0.127 C 
ENDROOT
BRANCH   1   2
ATOM      2  C   UNL     1       4.484   1.086   1.920  1.00  0.00     0.303 C 
ATOM      3  O   UNL     1       5.129   0.181   2.506  1.00  0.00    -0.252 OA
BRANCH   2   4
ATOM      4  O   UNL     1       3.260   1.460   2.452  1.00  0.00    -0.481 OA
ATOM      5  H   UNL     1       2.559   0.742   2.650  1.00  0.00     0.296 HD
ENDBRANCH   2   4
ENDBRANCH   1   2
BRANCH   1   6
ATOM      6  C   UNL     1       6.507   1.697   0.750  1.00  0.00     0.047 C 
BRANCH   6   7
ATOM      7  C   UNL     1       7.122   0.944  -0.342  1.00  0.00    -0.047 A 
ATOM      8  C   UNL     1       6.409  -0.013  -1.026  1.00  0.00     0.004 A 
ATOM      9  C   UNL     1       8.430   1.204  -0.683  1.00  0.00     0.004 A 
ATOM     10  C   UNL     1       7.060  -0.692  -2.058  1.00  0.00     0.000 A 
ATOM     11  C   UNL     1       9.072   0.531  -1.703  1.00  0.00     0.000 A 
ATOM     12  C   UNL     1       8.365  -0.429  -2.393  1.00  0.00     0.000 A 
ENDBRANCH   6   7
ENDBRANCH   1   6
TORSDOF 4
ENDMDL
MODEL 4
REMARK VINA RESULT:      -6.6      2.014      2.706
REMARK SMILES O=C(O)CCc1ccccc1
REMARK SMILES IDX 4 1 2 2 1 3 3 4 5 6 6 7 7 8 11 9 8 10 10 11 9 12
REMARK H PARENT 3 5
REMARK Flexibility Score: inf
ROOT
ATOM      1  C   UNL     1       8.409   0.487  -1.845  1.00  0.00     0.127 C 
ENDROOT
BRANCH   1   2
ATOM      2  C   UNL     1       9.550   0.245  -0.931  1.00  0.00     0.303 C 
ATOM      3  O   UNL     1       9.442  -0.525   0.055  1.00  0.00    -0.252 OA
BRANCH   2   4
ATOM      4  O   UNL     1      10.771   0.865  -1.140  1.00  0.00    -0.481 OA
ATOM      5  H   UNL     1      11.320   0.623  -1.970  1.00  0.00     0.296 HD
ENDBRANCH   2   4
ENDBRANCH   1   2
BRANCH   1   6
ATOM      6  C   UNL     1       7.261  -0.369  -1.402  1.00  0.00     0.047 C 
BRANCH   6   7
ATOM      7  C   UNL     1       6.407   0.258  -0.395  1.00  0.00    -0.047 A 
ATOM      8  C   UNL     1       6.185  -0.351   0.818  1.00  0.00     0.004 A 
ATOM      9  C   UNL     1       5.823   1.473  -0.673  1.00  0.00     0.004 A 
ATOM     10  C   UNL     1       5.358   0.305   1.732  1.00  0.00     0.000 A 
ATOM     11  C   UNL     1       5.005   2.120   0.232  1.00  0.00     0.000 A 
ATOM     12  C   UNL     1       4.778   1.516   1.450  1.00  0.00     0.000 A 
ENDBRANCH   6   7
ENDBRANCH   1   6
TORSDOF 4
ENDMDL
MODEL 5
REMARK VINA RESULT:      -6.6      3.695      5.033
REMARK SMILES O=C(O)CCc1ccccc1
REMARK SMILES IDX 4 1 2 2 1 3 3 4 5 6 6 7 7 8 11 9 8 10 10 11 9 12
REMARK H PARENT 3 5
REMARK Flexibility Score: inf
ROOT
ATOM      1  C   UNL     1       5.384   2.929   0.061  1.00  0.00     0.127 C 
ENDROOT
BRANCH   1   2
ATOM      2  C   UNL     1       6.313   3.773   0.849  1.00  0.00     0.303 C 
ATOM      3  O   UNL     1       6.874   4.775   0.339  1.00  0.00    -0.252 OA
BRANCH   2   4
ATOM      4  O   UNL     1       6.588   3.479   2.174  1.00  0.00    -0.481 OA
ATOM      5  H   UNL     1       6.970   2.560   2.415  1.00  0.00     0.296 HD
ENDBRANCH   2   4
ENDBRANCH   1   2
BRANCH   1   6
ATOM      6  C   UNL     1       5.218   1.621   0.773  1.00  0.00     0.047 C 
BRANCH   6   7
ATOM      7  C   UNL     1       6.019   0.534   0.214  1.00  0.00    -0.047 A 
ATOM      8  C   UNL     1       6.476  -0.486   1.016  1.00  0.00     0.004 A 
ATOM      9  C   UNL     1       6.312   0.538  -1.130  1.00  0.00     0.004 A 
ATOM     10  C   UNL     1       7.235  -1.493   0.414  1.00  0.00     0.000 A 
ATOM     11  C   UNL     1       7.062  -0.458  -1.723  1.00  0.00     0.000 A 
ATOM     12  C   UNL     1       7.525  -1.483  -0.927  1.00  0.00     0.000 A 
ENDBRANCH   6   7
ENDBRANCH   1   6
TORSDOF 4
ENDMDL
