@<TRIPOS>MOLECULE
/home/cewinharhar/GITHUB/reincatalyze/data/processed/docking_pred/2023_Apr_20-15:07/fc1d4194c005f01296b9c57c803e441f6dc40ccd_ligand_2.pdbqt
 12 12 0 0 0
SMALL
GASTEIGER

@<TRIPOS>ATOM
      1  C          8.4090   -0.6150   -2.1440 C.3     1  UNL1        0.1270
      2  C          8.4470   -1.8980   -2.8860 C.2     1  UNL1        0.3030
      3  O          9.5240   -2.5240   -3.0480 O.2     1  UNL1       -0.2520
      4  O          7.2920   -2.4420   -3.4240 O.3     1  UNL1       -0.4810
      5  H          7.3630   -3.2500   -4.0480 H       1  UNL1        0.2960
      6  C          6.9900   -0.1350   -2.1080 C.3     1  UNL1        0.0470
      7  C          6.4530    0.0340   -0.7590 C.2     1  UNL1       -0.0470
      8  C          5.8270    1.2030   -0.3920 C.2     1  UNL1        0.0040
      9  C          6.5780   -0.9940    0.1470 C.2     1  UNL1        0.0040
     10  C          5.3370    1.2940    0.9130 C.2     1  UNL1        0.0000
     11  C          6.0930   -0.9020    1.4360 C.2     1  UNL1        0.0000
     12  C          5.4660    0.2660    1.8120 C.2     1  UNL1        0.0000
@<TRIPOS>BOND
     1     5     4    1
     2     4     2    1
     3     3     2    2
     4     2     1    1
     5     1     6    1
     6     6     7    1
     7     7     8    2
     8     7     9    1
     9     8    10    1
    10     9    11    2
    11    10    12    2
    12    11    12    1
