@<TRIPOS>MOLECULE
/home/cewinharhar/GITHUB/reincatalyze/data/processed/docking_pred/2023_Apr_20-15:07/fc1d4194c005f01296b9c57c803e441f6dc40ccd_ligand_2.pdbqt
 12 12 0 0 0
SMALL
GASTEIGER

@<TRIPOS>ATOM
      1  C          5.0100    1.7340    0.6960 C.3     1  UNL1        0.1270
      2  C          4.4840    1.0860    1.9200 C.2     1  UNL1        0.3030
      3  O          5.1290    0.1810    2.5060 O.2     1  UNL1       -0.2520
      4  O          3.2600    1.4600    2.4520 O.3     1  UNL1       -0.4810
      5  H          2.5590    0.7420    2.6500 H       1  UNL1        0.2960
      6  C          6.5070    1.6970    0.7500 C.3     1  UNL1        0.0470
      7  C          7.1220    0.9440   -0.3420 C.2     1  UNL1       -0.0470
      8  C          6.4090   -0.0130   -1.0260 C.2     1  UNL1        0.0040
      9  C          8.4300    1.2040   -0.6830 C.2     1  UNL1        0.0040
     10  C          7.0600   -0.6920   -2.0580 C.2     1  UNL1        0.0000
     11  C          9.0720    0.5310   -1.7030 C.2     1  UNL1        0.0000
     12  C          8.3650   -0.4290   -2.3930 C.2     1  UNL1        0.0000
@<TRIPOS>BOND
     1    12    10    2
     2    12    11    1
     3    10     8    1
     4    11     9    2
     5     8     7    2
     6     9     7    1
     7     7     6    1
     8     1     6    1
     9     1     2    1
    10     2     4    1
    11     2     3    2
    12     4     5    1
