@<TRIPOS>MOLECULE
/home/cewinharhar/GITHUB/reincatalyze/data/processed/docking_pred/2023_Apr_20-15:07/fc1d4194c005f01296b9c57c803e441f6dc40ccd_ligand_2.pdbqt
 12 12 0 0 0
SMALL
GASTEIGER

@<TRIPOS>ATOM
      1  C          8.4760   -0.6550   -2.0690 C.3     1  UNL1        0.1270
      2  C          8.4040   -1.9020   -2.8650 C.2     1  UNL1        0.3030
      3  O          7.2990   -2.3990   -3.1970 O.2     1  UNL1       -0.2520
      4  O          9.5570   -2.5570   -3.2660 O.3     1  UNL1       -0.4810
      5  H         10.1030   -3.0780   -2.5750 H       1  UNL1        0.2960
      6  C          7.1210   -0.0150   -2.0720 C.3     1  UNL1        0.0470
      7  C          6.5220    0.1120   -0.7440 C.2     1  UNL1       -0.0470
      8  C          6.6480   -0.8950    0.1840 C.2     1  UNL1        0.0040
      9  C          5.8270    1.2570   -0.4290 C.2     1  UNL1        0.0040
     10  C          6.0500   -0.7050    1.4320 C.2     1  UNL1        0.0000
     11  C          5.2360    1.4430    0.8050 C.2     1  UNL1        0.0000
     12  C          5.3580    0.4390    1.7410 C.2     1  UNL1        0.0000
@<TRIPOS>BOND
     1     4     2    1
     2     4     5    1
     3     3     2    2
     4     2     1    1
     5     6     1    1
     6     6     7    1
     7     7     9    2
     8     7     8    1
     9     9    11    1
    10     8    10    2
    11    11    12    2
    12    10    12    1
