@<TRIPOS>MOLECULE
/home/cewinharhar/GITHUB/reincatalyze/data/processed/docking_pred/2023_Apr_20-15:07/fc1d4194c005f01296b9c57c803e441f6dc40ccd_ligand_2.pdbqt
 12 12 0 0 0
SMALL
GASTEIGER

@<TRIPOS>ATOM
      1  C          8.4090    0.4870   -1.8450 C.3     1  UNL1        0.1270
      2  C          9.5500    0.2450   -0.9310 C.2     1  UNL1        0.3030
      3  O          9.4420   -0.5250    0.0550 O.2     1  UNL1       -0.2520
      4  O         10.7710    0.8650   -1.1400 O.3     1  UNL1       -0.4810
      5  H         11.3200    0.6230   -1.9700 H       1  UNL1        0.2960
      6  C          7.2610   -0.3690   -1.4020 C.3     1  UNL1        0.0470
      7  C          6.4070    0.2580   -0.3950 C.2     1  UNL1       -0.0470
      8  C          6.1850   -0.3510    0.8180 C.2     1  UNL1        0.0040
      9  C          5.8230    1.4730   -0.6730 C.2     1  UNL1        0.0040
     10  C          5.3580    0.3050    1.7320 C.2     1  UNL1        0.0000
     11  C          5.0050    2.1200    0.2320 C.2     1  UNL1        0.0000
     12  C          4.7780    1.5160    1.4500 C.2     1  UNL1        0.0000
@<TRIPOS>BOND
     1     5     4    1
     2     1     6    1
     3     1     2    1
     4     6     7    1
     5     4     2    1
     6     2     3    2
     7     9     7    2
     8     9    11    1
     9     7     8    1
    10    11    12    2
    11     8    10    2
    12    12    10    1
