@<TRIPOS>MOLECULE
/home/cewinharhar/GITHUB/reincatalyze/data/processed/docking_pred/2023_Apr_20-15:07/fd751eb3811fc03d22e30b1993ea0072812fb772_ligand_2.pdbqt
 12 12 0 0 0
SMALL
GASTEIGER

@<TRIPOS>ATOM
      1  C          8.4310   -0.5930   -2.1790 C.3     1  UNL1        0.1270
      2  C          8.4820   -1.8810   -2.9090 C.2     1  UNL1        0.3030
      3  O          9.5690   -2.4830   -3.0920 O.2     1  UNL1       -0.2520
      4  O          7.3270   -2.4580   -3.4130 O.3     1  UNL1       -0.4810
      5  H          6.7390   -1.9210   -4.0560 H       1  UNL1        0.2960
      6  C          7.0070   -0.1280   -2.1420 C.3     1  UNL1        0.0470
      7  C          6.4760    0.0570   -0.7930 C.2     1  UNL1       -0.0470
      8  C          5.8480    1.2290   -0.4390 C.2     1  UNL1        0.0040
      9  C          6.6080   -0.9590    0.1260 C.2     1  UNL1        0.0040
     10  C          5.3650    1.3360    0.8670 C.2     1  UNL1        0.0000
     11  C          6.1300   -0.8510    1.4160 C.2     1  UNL1        0.0000
     12  C          5.5000    0.3200    1.7800 C.2     1  UNL1        0.0000
@<TRIPOS>BOND
     1     5     4    1
     2     4     2    1
     3     3     2    2
     4     2     1    1
     5     1     6    1
     6     6     7    1
     7     7     8    2
     8     7     9    1
     9     8    10    1
    10     9    11    2
    11    10    12    2
    12    11    12    1
