@<TRIPOS>MOLECULE
/home/cewinharhar/GITHUB/reincatalyze/data/processed/docking_pred/2023_Apr_20-15:07/fd751eb3811fc03d22e30b1993ea0072812fb772_ligand_2.pdbqt
 12 12 0 0 0
SMALL
GASTEIGER

@<TRIPOS>ATOM
      1  C          5.0290    1.7740    0.6870 C.3     1  UNL1        0.1270
      2  C          4.5000    1.1050    1.8990 C.2     1  UNL1        0.3030
      3  O          5.1450    0.1930    2.4730 O.2     1  UNL1       -0.2520
      4  O          3.2750    1.4700    2.4340 O.3     1  UNL1       -0.4810
      5  H          3.1360    2.4310    2.7580 H       1  UNL1        0.2960
      6  C          6.5260    1.7590    0.7560 C.3     1  UNL1        0.0470
      7  C          7.1640    1.0210   -0.3320 C.2     1  UNL1       -0.0470
      8  C          8.4850    1.2370   -0.6480 C.2     1  UNL1        0.0040
      9  C          6.4280    0.1000   -1.0410 C.2     1  UNL1        0.0040
     10  C          9.0300    0.4950   -1.6990 C.2     1  UNL1        0.0000
     11  C          6.9670   -0.6320   -2.0800 C.2     1  UNL1        0.0000
     12  C          8.2900   -0.4210   -2.4040 C.2     1  UNL1        0.0000
@<TRIPOS>BOND
     1    12    11    2
     2    12    10    1
     3    11     9    1
     4    10     8    2
     5     9     7    2
     6     8     7    1
     7     7     6    1
     8     1     6    1
     9     1     2    1
    10     2     4    1
    11     2     3    2
    12     4     5    1
