MODEL 1
REMARK VINA RESULT:      -7.4      0.000      0.000
REMARK SMILES O=C(O)CCc1ccccc1
REMARK SMILES IDX 4 1 2 2 1 3 3 4 5 6 6 7 7 8 11 9 8 10 10 11 9 12
REMARK H PARENT 3 5
REMARK Flexibility Score: inf
ROOT
ATOM      1  C   UNL     1       8.480  -0.658  -2.131  1.00  0.00     0.127 C 
ENDROOT
BRANCH   1   2
ATOM      2  C   UNL     1       8.504  -1.918  -2.911  1.00  0.00     0.303 C 
ATOM      3  O   UNL     1       9.575  -2.546  -3.099  1.00  0.00    -0.252 OA
BRANCH   2   4
ATOM      4  O   UNL     1       7.341  -2.438  -3.456  1.00  0.00    -0.481 OA
ATOM      5  H   UNL     1       7.214  -2.424  -4.472  1.00  0.00     0.296 HD
ENDBRANCH   2   4
ENDBRANCH   1   2
BRANCH   1   6
ATOM      6  C   UNL     1       7.076  -0.134  -2.127  1.00  0.00     0.047 C 
BRANCH   6   7
ATOM      7  C   UNL     1       6.510   0.037  -0.790  1.00  0.00    -0.047 A 
ATOM      8  C   UNL     1       6.638  -0.949   0.161  1.00  0.00     0.004 A 
ATOM      9  C   UNL     1       5.844   1.203  -0.487  1.00  0.00     0.004 A 
ATOM     10  C   UNL     1       6.074  -0.716   1.417  1.00  0.00     0.000 A 
ATOM     11  C   UNL     1       5.286   1.431   0.755  1.00  0.00     0.000 A 
ATOM     12  C   UNL     1       5.410   0.448   1.713  1.00  0.00     0.000 A 
ENDBRANCH   6   7
ENDBRANCH   1   6
TORSDOF 4
ENDMDL
MODEL 2
REMARK VINA RESULT:      -7.3      0.099      1.439
REMARK SMILES O=C(O)CCc1ccccc1
REMARK SMILES IDX 4 1 2 2 1 3 3 4 5 6 6 7 7 8 11 9 8 10 10 11 9 12
REMARK H PARENT 3 5
REMARK Flexibility Score: inf
ROOT
ATOM      1  C   UNL     1       8.431  -0.593  -2.179  1.00  0.00     0.127 C 
ENDROOT
BRANCH   1   2
ATOM      2  C   UNL     1       8.482  -1.881  -2.909  1.00  0.00     0.303 C 
ATOM      3  O   UNL     1       9.569  -2.483  -3.092  1.00  0.00    -0.252 OA
BRANCH   2   4
ATOM      4  O   UNL     1       7.327  -2.458  -3.413  1.00  0.00    -0.481 OA
ATOM      5  H   UNL     1       6.739  -1.921  -4.056  1.00  0.00     0.296 HD
ENDBRANCH   2   4
ENDBRANCH   1   2
BRANCH   1   6
ATOM      6  C   UNL     1       7.007  -0.128  -2.142  1.00  0.00     0.047 C 
BRANCH   6   7
ATOM      7  C   UNL     1       6.476   0.057  -0.793  1.00  0.00    -0.047 A 
ATOM      8  C   UNL     1       5.848   1.229  -0.439  1.00  0.00     0.004 A 
ATOM      9  C   UNL     1       6.608  -0.959   0.126  1.00  0.00     0.004 A 
ATOM     10  C   UNL     1       5.365   1.336   0.867  1.00  0.00     0.000 A 
ATOM     11  C   UNL     1       6.130  -0.851   1.416  1.00  0.00     0.000 A 
ATOM     12  C   UNL     1       5.500   0.320   1.780  1.00  0.00     0.000 A 
ENDBRANCH   6   7
ENDBRANCH   1   6
TORSDOF 4
ENDMDL
MODEL 3
REMARK VINA RESULT:      -6.8      3.382      5.084
REMARK SMILES O=C(O)CCc1ccccc1
REMARK SMILES IDX 4 1 2 2 1 3 3 4 5 6 6 7 7 8 11 9 8 10 10 11 9 12
REMARK H PARENT 3 5
REMARK Flexibility Score: inf
ROOT
ATOM      1  C   UNL     1       5.029   1.774   0.687  1.00  0.00     0.127 C 
ENDROOT
BRANCH   1   2
ATOM      2  C   UNL     1       4.500   1.105   1.899  1.00  0.00     0.303 C 
ATOM      3  O   UNL     1       5.145   0.193   2.473  1.00  0.00    -0.252 OA
BRANCH   2   4
ATOM      4  O   UNL     1       3.275   1.470   2.434  1.00  0.00    -0.481 OA
ATOM      5  H   UNL     1       3.136   2.431   2.758  1.00  0.00     0.296 HD
ENDBRANCH   2   4
ENDBRANCH   1   2
BRANCH   1   6
ATOM      6  C   UNL     1       6.526   1.759   0.756  1.00  0.00     0.047 C 
BRANCH   6   7
ATOM      7  C   UNL     1       7.164   1.021  -0.332  1.00  0.00    -0.047 A 
ATOM      8  C   UNL     1       8.485   1.237  -0.648  1.00  0.00     0.004 A 
ATOM      9  C   UNL     1       6.428   0.100  -1.041  1.00  0.00     0.004 A 
ATOM     10  C   UNL     1       9.030   0.495  -1.699  1.00  0.00     0.000 A 
ATOM     11  C   UNL     1       6.967  -0.632  -2.080  1.00  0.00     0.000 A 
ATOM     12  C   UNL     1       8.290  -0.421  -2.404  1.00  0.00     0.000 A 
ENDBRANCH   6   7
ENDBRANCH   1   6
TORSDOF 4
ENDMDL
MODEL 4
REMARK VINA RESULT:      -6.6      1.932      2.641
REMARK SMILES O=C(O)CCc1ccccc1
REMARK SMILES IDX 4 1 2 2 1 3 3 4 5 6 6 7 7 8 11 9 8 10 10 11 9 12
REMARK H PARENT 3 5
REMARK Flexibility Score: inf
ROOT
ATOM      1  C   UNL     1       8.231   0.204  -2.195  1.00  0.00     0.127 C 
ENDROOT
BRANCH   1   2
ATOM      2  C   UNL     1       9.352   0.355  -1.237  1.00  0.00     0.303 C 
ATOM      3  O   UNL     1       9.459  -0.398  -0.238  1.00  0.00    -0.252 OA
BRANCH   2   4
ATOM      4  O   UNL     1      10.314   1.336  -1.418  1.00  0.00    -0.481 OA
ATOM      5  H   UNL     1      10.039   2.321  -1.378  1.00  0.00     0.296 HD
ENDBRANCH   2   4
ENDBRANCH   1   2
BRANCH   1   6
ATOM      6  C   UNL     1       7.128  -0.547  -1.515  1.00  0.00     0.047 C 
BRANCH   6   7
ATOM      7  C   UNL     1       6.346   0.261  -0.581  1.00  0.00    -0.047 A 
ATOM      8  C   UNL     1       5.825   1.475  -0.967  1.00  0.00     0.004 A 
ATOM      9  C   UNL     1       6.132  -0.206   0.695  1.00  0.00     0.004 A 
ATOM     10  C   UNL     1       5.088   2.193  -0.023  1.00  0.00     0.000 A 
ATOM     11  C   UNL     1       5.402   0.505   1.627  1.00  0.00     0.000 A 
ATOM     12  C   UNL     1       4.878   1.722   1.249  1.00  0.00     0.000 A 
ENDBRANCH   6   7
ENDBRANCH   1   6
TORSDOF 4
ENDMDL
MODEL 5
REMARK VINA RESULT:      -6.5      3.708      5.095
REMARK SMILES O=C(O)CCc1ccccc1
REMARK SMILES IDX 4 1 2 2 1 3 3 4 5 6 6 7 7 8 11 9 8 10 10 11 9 12
REMARK H PARENT 3 5
REMARK Flexibility Score: inf
ROOT
ATOM      1  C   UNL     1       5.347   2.910   0.117  1.00  0.00     0.127 C 
ENDROOT
BRANCH   1   2
ATOM      2  C   UNL     1       6.291   3.776   0.862  1.00  0.00     0.303 C 
ATOM      3  O   UNL     1       6.826   4.775   0.319  1.00  0.00    -0.252 OA
BRANCH   2   4
ATOM      4  O   UNL     1       6.611   3.506   2.183  1.00  0.00    -0.481 OA
ATOM      5  H   UNL     1       7.309   2.788   2.392  1.00  0.00     0.296 HD
ENDBRANCH   2   4
ENDBRANCH   1   2
BRANCH   1   6
ATOM      6  C   UNL     1       5.285   1.580   0.804  1.00  0.00     0.047 C 
BRANCH   6   7
ATOM      7  C   UNL     1       6.044   0.528   0.131  1.00  0.00    -0.047 A 
ATOM      8  C   UNL     1       6.301   0.598  -1.218  1.00  0.00     0.004 A 
ATOM      9  C   UNL     1       6.505  -0.541   0.865  1.00  0.00     0.004 A 
ATOM     10  C   UNL     1       7.033  -0.442  -1.794  1.00  0.00     0.000 A 
ATOM     11  C   UNL     1       7.228  -1.570   0.294  1.00  0.00     0.000 A 
ATOM     12  C   UNL     1       7.489  -1.507  -1.058  1.00  0.00     0.000 A 
ENDBRANCH   6   7
ENDBRANCH   1   6
TORSDOF 4
ENDMDL
