@<TRIPOS>MOLECULE
/home/cewinharhar/GITHUB/reincatalyze/data/processed/docking_pred/2023_Apr_20-15:07/fd751eb3811fc03d22e30b1993ea0072812fb772_ligand_2.pdbqt
 12 12 0 0 0
SMALL
GASTEIGER

@<TRIPOS>ATOM
      1  C          8.4800   -0.6580   -2.1310 C.3     1  UNL1        0.1270
      2  C          8.5040   -1.9180   -2.9110 C.2     1  UNL1        0.3030
      3  O          9.5750   -2.5460   -3.0990 O.2     1  UNL1       -0.2520
      4  O          7.3410   -2.4380   -3.4560 O.3     1  UNL1       -0.4810
      5  H          7.2140   -2.4240   -4.4720 H       1  UNL1        0.2960
      6  C          7.0760   -0.1340   -2.1270 C.3     1  UNL1        0.0470
      7  C          6.5100    0.0370   -0.7900 C.2     1  UNL1       -0.0470
      8  C          6.6380   -0.9490    0.1610 C.2     1  UNL1        0.0040
      9  C          5.8440    1.2030   -0.4870 C.2     1  UNL1        0.0040
     10  C          6.0740   -0.7160    1.4170 C.2     1  UNL1        0.0000
     11  C          5.2860    1.4310    0.7550 C.2     1  UNL1        0.0000
     12  C          5.4100    0.4480    1.7130 C.2     1  UNL1        0.0000
@<TRIPOS>BOND
     1     5     4    1
     2     4     2    1
     3     3     2    2
     4     2     1    1
     5     1     6    1
     6     6     7    1
     7     7     9    2
     8     7     8    1
     9     9    11    1
    10     8    10    2
    11    11    12    2
    12    10    12    1
