@<TRIPOS>MOLECULE
/home/cewinharhar/GITHUB/reincatalyze/data/processed/docking_pred/2023_Apr_20-15:07/fd751eb3811fc03d22e30b1993ea0072812fb772_ligand_2.pdbqt
 12 12 0 0 0
SMALL
GASTEIGER

@<TRIPOS>ATOM
      1  C          8.2310    0.2040   -2.1950 C.3     1  UNL1        0.1270
      2  C          9.3520    0.3550   -1.2370 C.2     1  UNL1        0.3030
      3  O          9.4590   -0.3980   -0.2380 O.2     1  UNL1       -0.2520
      4  O         10.3140    1.3360   -1.4180 O.3     1  UNL1       -0.4810
      5  H         10.0390    2.3210   -1.3780 H       1  UNL1        0.2960
      6  C          7.1280   -0.5470   -1.5150 C.3     1  UNL1        0.0470
      7  C          6.3460    0.2610   -0.5810 C.2     1  UNL1       -0.0470
      8  C          5.8250    1.4750   -0.9670 C.2     1  UNL1        0.0040
      9  C          6.1320   -0.2060    0.6950 C.2     1  UNL1        0.0040
     10  C          5.0880    2.1930   -0.0230 C.2     1  UNL1        0.0000
     11  C          5.4020    0.5050    1.6270 C.2     1  UNL1        0.0000
     12  C          4.8780    1.7220    1.2490 C.2     1  UNL1        0.0000
@<TRIPOS>BOND
     1     1     6    1
     2     1     2    1
     3     6     7    1
     4     4     5    1
     5     4     2    1
     6     2     3    2
     7     8     7    2
     8     8    10    1
     9     7     9    1
    10    10    12    2
    11     9    11    2
    12    12    11    1
