@<TRIPOS>MOLECULE
/home/cewinharhar/GITHUB/reincatalyze/data/processed/docking_pred/2023_Apr_20-15:07/fd751eb3811fc03d22e30b1993ea0072812fb772_ligand_2.pdbqt
 12 12 0 0 0
SMALL
GASTEIGER

@<TRIPOS>ATOM
      1  C          5.3470    2.9100    0.1170 C.3     1  UNL1        0.1270
      2  C          6.2910    3.7760    0.8620 C.2     1  UNL1        0.3030
      3  O          6.8260    4.7750    0.3190 O.2     1  UNL1       -0.2520
      4  O          6.6110    3.5060    2.1830 O.3     1  UNL1       -0.4810
      5  H          7.3090    2.7880    2.3920 H       1  UNL1        0.2960
      6  C          5.2850    1.5800    0.8040 C.3     1  UNL1        0.0470
      7  C          6.0440    0.5280    0.1310 C.2     1  UNL1       -0.0470
      8  C          6.3010    0.5980   -1.2180 C.2     1  UNL1        0.0040
      9  C          6.5050   -0.5410    0.8650 C.2     1  UNL1        0.0040
     10  C          7.0330   -0.4420   -1.7940 C.2     1  UNL1        0.0000
     11  C          7.2280   -1.5700    0.2940 C.2     1  UNL1        0.0000
     12  C          7.4890   -1.5070   -1.0580 C.2     1  UNL1        0.0000
@<TRIPOS>BOND
     1    10     8    1
     2    10    12    2
     3     8     7    2
     4    12    11    1
     5     1     6    1
     6     1     2    1
     7     7     6    1
     8     7     9    1
     9    11     9    2
    10     3     2    2
    11     2     4    1
    12     4     5    1
