MODEL 1
REMARK VINA RESULT:      -7.0      0.000      0.000
REMARK SMILES CC(=O)CCc1ccc2c(c1)OCO2
REMARK SMILES IDX 4 1 2 2 1 3 3 4 5 5 6 6 7 7 11 8 8 9 10 10 9 11 12 12 14 13
REMARK SMILES IDX 13 14
REMARK H PARENT
REMARK Flexibility Score: inf
ROOT
ATOM      1  C   UNL     1       7.094   9.642  -2.143  1.00  0.00     0.080 C 
ENDROOT
BRANCH   1   2
ATOM      2  C   UNL     1       7.630   8.950  -3.348  1.00  0.00     0.130 C 
ATOM      3  C   UNL     1       7.619   9.594  -4.688  1.00  0.00     0.087 C 
ATOM      4  O   UNL     1       8.096   7.824  -3.268  1.00  0.00    -0.300 OA
ENDBRANCH   1   2
BRANCH   1   5
ATOM      5  C   UNL     1       6.355   8.678  -1.237  1.00  0.00     0.043 C 
BRANCH   5   6
ATOM      6  C   UNL     1       7.044   8.504   0.055  1.00  0.00    -0.044 A 
ATOM      7  C   UNL     1       7.169   9.558   0.967  1.00  0.00     0.008 A 
ATOM      8  C   UNL     1       7.578   7.279   0.383  1.00  0.00     0.054 A 
ATOM      9  C   UNL     1       7.825   9.336   2.164  1.00  0.00     0.051 A 
ATOM     10  C   UNL     1       8.240   7.059   1.595  1.00  0.00     0.166 A 
ATOM     11  C   UNL     1       8.365   8.096   2.492  1.00  0.00     0.165 A 
ATOM     12  O   UNL     1       8.849   5.951   2.145  1.00  0.00    -0.454 OA
ATOM     13  O   UNL     1       9.054   7.598   3.587  1.00  0.00    -0.454 OA
ATOM     14  C   UNL     1       9.301   6.219   3.448  1.00  0.00     0.468 C 
ENDBRANCH   5   6
ENDBRANCH   1   5
TORSDOF 3
ENDMDL
MODEL 2
REMARK VINA RESULT:      -6.7      1.056      1.056
REMARK SMILES CC(=O)CCc1ccc2c(c1)OCO2
REMARK SMILES IDX 4 1 2 2 1 3 3 4 5 5 6 6 7 7 11 8 8 9 10 10 9 11 12 12 14 13
REMARK SMILES IDX 13 14
REMARK H PARENT
REMARK Flexibility Score: inf
ROOT
ATOM      1  C   UNL     1       7.138   9.499  -2.208  1.00  0.00     0.080 C 
ENDROOT
BRANCH   1   2
ATOM      2  C   UNL     1       6.410   9.660  -3.498  1.00  0.00     0.130 C 
ATOM      3  C   UNL     1       7.068   9.395  -4.805  1.00  0.00     0.087 C 
ATOM      4  O   UNL     1       5.243  10.019  -3.518  1.00  0.00    -0.300 OA
ENDBRANCH   1   2
BRANCH   1   5
ATOM      5  C   UNL     1       6.263   8.838  -1.161  1.00  0.00     0.043 C 
BRANCH   5   6
ATOM      6  C   UNL     1       7.000   8.594   0.091  1.00  0.00    -0.044 A 
ATOM      7  C   UNL     1       7.170   9.599   1.050  1.00  0.00     0.008 A 
ATOM      8  C   UNL     1       7.536   7.350   0.336  1.00  0.00     0.054 A 
ATOM      9  C   UNL     1       7.870   9.312   2.208  1.00  0.00     0.051 A 
ATOM     10  C   UNL     1       8.243   7.064   1.508  1.00  0.00     0.166 A 
ATOM     11  C   UNL     1       8.412   8.053   2.451  1.00  0.00     0.165 A 
ATOM     12  O   UNL     1       8.864   5.926   1.977  1.00  0.00    -0.454 OA
ATOM     13  O   UNL     1       9.138   7.495   3.491  1.00  0.00    -0.454 OA
ATOM     14  C   UNL     1       9.368   6.124   3.273  1.00  0.00     0.468 C 
ENDBRANCH   5   6
ENDBRANCH   1   5
TORSDOF 3
ENDMDL
MODEL 3
REMARK VINA RESULT:      -6.6      1.046      1.235
REMARK SMILES CC(=O)CCc1ccc2c(c1)OCO2
REMARK SMILES IDX 4 1 2 2 1 3 3 4 5 5 6 6 7 7 11 8 8 9 10 10 9 11 12 12 14 13
REMARK SMILES IDX 13 14
REMARK H PARENT
REMARK Flexibility Score: inf
ROOT
ATOM      1  C   UNL     1       7.080   9.315  -1.029  1.00  0.00     0.080 C 
ENDROOT
BRANCH   1   2
ATOM      2  C   UNL     1       7.162   9.213  -2.513  1.00  0.00     0.130 C 
ATOM      3  C   UNL     1       6.394  10.125  -3.402  1.00  0.00     0.087 C 
ATOM      4  O   UNL     1       7.868   8.372  -3.045  1.00  0.00    -0.300 OA
ENDBRANCH   1   2
BRANCH   1   5
ATOM      5  C   UNL     1       6.947   7.947  -0.390  1.00  0.00     0.043 C 
BRANCH   5   6
ATOM      6  C   UNL     1       7.517   7.921   0.969  1.00  0.00    -0.044 A 
ATOM      7  C   UNL     1       7.200   8.901   1.916  1.00  0.00     0.008 A 
ATOM      8  C   UNL     1       8.382   6.911   1.326  1.00  0.00     0.054 A 
ATOM      9  C   UNL     1       7.766   8.825   3.176  1.00  0.00     0.051 A 
ATOM     10  C   UNL     1       8.950   6.838   2.601  1.00  0.00     0.166 A 
ATOM     11  C   UNL     1       8.639   7.803   3.534  1.00  0.00     0.165 A 
ATOM     12  O   UNL     1       9.823   5.949   3.191  1.00  0.00    -0.454 OA
ATOM     13  O   UNL     1       9.335   7.482   4.689  1.00  0.00    -0.454 OA
ATOM     14  C   UNL     1      10.027   6.265   4.545  1.00  0.00     0.468 C 
ENDBRANCH   5   6
ENDBRANCH   1   5
TORSDOF 3
ENDMDL
MODEL 4
REMARK VINA RESULT:      -6.4      1.932      5.974
REMARK SMILES CC(=O)CCc1ccc2c(c1)OCO2
REMARK SMILES IDX 4 1 2 2 1 3 3 4 5 5 6 6 7 7 11 8 8 9 10 10 9 11 12 12 14 13
REMARK SMILES IDX 13 14
REMARK H PARENT
REMARK Flexibility Score: inf
ROOT
ATOM      1  C   UNL     1       7.550   7.530   4.939  1.00  0.00     0.080 C 
ENDROOT
BRANCH   1   2
ATOM      2  C   UNL     1       8.771   7.915   5.701  1.00  0.00     0.130 C 
ATOM      3  C   UNL     1       9.728   6.897   6.209  1.00  0.00     0.087 C 
ATOM      4  O   UNL     1       9.021   9.087   5.931  1.00  0.00    -0.300 OA
ENDBRANCH   1   2
BRANCH   1   5
ATOM      5  C   UNL     1       7.909   6.860   3.627  1.00  0.00     0.043 C 
BRANCH   5   6
ATOM      6  C   UNL     1       7.631   7.734   2.473  1.00  0.00    -0.044 A 
ATOM      7  C   UNL     1       7.350   9.095   2.635  1.00  0.00     0.008 A 
ATOM      8  C   UNL     1       7.648   7.209   1.201  1.00  0.00     0.054 A 
ATOM      9  C   UNL     1       7.098   9.866   1.515  1.00  0.00     0.051 A 
ATOM     10  C   UNL     1       7.393   7.993   0.072  1.00  0.00     0.166 A 
ATOM     11  C   UNL     1       7.115   9.333   0.230  1.00  0.00     0.165 A 
ATOM     12  O   UNL     1       7.350   7.712  -1.277  1.00  0.00    -0.454 OA
ATOM     13  O   UNL     1       6.907   9.852  -1.038  1.00  0.00    -0.454 OA
ATOM     14  C   UNL     1       7.136   8.879  -2.029  1.00  0.00     0.468 C 
ENDBRANCH   5   6
ENDBRANCH   1   5
TORSDOF 3
ENDMDL
MODEL 5
REMARK VINA RESULT:      -6.3      3.335      4.551
REMARK SMILES CC(=O)CCc1ccc2c(c1)OCO2
REMARK SMILES IDX 4 1 2 2 1 3 3 4 5 5 6 6 7 7 11 8 8 9 10 10 9 11 12 12 14 13
REMARK SMILES IDX 13 14
REMARK H PARENT
REMARK Flexibility Score: inf
ROOT
ATOM      1  C   UNL     1       7.785   5.996   0.483  1.00  0.00     0.080 C 
ENDROOT
BRANCH   1   2
ATOM      2  C   UNL     1       6.657   5.079   0.810  1.00  0.00     0.130 C 
ATOM      3  C   UNL     1       6.734   4.121   1.945  1.00  0.00     0.087 C 
ATOM      4  O   UNL     1       5.631   5.088   0.150  1.00  0.00    -0.300 OA
ENDBRANCH   1   2
BRANCH   1   5
ATOM      5  C   UNL     1       7.671   7.302   1.244  1.00  0.00     0.043 C 
BRANCH   5   6
ATOM      6  C   UNL     1       8.228   7.193   2.604  1.00  0.00    -0.044 A 
ATOM      7  C   UNL     1       9.419   6.503   2.855  1.00  0.00     0.008 A 
ATOM      8  C   UNL     1       7.570   7.781   3.660  1.00  0.00     0.054 A 
ATOM      9  C   UNL     1       9.895   6.434   4.152  1.00  0.00     0.051 A 
ATOM     10  C   UNL     1       8.055   7.710   4.970  1.00  0.00     0.166 A 
ATOM     11  C   UNL     1       9.227   7.030   5.217  1.00  0.00     0.165 A 
ATOM     12  O   UNL     1       7.593   8.203   6.171  1.00  0.00    -0.454 OA
ATOM     13  O   UNL     1       9.463   7.121   6.580  1.00  0.00    -0.454 OA
ATOM     14  C   UNL     1       8.500   7.933   7.209  1.00  0.00     0.468 C 
ENDBRANCH   5   6
ENDBRANCH   1   5
TORSDOF 3
ENDMDL
MODEL 6
REMARK VINA RESULT:      -6.3      1.472      2.413
REMARK SMILES CC(=O)CCc1ccc2c(c1)OCO2
REMARK SMILES IDX 4 1 2 2 1 3 3 4 5 5 6 6 7 7 11 8 8 9 10 10 9 11 12 12 14 13
REMARK SMILES IDX 13 14
REMARK H PARENT
REMARK Flexibility Score: inf
ROOT
ATOM      1  C   UNL     1       7.116   8.917  -0.543  1.00  0.00     0.080 C 
ENDROOT
BRANCH   1   2
ATOM      2  C   UNL     1       7.178   8.959  -2.031  1.00  0.00     0.130 C 
ATOM      3  C   UNL     1       6.510  10.036  -2.810  1.00  0.00     0.087 C 
ATOM      4  O   UNL     1       7.782   8.104  -2.657  1.00  0.00    -0.300 OA
ENDBRANCH   1   2
BRANCH   1   5
ATOM      5  C   UNL     1       7.070   7.490  -0.034  1.00  0.00     0.043 C 
BRANCH   5   6
ATOM      6  C   UNL     1       7.737   7.353   1.273  1.00  0.00    -0.044 A 
ATOM      7  C   UNL     1       8.849   6.520   1.445  1.00  0.00     0.008 A 
ATOM      8  C   UNL     1       7.267   8.060   2.356  1.00  0.00     0.054 A 
ATOM      9  C   UNL     1       9.435   6.432   2.695  1.00  0.00     0.051 A 
ATOM     10  C   UNL     1       7.863   7.969   3.617  1.00  0.00     0.166 A 
ATOM     11  C   UNL     1       8.956   7.148   3.788  1.00  0.00     0.165 A 
ATOM     12  O   UNL     1       7.587   8.559   4.832  1.00  0.00    -0.454 OA
ATOM     13  O   UNL     1       9.332   7.253   5.118  1.00  0.00    -0.454 OA
ATOM     14  C   UNL     1       8.548   8.206   5.794  1.00  0.00     0.468 C 
ENDBRANCH   5   6
ENDBRANCH   1   5
TORSDOF 3
ENDMDL
MODEL 7
REMARK VINA RESULT:      -6.3      3.084      6.304
REMARK SMILES CC(=O)CCc1ccc2c(c1)OCO2
REMARK SMILES IDX 4 1 2 2 1 3 3 4 5 5 6 6 7 7 11 8 8 9 10 10 9 11 12 12 14 13
REMARK SMILES IDX 13 14
REMARK H PARENT
REMARK Flexibility Score: inf
ROOT
ATOM      1  C   UNL     1       7.459   7.868   5.942  1.00  0.00     0.080 C 
ENDROOT
BRANCH   1   2
ATOM      2  C   UNL     1       8.616   7.605   6.843  1.00  0.00     0.130 C 
ATOM      3  C   UNL     1       9.898   7.056   6.326  1.00  0.00     0.087 C 
ATOM      4  O   UNL     1       8.543   7.833   8.039  1.00  0.00    -0.300 OA
ENDBRANCH   1   2
BRANCH   1   5
ATOM      5  C   UNL     1       7.877   8.680   4.732  1.00  0.00     0.043 C 
BRANCH   5   6
ATOM      6  C   UNL     1       7.685   7.929   3.478  1.00  0.00    -0.044 A 
ATOM      7  C   UNL     1       7.847   8.537   2.228  1.00  0.00     0.008 A 
ATOM      8  C   UNL     1       7.342   6.597   3.526  1.00  0.00     0.054 A 
ATOM      9  C   UNL     1       7.655   7.783   1.085  1.00  0.00     0.051 A 
ATOM     10  C   UNL     1       7.149   5.839   2.367  1.00  0.00     0.166 A 
ATOM     11  C   UNL     1       7.307   6.437   1.137  1.00  0.00     0.165 A 
ATOM     12  O   UNL     1       6.809   4.520   2.153  1.00  0.00    -0.454 OA
ATOM     13  O   UNL     1       7.059   5.462   0.183  1.00  0.00    -0.454 OA
ATOM     14  C   UNL     1       6.828   4.210   0.784  1.00  0.00     0.468 C 
ENDBRANCH   5   6
ENDBRANCH   1   5
TORSDOF 3
ENDMDL
MODEL 8
REMARK VINA RESULT:      -6.2      1.089      1.832
REMARK SMILES CC(=O)CCc1ccc2c(c1)OCO2
REMARK SMILES IDX 4 1 2 2 1 3 3 4 5 5 6 6 7 7 11 8 8 9 10 10 9 11 12 12 14 13
REMARK SMILES IDX 13 14
REMARK H PARENT
REMARK Flexibility Score: inf
ROOT
ATOM      1  C   UNL     1       6.393   9.168  -1.944  1.00  0.00     0.080 C 
ENDROOT
BRANCH   1   2
ATOM      2  C   UNL     1       7.280   9.076  -3.137  1.00  0.00     0.130 C 
ATOM      3  C   UNL     1       7.172  10.039  -4.266  1.00  0.00     0.087 C 
ATOM      4  O   UNL     1       8.126   8.201  -3.223  1.00  0.00    -0.300 OA
ENDBRANCH   1   2
BRANCH   1   5
ATOM      5  C   UNL     1       7.093   9.855  -0.789  1.00  0.00     0.043 C 
BRANCH   5   6
ATOM      6  C   UNL     1       7.305   8.939   0.346  1.00  0.00    -0.044 A 
ATOM      7  C   UNL     1       7.214   7.551   0.194  1.00  0.00     0.008 A 
ATOM      8  C   UNL     1       7.603   9.450   1.589  1.00  0.00     0.054 A 
ATOM      9  C   UNL     1       7.423   6.740   1.294  1.00  0.00     0.051 A 
ATOM     10  C   UNL     1       7.815   8.626   2.698  1.00  0.00     0.166 A 
ATOM     11  C   UNL     1       7.724   7.259   2.550  1.00  0.00     0.165 A 
ATOM     12  O   UNL     1       8.118   8.886   4.018  1.00  0.00    -0.454 OA
ATOM     13  O   UNL     1       7.977   6.703   3.794  1.00  0.00    -0.454 OA
ATOM     14  C   UNL     1       8.321   7.694   4.733  1.00  0.00     0.468 C 
ENDBRANCH   5   6
ENDBRANCH   1   5
TORSDOF 3
ENDMDL
MODEL 9
REMARK VINA RESULT:      -6.2      2.603      4.028
REMARK SMILES CC(=O)CCc1ccc2c(c1)OCO2
REMARK SMILES IDX 4 1 2 2 1 3 3 4 5 5 6 6 7 7 11 8 8 9 10 10 9 11 12 12 14 13
REMARK SMILES IDX 13 14
REMARK H PARENT
REMARK Flexibility Score: inf
ROOT
ATOM      1  C   UNL     1       6.328   5.470   0.764  1.00  0.00     0.080 C 
ENDROOT
BRANCH   1   2
ATOM      2  C   UNL     1       7.224   6.390   0.009  1.00  0.00     0.130 C 
ATOM      3  C   UNL     1       7.076   7.868   0.093  1.00  0.00     0.087 C 
ATOM      4  O   UNL     1       8.112   5.954  -0.706  1.00  0.00    -0.300 OA
ENDBRANCH   1   2
BRANCH   1   5
ATOM      5  C   UNL     1       7.114   4.609   1.732  1.00  0.00     0.043 C 
BRANCH   5   6
ATOM      6  C   UNL     1       7.852   5.423   2.715  1.00  0.00    -0.044 A 
ATOM      7  C   UNL     1       9.237   5.306   2.871  1.00  0.00     0.008 A 
ATOM      8  C   UNL     1       7.172   6.326   3.500  1.00  0.00     0.054 A 
ATOM      9  C   UNL     1       9.876   6.097   3.809  1.00  0.00     0.051 A 
ATOM     10  C   UNL     1       7.822   7.124   4.446  1.00  0.00     0.166 A 
ATOM     11  C   UNL     1       9.185   7.008   4.602  1.00  0.00     0.165 A 
ATOM     12  O   UNL     1       7.377   8.080   5.334  1.00  0.00    -0.454 OA
ATOM     13  O   UNL     1       9.553   7.906   5.592  1.00  0.00    -0.454 OA
ATOM     14  C   UNL     1       8.451   8.670   6.020  1.00  0.00     0.468 C 
ENDBRANCH   5   6
ENDBRANCH   1   5
TORSDOF 3
ENDMDL
MODEL 10
REMARK VINA RESULT:      -6.2      2.556      6.497
REMARK SMILES CC(=O)CCc1ccc2c(c1)OCO2
REMARK SMILES IDX 4 1 2 2 1 3 3 4 5 5 6 6 7 7 11 8 8 9 10 10 9 11 12 12 14 13
REMARK SMILES IDX 13 14
REMARK H PARENT
REMARK Flexibility Score: inf
ROOT
ATOM      1  C   UNL     1       7.673   7.752   5.760  1.00  0.00     0.080 C 
ENDROOT
BRANCH   1   2
ATOM      2  C   UNL     1       8.767   7.716   6.771  1.00  0.00     0.130 C 
ATOM      3  C   UNL     1       9.570   8.925   7.095  1.00  0.00     0.087 C 
ATOM      4  O   UNL     1       9.037   6.685   7.365  1.00  0.00    -0.300 OA
ENDBRANCH   1   2
BRANCH   1   5
ATOM      5  C   UNL     1       7.881   8.876   4.764  1.00  0.00     0.043 C 
BRANCH   5   6
ATOM      6  C   UNL     1       7.769   8.401   3.373  1.00  0.00    -0.044 A 
ATOM      7  C   UNL     1       7.962   7.056   3.040  1.00  0.00     0.008 A 
ATOM      8  C   UNL     1       7.466   9.294   2.370  1.00  0.00     0.054 A 
ATOM      9  C   UNL     1       7.844   6.669   1.718  1.00  0.00     0.051 A 
ATOM     10  C   UNL     1       7.347   8.897   1.035  1.00  0.00     0.166 A 
ATOM     11  C   UNL     1       7.538   7.574   0.706  1.00  0.00     0.165 A 
ATOM     12  O   UNL     1       7.059   9.582  -0.127  1.00  0.00    -0.454 OA
ATOM     13  O   UNL     1       7.360   7.472  -0.665  1.00  0.00    -0.454 OA
ATOM     14  C   UNL     1       6.966   8.704  -1.219  1.00  0.00     0.468 C 
ENDBRANCH   5   6
ENDBRANCH   1   5
TORSDOF 3
ENDMDL
