MODEL 1
REMARK VINA RESULT:      -7.3      0.000      0.000
REMARK SMILES O=C(O)CCc1ccccc1
REMARK SMILES IDX 4 1 2 2 1 3 3 4 5 6 6 7 7 8 11 9 8 10 10 11 9 12
REMARK H PARENT 3 5
REMARK Flexibility Score: inf
ROOT
ATOM      1  C   UNL     1       8.430  -0.649  -2.130  1.00  0.00     0.127 C 
ENDROOT
BRANCH   1   2
ATOM      2  C   UNL     1       8.479  -1.917  -2.896  1.00  0.00     0.303 C 
ATOM      3  O   UNL     1       9.563  -2.524  -3.081  1.00  0.00    -0.252 OA
BRANCH   2   4
ATOM      4  O   UNL     1       7.326  -2.468  -3.432  1.00  0.00    -0.481 OA
ATOM      5  H   UNL     1       7.325  -3.453  -3.711  1.00  0.00     0.296 HD
ENDBRANCH   2   4
ENDBRANCH   1   2
BRANCH   1   6
ATOM      6  C   UNL     1       7.016  -0.152  -2.133  1.00  0.00     0.047 C 
BRANCH   6   7
ATOM      7  C   UNL     1       6.460   0.064  -0.798  1.00  0.00    -0.047 A 
ATOM      8  C   UNL     1       5.828   1.245  -0.483  1.00  0.00     0.004 A 
ATOM      9  C   UNL     1       6.571  -0.931   0.145  1.00  0.00     0.004 A 
ATOM     10  C   UNL     1       5.319   1.382   0.811  1.00  0.00     0.000 A 
ATOM     11  C   UNL     1       6.068  -0.794   1.423  1.00  0.00     0.000 A 
ATOM     12  C   UNL     1       5.435   0.386   1.748  1.00  0.00     0.000 A 
ENDBRANCH   6   7
ENDBRANCH   1   6
TORSDOF 4
ENDMDL
MODEL 2
REMARK VINA RESULT:      -7.2      0.102      1.730
REMARK SMILES O=C(O)CCc1ccccc1
REMARK SMILES IDX 4 1 2 2 1 3 3 4 5 6 6 7 7 8 11 9 8 10 10 11 9 12
REMARK H PARENT 3 5
REMARK Flexibility Score: inf
ROOT
ATOM      1  C   UNL     1       8.425  -0.627  -2.127  1.00  0.00     0.127 C 
ENDROOT
BRANCH   1   2
ATOM      2  C   UNL     1       8.392  -1.896  -2.893  1.00  0.00     0.303 C 
ATOM      3  O   UNL     1       7.304  -2.420  -3.238  1.00  0.00    -0.252 OA
BRANCH   2   4
ATOM      4  O   UNL     1       9.566  -2.540  -3.250  1.00  0.00    -0.481 OA
ATOM      5  H   UNL     1      10.434  -2.308  -2.759  1.00  0.00     0.296 HD
ENDBRANCH   2   4
ENDBRANCH   1   2
BRANCH   1   6
ATOM      6  C   UNL     1       7.040  -0.057  -2.102  1.00  0.00     0.047 C 
BRANCH   6   7
ATOM      7  C   UNL     1       6.481   0.086  -0.759  1.00  0.00    -0.047 A 
ATOM      8  C   UNL     1       6.606  -0.924   0.167  1.00  0.00     0.004 A 
ATOM      9  C   UNL     1       5.826   1.249  -0.425  1.00  0.00     0.004 A 
ATOM     10  C   UNL     1       6.048  -0.717   1.431  1.00  0.00     0.000 A 
ATOM     11  C   UNL     1       5.275   1.451   0.825  1.00  0.00     0.000 A 
ATOM     12  C   UNL     1       5.395   0.444   1.758  1.00  0.00     0.000 A 
ENDBRANCH   6   7
ENDBRANCH   1   6
TORSDOF 4
ENDMDL
MODEL 3
REMARK VINA RESULT:      -6.7      3.379      5.072
REMARK SMILES O=C(O)CCc1ccccc1
REMARK SMILES IDX 4 1 2 2 1 3 3 4 5 6 6 7 7 8 11 9 8 10 10 11 9 12
REMARK H PARENT 3 5
REMARK Flexibility Score: inf
ROOT
ATOM      1  C   UNL     1       4.984   1.802   0.652  1.00  0.00     0.127 C 
ENDROOT
BRANCH   1   2
ATOM      2  C   UNL     1       4.506   1.130   1.883  1.00  0.00     0.303 C 
ATOM      3  O   UNL     1       5.196   0.249   2.454  1.00  0.00    -0.252 OA
BRANCH   2   4
ATOM      4  O   UNL     1       3.280   1.457   2.440  1.00  0.00    -0.481 OA
ATOM      5  H   UNL     1       3.190   1.507   3.459  1.00  0.00     0.296 HD
ENDBRANCH   2   4
ENDBRANCH   1   2
BRANCH   1   6
ATOM      6  C   UNL     1       6.481   1.838   0.686  1.00  0.00     0.047 C 
BRANCH   6   7
ATOM      7  C   UNL     1       7.119   1.052  -0.369  1.00  0.00    -0.047 A 
ATOM      8  C   UNL     1       6.382   0.188  -1.146  1.00  0.00     0.004 A 
ATOM      9  C   UNL     1       8.471   1.187  -0.582  1.00  0.00     0.004 A 
ATOM     10  C   UNL     1       7.057  -0.529  -2.136  1.00  0.00     0.000 A 
ATOM     11  C   UNL     1       9.137   0.477  -1.561  1.00  0.00     0.000 A 
ATOM     12  C   UNL     1       8.407  -0.391  -2.343  1.00  0.00     0.000 A 
ENDBRANCH   6   7
ENDBRANCH   1   6
TORSDOF 4
ENDMDL
MODEL 4
REMARK VINA RESULT:      -6.6      1.951      2.238
REMARK SMILES O=C(O)CCc1ccccc1
REMARK SMILES IDX 4 1 2 2 1 3 3 4 5 6 6 7 7 8 11 9 8 10 10 11 9 12
REMARK H PARENT 3 5
REMARK Flexibility Score: inf
ROOT
ATOM      1  C   UNL     1       8.160   0.260  -2.080  1.00  0.00     0.127 C 
ENDROOT
BRANCH   1   2
ATOM      2  C   UNL     1       9.353   0.365  -1.207  1.00  0.00     0.303 C 
ATOM      3  O   UNL     1       9.490  -0.376  -0.202  1.00  0.00    -0.252 OA
BRANCH   2   4
ATOM      4  O   UNL     1      10.351   1.287  -1.476  1.00  0.00    -0.481 OA
ATOM      5  H   UNL     1      10.238   1.932  -2.263  1.00  0.00     0.296 HD
ENDBRANCH   2   4
ENDBRANCH   1   2
BRANCH   1   6
ATOM      6  C   UNL     1       7.142  -0.593  -1.386  1.00  0.00     0.047 C 
BRANCH   6   7
ATOM      7  C   UNL     1       6.352   0.119  -0.384  1.00  0.00    -0.047 A 
ATOM      8  C   UNL     1       5.807   1.351  -0.663  1.00  0.00     0.004 A 
ATOM      9  C   UNL     1       6.155  -0.458   0.850  1.00  0.00     0.004 A 
ATOM     10  C   UNL     1       5.063   1.973   0.342  1.00  0.00     0.000 A 
ATOM     11  C   UNL     1       5.420   0.159   1.842  1.00  0.00     0.000 A 
ATOM     12  C   UNL     1       4.871   1.394   1.571  1.00  0.00     0.000 A 
ENDBRANCH   6   7
ENDBRANCH   1   6
TORSDOF 4
ENDMDL
MODEL 5
REMARK VINA RESULT:      -6.6      2.008      2.517
REMARK SMILES O=C(O)CCc1ccccc1
REMARK SMILES IDX 4 1 2 2 1 3 3 4 5 6 6 7 7 8 11 9 8 10 10 11 9 12
REMARK H PARENT 3 5
REMARK Flexibility Score: inf
ROOT
ATOM      1  C   UNL     1       8.001  -2.188   0.848  1.00  0.00     0.127 C 
ENDROOT
BRANCH   1   2
ATOM      2  C   UNL     1       8.773  -3.348   0.344  1.00  0.00     0.303 C 
ATOM      3  O   UNL     1       9.634  -3.917   1.059  1.00  0.00    -0.252 OA
BRANCH   2   4
ATOM      4  O   UNL     1       8.565  -3.837  -0.936  1.00  0.00    -0.481 OA
ATOM      5  H   UNL     1       8.631  -4.844  -1.103  1.00  0.00     0.296 HD
ENDBRANCH   2   4
ENDBRANCH   1   2
BRANCH   1   6
ATOM      6  C   UNL     1       7.398  -1.477  -0.325  1.00  0.00     0.047 C 
BRANCH   6   7
ATOM      7  C   UNL     1       6.563  -0.333   0.037  1.00  0.00    -0.047 A 
ATOM      8  C   UNL     1       6.318   0.673  -0.868  1.00  0.00     0.004 A 
ATOM      9  C   UNL     1       6.019  -0.272   1.299  1.00  0.00     0.004 A 
ATOM     10  C   UNL     1       5.510   1.735  -0.454  1.00  0.00     0.000 A 
ATOM     11  C   UNL     1       5.221   0.778   1.707  1.00  0.00     0.000 A 
ATOM     12  C   UNL     1       4.971   1.791   0.807  1.00  0.00     0.000 A 
ENDBRANCH   6   7
ENDBRANCH   1   6
TORSDOF 4
ENDMDL
