@<TRIPOS>MOLECULE
/home/cewinharhar/GITHUB/reincatalyze/data/processed/docking_pred/2023-Apr-26-1657_maxeplen10_maxtrainstep1000_exh32_gamma099_lrac9e-4_lrcr1e-3/00fabcb6e86abbd64330e8a307762c5d347247e8_ligand_2.pdbqt
 12 12 0 0 0
SMALL
GASTEIGER

@<TRIPOS>ATOM
      1  C          8.0010   -2.1880    0.8480 C.3     1  UNL1        0.1270
      2  C          8.7730   -3.3480    0.3440 C.2     1  UNL1        0.3030
      3  O          9.6340   -3.9170    1.0590 O.2     1  UNL1       -0.2520
      4  O          8.5650   -3.8370   -0.9360 O.3     1  UNL1       -0.4810
      5  H          8.6310   -4.8440   -1.1030 H       1  UNL1        0.2960
      6  C          7.3980   -1.4770   -0.3250 C.3     1  UNL1        0.0470
      7  C          6.5630   -0.3330    0.0370 C.2     1  UNL1       -0.0470
      8  C          6.3180    0.6730   -0.8680 C.2     1  UNL1        0.0040
      9  C          6.0190   -0.2720    1.2990 C.2     1  UNL1        0.0040
     10  C          5.5100    1.7350   -0.4540 C.2     1  UNL1        0.0000
     11  C          5.2210    0.7780    1.7070 C.2     1  UNL1        0.0000
     12  C          4.9710    1.7910    0.8070 C.2     1  UNL1        0.0000
@<TRIPOS>BOND
     1     5     4    1
     2     4     2    1
     3     8    10    1
     4     8     7    2
     5    10    12    2
     6     6     7    1
     7     6     1    1
     8     7     9    1
     9     2     1    1
    10     2     3    2
    11    12    11    1
    12     9    11    2
