@<TRIPOS>MOLECULE
/home/cewinharhar/GITHUB/reincatalyze/data/processed/docking_pred/2023-Apr-26-1657_maxeplen10_maxtrainstep1000_exh32_gamma099_lrac9e-4_lrcr1e-3/00fabcb6e86abbd64330e8a307762c5d347247e8_ligand_2.pdbqt
 12 12 0 0 0
SMALL
GASTEIGER

@<TRIPOS>ATOM
      1  C          8.4250   -0.6270   -2.1270 C.3     1  UNL1        0.1270
      2  C          8.3920   -1.8960   -2.8930 C.2     1  UNL1        0.3030
      3  O          7.3040   -2.4200   -3.2380 O.2     1  UNL1       -0.2520
      4  O          9.5660   -2.5400   -3.2500 O.3     1  UNL1       -0.4810
      5  H         10.4340   -2.3080   -2.7590 H       1  UNL1        0.2960
      6  C          7.0400   -0.0570   -2.1020 C.3     1  UNL1        0.0470
      7  C          6.4810    0.0860   -0.7590 C.2     1  UNL1       -0.0470
      8  C          6.6060   -0.9240    0.1670 C.2     1  UNL1        0.0040
      9  C          5.8260    1.2490   -0.4250 C.2     1  UNL1        0.0040
     10  C          6.0480   -0.7170    1.4310 C.2     1  UNL1        0.0000
     11  C          5.2750    1.4510    0.8250 C.2     1  UNL1        0.0000
     12  C          5.3950    0.4440    1.7580 C.2     1  UNL1        0.0000
@<TRIPOS>BOND
     1     4     2    1
     2     4     5    1
     3     3     2    2
     4     2     1    1
     5     1     6    1
     6     6     7    1
     7     7     9    2
     8     7     8    1
     9     9    11    1
    10     8    10    2
    11    11    12    2
    12    10    12    1
