@<TRIPOS>MOLECULE
/home/cewinharhar/GITHUB/reincatalyze/data/processed/docking_pred/2023-Apr-26-1657_maxeplen10_maxtrainstep1000_exh32_gamma099_lrac9e-4_lrcr1e-3/00fabcb6e86abbd64330e8a307762c5d347247e8_ligand_2.pdbqt
 12 12 0 0 0
SMALL
GASTEIGER

@<TRIPOS>ATOM
      1  C          8.1600    0.2600   -2.0800 C.3     1  UNL1        0.1270
      2  C          9.3530    0.3650   -1.2070 C.2     1  UNL1        0.3030
      3  O          9.4900   -0.3760   -0.2020 O.2     1  UNL1       -0.2520
      4  O         10.3510    1.2870   -1.4760 O.3     1  UNL1       -0.4810
      5  H         10.2380    1.9320   -2.2630 H       1  UNL1        0.2960
      6  C          7.1420   -0.5930   -1.3860 C.3     1  UNL1        0.0470
      7  C          6.3520    0.1190   -0.3840 C.2     1  UNL1       -0.0470
      8  C          5.8070    1.3510   -0.6630 C.2     1  UNL1        0.0040
      9  C          6.1550   -0.4580    0.8500 C.2     1  UNL1        0.0040
     10  C          5.0630    1.9730    0.3420 C.2     1  UNL1        0.0000
     11  C          5.4200    0.1590    1.8420 C.2     1  UNL1        0.0000
     12  C          4.8710    1.3940    1.5710 C.2     1  UNL1        0.0000
@<TRIPOS>BOND
     1     5     4    1
     2     1     6    1
     3     1     2    1
     4     4     2    1
     5     6     7    1
     6     2     3    2
     7     8     7    2
     8     8    10    1
     9     7     9    1
    10    10    12    2
    11     9    11    2
    12    12    11    1
