@<TRIPOS>MOLECULE
/home/cewinharhar/GITHUB/reincatalyze/data/processed/docking_pred/2023-Apr-26-1657_maxeplen10_maxtrainstep1000_exh32_gamma099_lrac9e-4_lrcr1e-3/00fabcb6e86abbd64330e8a307762c5d347247e8_ligand_2.pdbqt
 12 12 0 0 0
SMALL
GASTEIGER

@<TRIPOS>ATOM
      1  C          8.4300   -0.6490   -2.1300 C.3     1  UNL1        0.1270
      2  C          8.4790   -1.9170   -2.8960 C.2     1  UNL1        0.3030
      3  O          9.5630   -2.5240   -3.0810 O.2     1  UNL1       -0.2520
      4  O          7.3260   -2.4680   -3.4320 O.3     1  UNL1       -0.4810
      5  H          7.3250   -3.4530   -3.7110 H       1  UNL1        0.2960
      6  C          7.0160   -0.1520   -2.1330 C.3     1  UNL1        0.0470
      7  C          6.4600    0.0640   -0.7980 C.2     1  UNL1       -0.0470
      8  C          5.8280    1.2450   -0.4830 C.2     1  UNL1        0.0040
      9  C          6.5710   -0.9310    0.1450 C.2     1  UNL1        0.0040
     10  C          5.3190    1.3820    0.8110 C.2     1  UNL1        0.0000
     11  C          6.0680   -0.7940    1.4230 C.2     1  UNL1        0.0000
     12  C          5.4350    0.3860    1.7480 C.2     1  UNL1        0.0000
@<TRIPOS>BOND
     1     5     4    1
     2     4     2    1
     3     3     2    2
     4     2     1    1
     5     6     1    1
     6     6     7    1
     7     7     8    2
     8     7     9    1
     9     8    10    1
    10     9    11    2
    11    10    12    2
    12    11    12    1
