@<TRIPOS>MOLECULE
/home/cewinharhar/GITHUB/reincatalyze/data/processed/docking_pred/2023-Apr-26-1657_maxeplen10_maxtrainstep1000_exh32_gamma099_lrac9e-4_lrcr1e-3/00fabcb6e86abbd64330e8a307762c5d347247e8_ligand_2.pdbqt
 12 12 0 0 0
SMALL
GASTEIGER

@<TRIPOS>ATOM
      1  C          4.9840    1.8020    0.6520 C.3     1  UNL1        0.1270
      2  C          4.5060    1.1300    1.8830 C.2     1  UNL1        0.3030
      3  O          5.1960    0.2490    2.4540 O.2     1  UNL1       -0.2520
      4  O          3.2800    1.4570    2.4400 O.3     1  UNL1       -0.4810
      5  H          3.1900    1.5070    3.4590 H       1  UNL1        0.2960
      6  C          6.4810    1.8380    0.6860 C.3     1  UNL1        0.0470
      7  C          7.1190    1.0520   -0.3690 C.2     1  UNL1       -0.0470
      8  C          6.3820    0.1880   -1.1460 C.2     1  UNL1        0.0040
      9  C          8.4710    1.1870   -0.5820 C.2     1  UNL1        0.0040
     10  C          7.0570   -0.5290   -2.1360 C.2     1  UNL1        0.0000
     11  C          9.1370    0.4770   -1.5610 C.2     1  UNL1        0.0000
     12  C          8.4070   -0.3910   -2.3430 C.2     1  UNL1        0.0000
@<TRIPOS>BOND
     1    12    10    2
     2    12    11    1
     3    10     8    1
     4    11     9    2
     5     8     7    2
     6     9     7    1
     7     7     6    1
     8     1     6    1
     9     1     2    1
    10     2     4    1
    11     2     3    2
    12     4     5    1
