@<TRIPOS>MOLECULE
/home/cewinharhar/GITHUB/reincatalyze/data/processed/docking_pred/2023-Apr-26-1657_maxeplen10_maxtrainstep1000_exh32_gamma099_lrac9e-4_lrcr1e-3/01f25cbd7413d58f388abe94d9cfceb48e05f66f_ligand_2.pdbqt
 12 12 0 0 0
SMALL
GASTEIGER

@<TRIPOS>ATOM
      1  C          4.9810    1.7890    0.6810 C.3     1  UNL1        0.1270
      2  C          4.4880    1.1100    1.9020 C.2     1  UNL1        0.3030
      3  O          5.1630    0.2130    2.4650 O.2     1  UNL1       -0.2520
      4  O          3.2640    1.4470    2.4570 O.3     1  UNL1       -0.4810
      5  H          2.7950    2.3040    2.1530 H       1  UNL1        0.2960
      6  C          6.4780    1.8010    0.7210 C.3     1  UNL1        0.0470
      7  C          7.1080    1.0420   -0.3570 C.2     1  UNL1       -0.0470
      8  C          6.3740    0.1630   -1.1200 C.2     1  UNL1        0.0040
      9  C          8.4500    1.2160   -0.6060 C.2     1  UNL1        0.0040
     10  C          7.0410   -0.5290   -2.1340 C.2     1  UNL1        0.0000
     11  C          9.1070    0.5310   -1.6090 C.2     1  UNL1        0.0000
     12  C          8.3800   -0.3520   -2.3770 C.2     1  UNL1        0.0000
@<TRIPOS>BOND
     1    12    10    2
     2    12    11    1
     3    10     8    1
     4    11     9    2
     5     8     7    2
     6     9     7    1
     7     7     6    1
     8     1     6    1
     9     1     2    1
    10     2     4    1
    11     2     3    2
    12     5     4    1
