MODEL 1
REMARK VINA RESULT:      -7.3      0.000      0.000
REMARK SMILES O=C(O)CCc1ccccc1
REMARK SMILES IDX 4 1 2 2 1 3 3 4 5 6 6 7 7 8 11 9 8 10 10 11 9 12
REMARK H PARENT 3 5
REMARK Flexibility Score: inf
ROOT
ATOM      1  C   UNL     1       8.399  -0.644  -2.087  1.00  0.00     0.127 C 
ENDROOT
BRANCH   1   2
ATOM      2  C   UNL     1       8.372  -1.896  -2.880  1.00  0.00     0.303 C 
ATOM      3  O   UNL     1       7.287  -2.411  -3.247  1.00  0.00    -0.252 OA
BRANCH   2   4
ATOM      4  O   UNL     1       9.549  -2.535  -3.238  1.00  0.00    -0.481 OA
ATOM      5  H   UNL     1       9.987  -2.312  -4.136  1.00  0.00     0.296 HD
ENDBRANCH   2   4
ENDBRANCH   1   2
BRANCH   1   6
ATOM      6  C   UNL     1       7.017  -0.065  -2.075  1.00  0.00     0.047 C 
BRANCH   6   7
ATOM      7  C   UNL     1       6.454   0.101  -0.737  1.00  0.00    -0.047 A 
ATOM      8  C   UNL     1       5.804   1.262  -0.386  1.00  0.00     0.004 A 
ATOM      9  C   UNL     1       6.578  -0.921   0.175  1.00  0.00     0.004 A 
ATOM     10  C   UNL     1       5.290   1.351   0.909  1.00  0.00     0.000 A 
ATOM     11  C   UNL     1       6.069  -0.831   1.456  1.00  0.00     0.000 A 
ATOM     12  C   UNL     1       5.418   0.329   1.815  1.00  0.00     0.000 A 
ENDBRANCH   6   7
ENDBRANCH   1   6
TORSDOF 4
ENDMDL
MODEL 2
REMARK VINA RESULT:      -7.3      0.097      1.439
REMARK SMILES O=C(O)CCc1ccccc1
REMARK SMILES IDX 4 1 2 2 1 3 3 4 5 6 6 7 7 8 11 9 8 10 10 11 9 12
REMARK H PARENT 3 5
REMARK Flexibility Score: inf
ROOT
ATOM      1  C   UNL     1       8.472  -0.653  -2.070  1.00  0.00     0.127 C 
ENDROOT
BRANCH   1   2
ATOM      2  C   UNL     1       8.405  -1.899  -2.870  1.00  0.00     0.303 C 
ATOM      3  O   UNL     1       7.302  -2.397  -3.207  1.00  0.00    -0.252 OA
BRANCH   2   4
ATOM      4  O   UNL     1       9.561  -2.550  -3.268  1.00  0.00    -0.481 OA
ATOM      5  H   UNL     1       9.951  -3.287  -2.674  1.00  0.00     0.296 HD
ENDBRANCH   2   4
ENDBRANCH   1   2
BRANCH   1   6
ATOM      6  C   UNL     1       7.115  -0.018  -2.072  1.00  0.00     0.047 C 
BRANCH   6   7
ATOM      7  C   UNL     1       6.519   0.116  -0.744  1.00  0.00    -0.047 A 
ATOM      8  C   UNL     1       6.642  -0.889   0.187  1.00  0.00     0.004 A 
ATOM      9  C   UNL     1       5.831   1.266  -0.430  1.00  0.00     0.004 A 
ATOM     10  C   UNL     1       6.048  -0.692   1.436  1.00  0.00     0.000 A 
ATOM     11  C   UNL     1       5.245   1.459   0.805  1.00  0.00     0.000 A 
ATOM     12  C   UNL     1       5.363   0.456   1.743  1.00  0.00     0.000 A 
ENDBRANCH   6   7
ENDBRANCH   1   6
TORSDOF 4
ENDMDL
MODEL 3
REMARK VINA RESULT:      -7.2      0.609      1.871
REMARK SMILES O=C(O)CCc1ccccc1
REMARK SMILES IDX 4 1 2 2 1 3 3 4 5 6 6 7 7 8 11 9 8 10 10 11 9 12
REMARK H PARENT 3 5
REMARK Flexibility Score: inf
ROOT
ATOM      1  C   UNL     1       8.264  -0.879  -1.876  1.00  0.00     0.127 C 
ENDROOT
BRANCH   1   2
ATOM      2  C   UNL     1       8.412  -2.006  -2.827  1.00  0.00     0.303 C 
ATOM      3  O   UNL     1       9.538  -2.501  -3.080  1.00  0.00    -0.252 OA
BRANCH   2   4
ATOM      4  O   UNL     1       7.307  -2.546  -3.466  1.00  0.00    -0.481 OA
ATOM      5  H   UNL     1       6.676  -1.927  -3.984  1.00  0.00     0.296 HD
ENDBRANCH   2   4
ENDBRANCH   1   2
BRANCH   1   6
ATOM      6  C   UNL     1       7.495  -1.366  -0.686  1.00  0.00     0.047 C 
BRANCH   6   7
ATOM      7  C   UNL     1       6.629  -0.355  -0.083  1.00  0.00    -0.047 A 
ATOM      8  C   UNL     1       6.176  -0.495   1.208  1.00  0.00     0.004 A 
ATOM      9  C   UNL     1       6.269   0.748  -0.823  1.00  0.00     0.004 A 
ATOM     10  C   UNL     1       5.352   0.510   1.719  1.00  0.00     0.000 A 
ATOM     11  C   UNL     1       5.454   1.741  -0.316  1.00  0.00     0.000 A 
ATOM     12  C   UNL     1       4.996   1.607   0.976  1.00  0.00     0.000 A 
ENDBRANCH   6   7
ENDBRANCH   1   6
TORSDOF 4
ENDMDL
MODEL 4
REMARK VINA RESULT:      -6.8      3.309      5.144
REMARK SMILES O=C(O)CCc1ccccc1
REMARK SMILES IDX 4 1 2 2 1 3 3 4 5 6 6 7 7 8 11 9 8 10 10 11 9 12
REMARK H PARENT 3 5
REMARK Flexibility Score: inf
ROOT
ATOM      1  C   UNL     1       4.981   1.789   0.681  1.00  0.00     0.127 C 
ENDROOT
BRANCH   1   2
ATOM      2  C   UNL     1       4.488   1.110   1.902  1.00  0.00     0.303 C 
ATOM      3  O   UNL     1       5.163   0.213   2.465  1.00  0.00    -0.252 OA
BRANCH   2   4
ATOM      4  O   UNL     1       3.264   1.447   2.457  1.00  0.00    -0.481 OA
ATOM      5  H   UNL     1       2.795   2.304   2.153  1.00  0.00     0.296 HD
ENDBRANCH   2   4
ENDBRANCH   1   2
BRANCH   1   6
ATOM      6  C   UNL     1       6.478   1.801   0.721  1.00  0.00     0.047 C 
BRANCH   6   7
ATOM      7  C   UNL     1       7.108   1.042  -0.357  1.00  0.00    -0.047 A 
ATOM      8  C   UNL     1       6.374   0.163  -1.120  1.00  0.00     0.004 A 
ATOM      9  C   UNL     1       8.450   1.216  -0.606  1.00  0.00     0.004 A 
ATOM     10  C   UNL     1       7.041  -0.529  -2.134  1.00  0.00     0.000 A 
ATOM     11  C   UNL     1       9.107   0.531  -1.609  1.00  0.00     0.000 A 
ATOM     12  C   UNL     1       8.380  -0.352  -2.377  1.00  0.00     0.000 A 
ENDBRANCH   6   7
ENDBRANCH   1   6
TORSDOF 4
ENDMDL
MODEL 5
REMARK VINA RESULT:      -6.7      3.811      4.973
REMARK SMILES O=C(O)CCc1ccccc1
REMARK SMILES IDX 4 1 2 2 1 3 3 4 5 6 6 7 7 8 11 9 8 10 10 11 9 12
REMARK H PARENT 3 5
REMARK Flexibility Score: inf
ROOT
ATOM      1  C   UNL     1       5.540   2.834  -0.024  1.00  0.00     0.127 C 
ENDROOT
BRANCH   1   2
ATOM      2  C   UNL     1       6.260   3.846   0.784  1.00  0.00     0.303 C 
ATOM      3  O   UNL     1       6.907   4.775   0.238  1.00  0.00    -0.252 OA
BRANCH   2   4
ATOM      4  O   UNL     1       6.241   3.795   2.168  1.00  0.00    -0.481 OA
ATOM      5  H   UNL     1       6.620   2.971   2.644  1.00  0.00     0.296 HD
ENDBRANCH   2   4
ENDBRANCH   1   2
BRANCH   1   6
ATOM      6  C   UNL     1       4.969   1.808   0.907  1.00  0.00     0.047 C 
BRANCH   6   7
ATOM      7  C   UNL     1       5.737   0.566   0.966  1.00  0.00    -0.047 A 
ATOM      8  C   UNL     1       5.730  -0.212   2.100  1.00  0.00     0.004 A 
ATOM      9  C   UNL     1       6.471   0.178  -0.131  1.00  0.00     0.004 A 
ATOM     10  C   UNL     1       6.487  -1.386   2.086  1.00  0.00     0.000 A 
ATOM     11  C   UNL     1       7.218  -0.983  -0.144  1.00  0.00     0.000 A 
ATOM     12  C   UNL     1       7.217  -1.768   0.989  1.00  0.00     0.000 A 
ENDBRANCH   6   7
ENDBRANCH   1   6
TORSDOF 4
ENDMDL
