@<TRIPOS>MOLECULE
/home/cewinharhar/GITHUB/reincatalyze/data/processed/docking_pred/2023-Apr-26-1657_maxeplen10_maxtrainstep1000_exh32_gamma099_lrac9e-4_lrcr1e-3/01f25cbd7413d58f388abe94d9cfceb48e05f66f_ligand_2.pdbqt
 12 12 0 0 0
SMALL
GASTEIGER

@<TRIPOS>ATOM
      1  C          8.2640   -0.8790   -1.8760 C.3     1  UNL1        0.1270
      2  C          8.4120   -2.0060   -2.8270 C.2     1  UNL1        0.3030
      3  O          9.5380   -2.5010   -3.0800 O.2     1  UNL1       -0.2520
      4  O          7.3070   -2.5460   -3.4660 O.3     1  UNL1       -0.4810
      5  H          6.6760   -1.9270   -3.9840 H       1  UNL1        0.2960
      6  C          7.4950   -1.3660   -0.6860 C.3     1  UNL1        0.0470
      7  C          6.6290   -0.3550   -0.0830 C.2     1  UNL1       -0.0470
      8  C          6.1760   -0.4950    1.2080 C.2     1  UNL1        0.0040
      9  C          6.2690    0.7480   -0.8230 C.2     1  UNL1        0.0040
     10  C          5.3520    0.5100    1.7190 C.2     1  UNL1        0.0000
     11  C          5.4540    1.7410   -0.3160 C.2     1  UNL1        0.0000
     12  C          4.9960    1.6070    0.9760 C.2     1  UNL1        0.0000
@<TRIPOS>BOND
     1     5     4    1
     2     4     2    1
     3     3     2    2
     4     2     1    1
     5     1     6    1
     6     9    11    1
     7     9     7    2
     8     6     7    1
     9    11    12    2
    10     7     8    1
    11    12    10    1
    12     8    10    2
