@<TRIPOS>MOLECULE
/home/cewinharhar/GITHUB/reincatalyze/data/processed/docking_pred/2023-Apr-26-1657_maxeplen10_maxtrainstep1000_exh32_gamma099_lrac9e-4_lrcr1e-3/01f25cbd7413d58f388abe94d9cfceb48e05f66f_ligand_2.pdbqt
 12 12 0 0 0
SMALL
GASTEIGER

@<TRIPOS>ATOM
      1  C          5.5400    2.8340   -0.0240 C.3     1  UNL1        0.1270
      2  C          6.2600    3.8460    0.7840 C.2     1  UNL1        0.3030
      3  O          6.9070    4.7750    0.2380 O.2     1  UNL1       -0.2520
      4  O          6.2410    3.7950    2.1680 O.3     1  UNL1       -0.4810
      5  H          6.6200    2.9710    2.6440 H       1  UNL1        0.2960
      6  C          4.9690    1.8080    0.9070 C.3     1  UNL1        0.0470
      7  C          5.7370    0.5660    0.9660 C.2     1  UNL1       -0.0470
      8  C          5.7300   -0.2120    2.1000 C.2     1  UNL1        0.0040
      9  C          6.4710    0.1780   -0.1310 C.2     1  UNL1        0.0040
     10  C          6.4870   -1.3860    2.0860 C.2     1  UNL1        0.0000
     11  C          7.2180   -0.9830   -0.1440 C.2     1  UNL1        0.0000
     12  C          7.2170   -1.7680    0.9890 C.2     1  UNL1        0.0000
@<TRIPOS>BOND
     1    11     9    1
     2    11    12    2
     3     9     7    2
     4     1     2    1
     5     1     6    1
     6     3     2    2
     7     2     4    1
     8     6     7    1
     9     7     8    1
    10    12    10    1
    11    10     8    2
    12     4     5    1
