@<TRIPOS>MOLECULE
/home/cewinharhar/GITHUB/reincatalyze/data/processed/docking_pred/2023-Apr-26-1657_maxeplen10_maxtrainstep1000_exh32_gamma099_lrac9e-4_lrcr1e-3/01f25cbd7413d58f388abe94d9cfceb48e05f66f_ligand_2.pdbqt
 12 12 0 0 0
SMALL
GASTEIGER

@<TRIPOS>ATOM
      1  C          8.3990   -0.6440   -2.0870 C.3     1  UNL1        0.1270
      2  C          8.3720   -1.8960   -2.8800 C.2     1  UNL1        0.3030
      3  O          7.2870   -2.4110   -3.2470 O.2     1  UNL1       -0.2520
      4  O          9.5490   -2.5350   -3.2380 O.3     1  UNL1       -0.4810
      5  H          9.9870   -2.3120   -4.1360 H       1  UNL1        0.2960
      6  C          7.0170   -0.0650   -2.0750 C.3     1  UNL1        0.0470
      7  C          6.4540    0.1010   -0.7370 C.2     1  UNL1       -0.0470
      8  C          5.8040    1.2620   -0.3860 C.2     1  UNL1        0.0040
      9  C          6.5780   -0.9210    0.1750 C.2     1  UNL1        0.0040
     10  C          5.2900    1.3510    0.9090 C.2     1  UNL1        0.0000
     11  C          6.0690   -0.8310    1.4560 C.2     1  UNL1        0.0000
     12  C          5.4180    0.3290    1.8150 C.2     1  UNL1        0.0000
@<TRIPOS>BOND
     1     5     4    1
     2     3     2    2
     3     4     2    1
     4     2     1    1
     5     1     6    1
     6     6     7    1
     7     7     8    2
     8     7     9    1
     9     8    10    1
    10     9    11    2
    11    10    12    2
    12    11    12    1
