@<TRIPOS>MOLECULE
/home/cewinharhar/GITHUB/reincatalyze/data/processed/docking_pred/2023-Apr-26-1657_maxeplen10_maxtrainstep1000_exh32_gamma099_lrac9e-4_lrcr1e-3/01f25cbd7413d58f388abe94d9cfceb48e05f66f_ligand_2.pdbqt
 12 12 0 0 0
SMALL
GASTEIGER

@<TRIPOS>ATOM
      1  C          8.4720   -0.6530   -2.0700 C.3     1  UNL1        0.1270
      2  C          8.4050   -1.8990   -2.8700 C.2     1  UNL1        0.3030
      3  O          7.3020   -2.3970   -3.2070 O.2     1  UNL1       -0.2520
      4  O          9.5610   -2.5500   -3.2680 O.3     1  UNL1       -0.4810
      5  H          9.9510   -3.2870   -2.6740 H       1  UNL1        0.2960
      6  C          7.1150   -0.0180   -2.0720 C.3     1  UNL1        0.0470
      7  C          6.5190    0.1160   -0.7440 C.2     1  UNL1       -0.0470
      8  C          6.6420   -0.8890    0.1870 C.2     1  UNL1        0.0040
      9  C          5.8310    1.2660   -0.4300 C.2     1  UNL1        0.0040
     10  C          6.0480   -0.6920    1.4360 C.2     1  UNL1        0.0000
     11  C          5.2450    1.4590    0.8050 C.2     1  UNL1        0.0000
     12  C          5.3630    0.4560    1.7430 C.2     1  UNL1        0.0000
@<TRIPOS>BOND
     1     4     2    1
     2     4     5    1
     3     3     2    2
     4     2     1    1
     5     6     1    1
     6     6     7    1
     7     7     9    2
     8     7     8    1
     9     9    11    1
    10     8    10    2
    11    11    12    2
    12    10    12    1
