@<TRIPOS>MOLECULE
/home/cewinharhar/GITHUB/reincatalyze/data/processed/docking_pred/2023-Apr-26-1657_maxeplen10_maxtrainstep1000_exh32_gamma099_lrac9e-4_lrcr1e-3/02381cbfeedb5f98de7c9f38a4017f955763d16c_ligand_2.pdbqt
 12 12 0 0 0
SMALL
GASTEIGER

@<TRIPOS>ATOM
      1  C          8.4630   -0.6450   -2.1190 C.3     1  UNL1        0.1270
      2  C          8.4820   -1.9060   -2.8960 C.2     1  UNL1        0.3030
      3  O          9.5540   -2.5280   -3.1020 O.2     1  UNL1       -0.2520
      4  O          7.3130   -2.4360   -3.4190 O.3     1  UNL1       -0.4810
      5  H          6.9160   -2.0290   -4.2710 H       1  UNL1        0.2960
      6  C          7.0600   -0.1200   -2.1070 C.3     1  UNL1        0.0470
      7  C          6.4950    0.0380   -0.7680 C.2     1  UNL1       -0.0470
      8  C          6.6160   -0.9620    0.1690 C.2     1  UNL1        0.0040
      9  C          5.8400    1.2050   -0.4490 C.2     1  UNL1        0.0040
     10  C          6.0530   -0.7420    1.4280 C.2     1  UNL1        0.0000
     11  C          5.2850    1.4210    0.7960 C.2     1  UNL1        0.0000
     12  C          5.4000    0.4230    1.7400 C.2     1  UNL1        0.0000
@<TRIPOS>BOND
     1     5     4    1
     2     4     2    1
     3     3     2    2
     4     2     1    1
     5     1     6    1
     6     6     7    1
     7     7     9    2
     8     7     8    1
     9     9    11    1
    10     8    10    2
    11    11    12    2
    12    10    12    1
