@<TRIPOS>MOLECULE
/home/cewinharhar/GITHUB/reincatalyze/data/processed/docking_pred/2023-Apr-26-1657_maxeplen10_maxtrainstep1000_exh32_gamma099_lrac9e-4_lrcr1e-3/02381cbfeedb5f98de7c9f38a4017f955763d16c_ligand_2.pdbqt
 12 12 0 0 0
SMALL
GASTEIGER

@<TRIPOS>ATOM
      1  C          8.4540   -0.6350   -2.1160 C.3     1  UNL1        0.1270
      2  C          8.4810   -1.9060   -2.8770 C.2     1  UNL1        0.3030
      3  O          9.5550   -2.5280   -3.0680 O.2     1  UNL1       -0.2520
      4  O          7.3160   -2.4440   -3.4010 O.3     1  UNL1       -0.4810
      5  H          6.8600   -1.9790   -4.1910 H       1  UNL1        0.2960
      6  C          7.0460   -0.1230   -2.1020 C.3     1  UNL1        0.0470
      7  C          6.4890    0.0480   -0.7620 C.2     1  UNL1       -0.0470
      8  C          5.8450    1.2120   -0.4110 C.2     1  UNL1        0.0040
      9  C          6.6110   -0.9730    0.1520 C.2     1  UNL1        0.0040
     10  C          5.3360    1.3060    0.8860 C.2     1  UNL1        0.0000
     11  C          6.1080   -0.8790    1.4340 C.2     1  UNL1        0.0000
     12  C          5.4630    0.2840    1.7940 C.2     1  UNL1        0.0000
@<TRIPOS>BOND
     1     5     4    1
     2     4     2    1
     3     3     2    2
     4     2     1    1
     5     1     6    1
     6     6     7    1
     7     7     8    2
     8     7     9    1
     9     8    10    1
    10     9    11    2
    11    10    12    2
    12    11    12    1
