@<TRIPOS>MOLECULE
/home/cewinharhar/GITHUB/reincatalyze/data/processed/docking_pred/2023-Apr-26-1657_maxeplen10_maxtrainstep1000_exh32_gamma099_lrac9e-4_lrcr1e-3/02381cbfeedb5f98de7c9f38a4017f955763d16c_ligand_2.pdbqt
 12 12 0 0 0
SMALL
GASTEIGER

@<TRIPOS>ATOM
      1  C          5.4550    2.8950   -0.0100 C.3     1  UNL1        0.1270
      2  C          6.2550    3.8360    0.8090 C.2     1  UNL1        0.3030
      3  O          6.8990    4.7740    0.2780 O.2     1  UNL1       -0.2520
      4  O          6.3130    3.7060    2.1870 O.3     1  UNL1       -0.4810
      5  H          7.2220    3.7500    2.6560 H       1  UNL1        0.2960
      6  C          4.9300    1.8180    0.8900 C.3     1  UNL1        0.0470
      7  C          5.7470    0.6050    0.9040 C.2     1  UNL1       -0.0470
      8  C          5.8060   -0.1900    2.0250 C.2     1  UNL1        0.0040
      9  C          6.4580    0.2620   -0.2230 C.2     1  UNL1        0.0040
     10  C          6.6050   -1.3340    1.9660 C.2     1  UNL1        0.0000
     11  C          7.2480   -0.8690   -0.2780 C.2     1  UNL1        0.0000
     12  C          7.3140   -1.6710    0.8410 C.2     1  UNL1        0.0000
@<TRIPOS>BOND
     1    11     9    1
     2    11    12    2
     3     9     7    2
     4     1     2    1
     5     1     6    1
     6     3     2    2
     7     2     4    1
     8    12    10    1
     9     6     7    1
    10     7     8    1
    11    10     8    2
    12     4     5    1
