@<TRIPOS>MOLECULE
/home/cewinharhar/GITHUB/reincatalyze/data/processed/docking_pred/2023-Apr-26-1657_maxeplen10_maxtrainstep1000_exh32_gamma099_lrac9e-4_lrcr1e-3/02381cbfeedb5f98de7c9f38a4017f955763d16c_ligand_2.pdbqt
 12 12 0 0 0
SMALL
GASTEIGER

@<TRIPOS>ATOM
      1  C          8.2400    0.2110   -2.1790 C.3     1  UNL1        0.1270
      2  C          9.3790    0.3450   -1.2410 C.2     1  UNL1        0.3030
      3  O          9.4740   -0.3860   -0.2240 O.2     1  UNL1       -0.2520
      4  O         10.3730    1.2850   -1.4600 O.3     1  UNL1       -0.4810
      5  H         10.8010    1.3540   -2.3870 H       1  UNL1        0.2960
      6  C          7.1510   -0.5560   -1.4920 C.3     1  UNL1        0.0470
      7  C          6.3600    0.2430   -0.5580 C.2     1  UNL1       -0.0470
      8  C          6.1380   -0.1940    0.7280 C.2     1  UNL1        0.0040
      9  C          5.8370    1.4440   -0.9770 C.2     1  UNL1        0.0040
     10  C          5.3740    0.6210    1.5660 C.2     1  UNL1        0.0000
     11  C          5.0820    2.2480   -0.1470 C.2     1  UNL1        0.0000
     12  C          4.8540    1.8180    1.1420 C.2     1  UNL1        0.0000
@<TRIPOS>BOND
     1     5     4    1
     2     1     6    1
     3     1     2    1
     4     6     7    1
     5     4     2    1
     6     2     3    2
     7     9     7    2
     8     9    11    1
     9     7     8    1
    10    11    12    2
    11     8    10    2
    12    12    10    1
