@<TRIPOS>MOLECULE
/home/cewinharhar/GITHUB/reincatalyze/data/processed/docking_pred/2023-Apr-26-1657_maxeplen10_maxtrainstep1000_exh32_gamma099_lrac9e-4_lrcr1e-3/02381cbfeedb5f98de7c9f38a4017f955763d16c_ligand_2.pdbqt
 12 12 0 0 0
SMALL
GASTEIGER

@<TRIPOS>ATOM
      1  C          4.9970    1.7990    0.7070 C.3     1  UNL1        0.1270
      2  C          4.4820    1.1120    1.9150 C.2     1  UNL1        0.3030
      3  O          5.1410    0.2030    2.4780 O.2     1  UNL1       -0.2520
      4  O          3.2550    1.4560    2.4590 O.3     1  UNL1       -0.4810
      5  H          2.4200    0.9290    2.1850 H       1  UNL1        0.2960
      6  C          6.4940    1.7780    0.7560 C.3     1  UNL1        0.0470
      7  C          7.1140    1.0280   -0.3350 C.2     1  UNL1       -0.0470
      8  C          6.3830    0.1260   -1.0730 C.2     1  UNL1        0.0040
      9  C          8.4440    1.2350   -0.6210 C.2     1  UNL1        0.0040
     10  C          7.0400   -0.5540   -2.1010 C.2     1  UNL1        0.0000
     11  C          9.0920    0.5610   -1.6370 C.2     1  UNL1        0.0000
     12  C          8.3670   -0.3450   -2.3810 C.2     1  UNL1        0.0000
@<TRIPOS>BOND
     1    12    10    2
     2    12    11    1
     3    10     8    1
     4    11     9    2
     5     8     7    2
     6     9     7    1
     7     7     6    1
     8     1     6    1
     9     1     2    1
    10     2     4    1
    11     2     3    2
    12     5     4    1
