MODEL 1
REMARK VINA RESULT:      -7.4      0.000      0.000
REMARK SMILES O=C(O)CCc1ccccc1
REMARK SMILES IDX 4 1 2 2 1 3 3 4 5 6 6 7 7 8 11 9 8 10 10 11 9 12
REMARK H PARENT 3 5
REMARK Flexibility Score: inf
ROOT
ATOM      1  C   UNL     1       8.463  -0.645  -2.119  1.00  0.00     0.127 C 
ENDROOT
BRANCH   1   2
ATOM      2  C   UNL     1       8.482  -1.906  -2.896  1.00  0.00     0.303 C 
ATOM      3  O   UNL     1       9.554  -2.528  -3.102  1.00  0.00    -0.252 OA
BRANCH   2   4
ATOM      4  O   UNL     1       7.313  -2.436  -3.419  1.00  0.00    -0.481 OA
ATOM      5  H   UNL     1       6.916  -2.029  -4.271  1.00  0.00     0.296 HD
ENDBRANCH   2   4
ENDBRANCH   1   2
BRANCH   1   6
ATOM      6  C   UNL     1       7.060  -0.120  -2.107  1.00  0.00     0.047 C 
BRANCH   6   7
ATOM      7  C   UNL     1       6.495   0.038  -0.768  1.00  0.00    -0.047 A 
ATOM      8  C   UNL     1       6.616  -0.962   0.169  1.00  0.00     0.004 A 
ATOM      9  C   UNL     1       5.840   1.205  -0.449  1.00  0.00     0.004 A 
ATOM     10  C   UNL     1       6.053  -0.742   1.428  1.00  0.00     0.000 A 
ATOM     11  C   UNL     1       5.285   1.421   0.796  1.00  0.00     0.000 A 
ATOM     12  C   UNL     1       5.400   0.423   1.740  1.00  0.00     0.000 A 
ENDBRANCH   6   7
ENDBRANCH   1   6
TORSDOF 4
ENDMDL
MODEL 2
REMARK VINA RESULT:      -7.3      0.083      1.438
REMARK SMILES O=C(O)CCc1ccccc1
REMARK SMILES IDX 4 1 2 2 1 3 3 4 5 6 6 7 7 8 11 9 8 10 10 11 9 12
REMARK H PARENT 3 5
REMARK Flexibility Score: inf
ROOT
ATOM      1  C   UNL     1       8.454  -0.635  -2.116  1.00  0.00     0.127 C 
ENDROOT
BRANCH   1   2
ATOM      2  C   UNL     1       8.481  -1.906  -2.877  1.00  0.00     0.303 C 
ATOM      3  O   UNL     1       9.555  -2.528  -3.068  1.00  0.00    -0.252 OA
BRANCH   2   4
ATOM      4  O   UNL     1       7.316  -2.444  -3.401  1.00  0.00    -0.481 OA
ATOM      5  H   UNL     1       6.860  -1.979  -4.191  1.00  0.00     0.296 HD
ENDBRANCH   2   4
ENDBRANCH   1   2
BRANCH   1   6
ATOM      6  C   UNL     1       7.046  -0.123  -2.102  1.00  0.00     0.047 C 
BRANCH   6   7
ATOM      7  C   UNL     1       6.489   0.048  -0.762  1.00  0.00    -0.047 A 
ATOM      8  C   UNL     1       5.845   1.212  -0.411  1.00  0.00     0.004 A 
ATOM      9  C   UNL     1       6.611  -0.973   0.152  1.00  0.00     0.004 A 
ATOM     10  C   UNL     1       5.336   1.306   0.886  1.00  0.00     0.000 A 
ATOM     11  C   UNL     1       6.108  -0.879   1.434  1.00  0.00     0.000 A 
ATOM     12  C   UNL     1       5.463   0.284   1.794  1.00  0.00     0.000 A 
ENDBRANCH   6   7
ENDBRANCH   1   6
TORSDOF 4
ENDMDL
MODEL 3
REMARK VINA RESULT:      -6.8      3.373      5.070
REMARK SMILES O=C(O)CCc1ccccc1
REMARK SMILES IDX 4 1 2 2 1 3 3 4 5 6 6 7 7 8 11 9 8 10 10 11 9 12
REMARK H PARENT 3 5
REMARK Flexibility Score: inf
ROOT
ATOM      1  C   UNL     1       4.997   1.799   0.707  1.00  0.00     0.127 C 
ENDROOT
BRANCH   1   2
ATOM      2  C   UNL     1       4.482   1.112   1.915  1.00  0.00     0.303 C 
ATOM      3  O   UNL     1       5.141   0.203   2.478  1.00  0.00    -0.252 OA
BRANCH   2   4
ATOM      4  O   UNL     1       3.255   1.456   2.459  1.00  0.00    -0.481 OA
ATOM      5  H   UNL     1       2.420   0.929   2.185  1.00  0.00     0.296 HD
ENDBRANCH   2   4
ENDBRANCH   1   2
BRANCH   1   6
ATOM      6  C   UNL     1       6.494   1.778   0.756  1.00  0.00     0.047 C 
BRANCH   6   7
ATOM      7  C   UNL     1       7.114   1.028  -0.335  1.00  0.00    -0.047 A 
ATOM      8  C   UNL     1       6.383   0.126  -1.073  1.00  0.00     0.004 A 
ATOM      9  C   UNL     1       8.444   1.235  -0.621  1.00  0.00     0.004 A 
ATOM     10  C   UNL     1       7.040  -0.554  -2.101  1.00  0.00     0.000 A 
ATOM     11  C   UNL     1       9.092   0.561  -1.637  1.00  0.00     0.000 A 
ATOM     12  C   UNL     1       8.367  -0.345  -2.381  1.00  0.00     0.000 A 
ENDBRANCH   6   7
ENDBRANCH   1   6
TORSDOF 4
ENDMDL
MODEL 4
REMARK VINA RESULT:      -6.7      3.812      4.924
REMARK SMILES O=C(O)CCc1ccccc1
REMARK SMILES IDX 4 1 2 2 1 3 3 4 5 6 6 7 7 8 11 9 8 10 10 11 9 12
REMARK H PARENT 3 5
REMARK Flexibility Score: inf
ROOT
ATOM      1  C   UNL     1       5.455   2.895  -0.010  1.00  0.00     0.127 C 
ENDROOT
BRANCH   1   2
ATOM      2  C   UNL     1       6.255   3.836   0.809  1.00  0.00     0.303 C 
ATOM      3  O   UNL     1       6.899   4.774   0.278  1.00  0.00    -0.252 OA
BRANCH   2   4
ATOM      4  O   UNL     1       6.313   3.706   2.187  1.00  0.00    -0.481 OA
ATOM      5  H   UNL     1       7.222   3.750   2.656  1.00  0.00     0.296 HD
ENDBRANCH   2   4
ENDBRANCH   1   2
BRANCH   1   6
ATOM      6  C   UNL     1       4.930   1.818   0.890  1.00  0.00     0.047 C 
BRANCH   6   7
ATOM      7  C   UNL     1       5.747   0.605   0.904  1.00  0.00    -0.047 A 
ATOM      8  C   UNL     1       5.806  -0.190   2.025  1.00  0.00     0.004 A 
ATOM      9  C   UNL     1       6.458   0.262  -0.223  1.00  0.00     0.004 A 
ATOM     10  C   UNL     1       6.605  -1.334   1.966  1.00  0.00     0.000 A 
ATOM     11  C   UNL     1       7.248  -0.869  -0.278  1.00  0.00     0.000 A 
ATOM     12  C   UNL     1       7.314  -1.671   0.841  1.00  0.00     0.000 A 
ENDBRANCH   6   7
ENDBRANCH   1   6
TORSDOF 4
ENDMDL
MODEL 5
REMARK VINA RESULT:      -6.7      1.937      2.297
REMARK SMILES O=C(O)CCc1ccccc1
REMARK SMILES IDX 4 1 2 2 1 3 3 4 5 6 6 7 7 8 11 9 8 10 10 11 9 12
REMARK H PARENT 3 5
REMARK Flexibility Score: inf
ROOT
ATOM      1  C   UNL     1       8.240   0.211  -2.179  1.00  0.00     0.127 C 
ENDROOT
BRANCH   1   2
ATOM      2  C   UNL     1       9.379   0.345  -1.241  1.00  0.00     0.303 C 
ATOM      3  O   UNL     1       9.474  -0.386  -0.224  1.00  0.00    -0.252 OA
BRANCH   2   4
ATOM      4  O   UNL     1      10.373   1.285  -1.460  1.00  0.00    -0.481 OA
ATOM      5  H   UNL     1      10.801   1.354  -2.387  1.00  0.00     0.296 HD
ENDBRANCH   2   4
ENDBRANCH   1   2
BRANCH   1   6
ATOM      6  C   UNL     1       7.151  -0.556  -1.492  1.00  0.00     0.047 C 
BRANCH   6   7
ATOM      7  C   UNL     1       6.360   0.243  -0.558  1.00  0.00    -0.047 A 
ATOM      8  C   UNL     1       6.138  -0.194   0.728  1.00  0.00     0.004 A 
ATOM      9  C   UNL     1       5.837   1.444  -0.977  1.00  0.00     0.004 A 
ATOM     10  C   UNL     1       5.374   0.621   1.566  1.00  0.00     0.000 A 
ATOM     11  C   UNL     1       5.082   2.248  -0.147  1.00  0.00     0.000 A 
ATOM     12  C   UNL     1       4.854   1.818   1.142  1.00  0.00     0.000 A 
ENDBRANCH   6   7
ENDBRANCH   1   6
TORSDOF 4
ENDMDL
