@<TRIPOS>MOLECULE
/home/cewinharhar/GITHUB/reincatalyze/data/processed/docking_pred/2023-Apr-26-1657_maxeplen10_maxtrainstep1000_exh32_gamma099_lrac9e-4_lrcr1e-3/0310d41f91ab2de901a6698b161cc991790b6b4b_ligand_2.pdbqt
 12 12 0 0 0
SMALL
GASTEIGER

@<TRIPOS>ATOM
      1  C          8.3770   -0.9280   -1.7830 C.3     1  UNL1        0.1270
      2  C          8.3640   -1.9890   -2.8170 C.2     1  UNL1        0.3030
      3  O          7.2850   -2.4260   -3.2890 O.2     1  UNL1       -0.2520
      4  O          9.5480   -2.5300   -3.2940 O.3     1  UNL1       -0.4810
      5  H         10.2210   -1.9230   -3.7690 H       1  UNL1        0.2960
      6  C          7.5170   -1.3750   -0.6400 C.3     1  UNL1        0.0470
      7  C          6.6480   -0.3280   -0.1050 C.2     1  UNL1       -0.0470
      8  C          6.2960    0.7560   -0.8760 C.2     1  UNL1        0.0040
      9  C          6.1790   -0.4380    1.1830 C.2     1  UNL1        0.0040
     10  C          5.4620    1.7170   -0.3010 C.2     1  UNL1        0.0000
     11  C          5.3550    0.5130    1.7510 C.2     1  UNL1        0.0000
     12  C          4.9980    1.6020    0.9860 C.2     1  UNL1        0.0000
@<TRIPOS>BOND
     1     5     4    1
     2     4     2    1
     3     3     2    2
     4     2     1    1
     5     1     6    1
     6     8    10    1
     7     8     7    2
     8     6     7    1
     9    10    12    2
    10     7     9    1
    11    12    11    1
    12     9    11    2
