@<TRIPOS>MOLECULE
/home/cewinharhar/GITHUB/reincatalyze/data/processed/docking_pred/2023-Apr-26-1657_maxeplen10_maxtrainstep1000_exh32_gamma099_lrac9e-4_lrcr1e-3/0310d41f91ab2de901a6698b161cc991790b6b4b_ligand_2.pdbqt
 12 12 0 0 0
SMALL
GASTEIGER

@<TRIPOS>ATOM
      1  C          8.4190   -0.5740   -2.2070 C.3     1  UNL1        0.1270
      2  C          8.4730   -1.8780   -2.9100 C.2     1  UNL1        0.3030
      3  O          9.5600   -2.4840   -3.0750 O.2     1  UNL1       -0.2520
      4  O          7.3200   -2.4670   -3.4040 O.3     1  UNL1       -0.4810
      5  H          7.0690   -3.4110   -3.1000 H       1  UNL1        0.2960
      6  C          6.9900   -0.1250   -2.1570 C.3     1  UNL1        0.0470
      7  C          6.4720    0.0580   -0.8030 C.2     1  UNL1       -0.0470
      8  C          5.8590    1.2350   -0.4380 C.2     1  UNL1        0.0040
      9  C          6.6010   -0.9630    0.1100 C.2     1  UNL1        0.0040
     10  C          5.3870    1.3400    0.8730 C.2     1  UNL1        0.0000
     11  C          6.1340   -0.8570    1.4050 C.2     1  UNL1        0.0000
     12  C          5.5200    0.3180    1.7790 C.2     1  UNL1        0.0000
@<TRIPOS>BOND
     1     4     5    1
     2     4     2    1
     3     3     2    2
     4     2     1    1
     5     1     6    1
     6     6     7    1
     7     7     8    2
     8     7     9    1
     9     8    10    1
    10     9    11    2
    11    10    12    2
    12    11    12    1
