@<TRIPOS>MOLECULE
/home/cewinharhar/GITHUB/reincatalyze/data/processed/docking_pred/2023-Apr-26-1657_maxeplen10_maxtrainstep1000_exh32_gamma099_lrac9e-4_lrcr1e-3/0310d41f91ab2de901a6698b161cc991790b6b4b_ligand_2.pdbqt
 12 12 0 0 0
SMALL
GASTEIGER

@<TRIPOS>ATOM
      1  C          8.2510   -0.8970   -1.8490 C.3     1  UNL1        0.1270
      2  C          8.3900   -1.9890   -2.8410 C.2     1  UNL1        0.3030
      3  O          9.5140   -2.4740   -3.1200 O.2     1  UNL1       -0.2520
      4  O          7.2800   -2.5050   -3.4890 O.3     1  UNL1       -0.4810
      5  H          7.2680   -2.5370   -4.5120 H       1  UNL1        0.2960
      6  C          7.3860   -1.3860   -0.7280 C.3     1  UNL1        0.0470
      7  C          6.5600   -0.3470   -0.1160 C.2     1  UNL1       -0.0470
      8  C          6.1050   -0.4790    1.1750 C.2     1  UNL1        0.0040
      9  C          6.2420    0.7750   -0.8470 C.2     1  UNL1        0.0040
     10  C          5.3230    0.5540    1.6960 C.2     1  UNL1        0.0000
     11  C          5.4680    1.7950   -0.3310 C.2     1  UNL1        0.0000
     12  C          5.0070    1.6700    0.9620 C.2     1  UNL1        0.0000
@<TRIPOS>BOND
     1     5     4    1
     2     4     2    1
     3     3     2    2
     4     2     1    1
     5     1     6    1
     6     9    11    1
     7     9     7    2
     8     6     7    1
     9    11    12    2
    10     7     8    1
    11    12    10    1
    12     8    10    2
