@<TRIPOS>MOLECULE
/home/cewinharhar/GITHUB/reincatalyze/data/processed/docking_pred/2023-Apr-26-1657_maxeplen10_maxtrainstep1000_exh32_gamma099_lrac9e-4_lrcr1e-3/0310d41f91ab2de901a6698b161cc991790b6b4b_ligand_2.pdbqt
 12 12 0 0 0
SMALL
GASTEIGER

@<TRIPOS>ATOM
      1  C          4.9890    1.8370    0.7270 C.3     1  UNL1        0.1270
      2  C          4.4760    1.1280    1.9230 C.2     1  UNL1        0.3030
      3  O          5.1410    0.2150    2.4730 O.2     1  UNL1       -0.2520
      4  O          3.2450    1.4550    2.4690 O.3     1  UNL1       -0.4810
      5  H          2.5240    1.8640    1.8690 H       1  UNL1        0.2960
      6  C          6.4870    1.8110    0.7700 C.3     1  UNL1        0.0470
      7  C          7.1000    1.0660   -0.3280 C.2     1  UNL1       -0.0470
      8  C          6.3540    0.1990   -1.0930 C.2     1  UNL1        0.0040
      9  C          8.4380    1.2420   -0.5940 C.2     1  UNL1        0.0040
     10  C          7.0050   -0.4790   -2.1260 C.2     1  UNL1        0.0000
     11  C          9.0800    0.5710   -1.6160 C.2     1  UNL1        0.0000
     12  C          8.3410   -0.3000   -2.3860 C.2     1  UNL1        0.0000
@<TRIPOS>BOND
     1    12    10    2
     2    12    11    1
     3    10     8    1
     4    11     9    2
     5     8     7    2
     6     9     7    1
     7     7     6    1
     8     1     6    1
     9     1     2    1
    10     5     4    1
    11     2     4    1
    12     2     3    2
