MODEL 1
REMARK VINA RESULT:      -7.3      0.000      0.000
REMARK SMILES O=C(O)CCc1ccccc1
REMARK SMILES IDX 4 1 2 2 1 3 3 4 5 6 6 7 7 8 11 9 8 10 10 11 9 12
REMARK H PARENT 3 5
REMARK Flexibility Score: inf
ROOT
ATOM      1  C   UNL     1       8.425  -0.585  -2.213  1.00  0.00     0.127 C 
ENDROOT
BRANCH   1   2
ATOM      2  C   UNL     1       8.462  -1.887  -2.922  1.00  0.00     0.303 C 
ATOM      3  O   UNL     1       9.536  -2.523  -3.058  1.00  0.00    -0.252 OA
BRANCH   2   4
ATOM      4  O   UNL     1       7.308  -2.437  -3.456  1.00  0.00    -0.481 OA
ATOM      5  H   UNL     1       7.367  -2.982  -4.320  1.00  0.00     0.296 HD
ENDBRANCH   2   4
ENDBRANCH   1   2
BRANCH   1   6
ATOM      6  C   UNL     1       7.002  -0.119  -2.161  1.00  0.00     0.047 C 
BRANCH   6   7
ATOM      7  C   UNL     1       6.478   0.037  -0.805  1.00  0.00    -0.047 A 
ATOM      8  C   UNL     1       6.601  -0.975   0.118  1.00  0.00     0.004 A 
ATOM      9  C   UNL     1       5.856   1.215  -0.457  1.00  0.00     0.004 A 
ATOM     10  C   UNL     1       6.078  -0.756   1.394  1.00  0.00     0.000 A 
ATOM     11  C   UNL     1       5.339   1.429   0.805  1.00  0.00     0.000 A 
ATOM     12  C   UNL     1       5.458   0.420   1.735  1.00  0.00     0.000 A 
ENDBRANCH   6   7
ENDBRANCH   1   6
TORSDOF 4
ENDMDL
MODEL 2
REMARK VINA RESULT:      -7.3      0.069      1.438
REMARK SMILES O=C(O)CCc1ccccc1
REMARK SMILES IDX 4 1 2 2 1 3 3 4 5 6 6 7 7 8 11 9 8 10 10 11 9 12
REMARK H PARENT 3 5
REMARK Flexibility Score: inf
ROOT
ATOM      1  C   UNL     1       8.419  -0.574  -2.207  1.00  0.00     0.127 C 
ENDROOT
BRANCH   1   2
ATOM      2  C   UNL     1       8.473  -1.878  -2.910  1.00  0.00     0.303 C 
ATOM      3  O   UNL     1       9.560  -2.484  -3.075  1.00  0.00    -0.252 OA
BRANCH   2   4
ATOM      4  O   UNL     1       7.320  -2.467  -3.404  1.00  0.00    -0.481 OA
ATOM      5  H   UNL     1       7.069  -3.411  -3.100  1.00  0.00     0.296 HD
ENDBRANCH   2   4
ENDBRANCH   1   2
BRANCH   1   6
ATOM      6  C   UNL     1       6.990  -0.125  -2.157  1.00  0.00     0.047 C 
BRANCH   6   7
ATOM      7  C   UNL     1       6.472   0.058  -0.803  1.00  0.00    -0.047 A 
ATOM      8  C   UNL     1       5.859   1.235  -0.438  1.00  0.00     0.004 A 
ATOM      9  C   UNL     1       6.601  -0.963   0.110  1.00  0.00     0.004 A 
ATOM     10  C   UNL     1       5.387   1.340   0.873  1.00  0.00     0.000 A 
ATOM     11  C   UNL     1       6.134  -0.857   1.405  1.00  0.00     0.000 A 
ATOM     12  C   UNL     1       5.520   0.318   1.779  1.00  0.00     0.000 A 
ENDBRANCH   6   7
ENDBRANCH   1   6
TORSDOF 4
ENDMDL
MODEL 3
REMARK VINA RESULT:      -7.2      0.637      1.088
REMARK SMILES O=C(O)CCc1ccccc1
REMARK SMILES IDX 4 1 2 2 1 3 3 4 5 6 6 7 7 8 11 9 8 10 10 11 9 12
REMARK H PARENT 3 5
REMARK Flexibility Score: inf
ROOT
ATOM      1  C   UNL     1       8.251  -0.897  -1.849  1.00  0.00     0.127 C 
ENDROOT
BRANCH   1   2
ATOM      2  C   UNL     1       8.390  -1.989  -2.841  1.00  0.00     0.303 C 
ATOM      3  O   UNL     1       9.514  -2.474  -3.120  1.00  0.00    -0.252 OA
BRANCH   2   4
ATOM      4  O   UNL     1       7.280  -2.505  -3.489  1.00  0.00    -0.481 OA
ATOM      5  H   UNL     1       7.268  -2.537  -4.512  1.00  0.00     0.296 HD
ENDBRANCH   2   4
ENDBRANCH   1   2
BRANCH   1   6
ATOM      6  C   UNL     1       7.386  -1.386  -0.728  1.00  0.00     0.047 C 
BRANCH   6   7
ATOM      7  C   UNL     1       6.560  -0.347  -0.116  1.00  0.00    -0.047 A 
ATOM      8  C   UNL     1       6.105  -0.479   1.175  1.00  0.00     0.004 A 
ATOM      9  C   UNL     1       6.242   0.775  -0.847  1.00  0.00     0.004 A 
ATOM     10  C   UNL     1       5.323   0.554   1.696  1.00  0.00     0.000 A 
ATOM     11  C   UNL     1       5.468   1.795  -0.331  1.00  0.00     0.000 A 
ATOM     12  C   UNL     1       5.007   1.670   0.962  1.00  0.00     0.000 A 
ENDBRANCH   6   7
ENDBRANCH   1   6
TORSDOF 4
ENDMDL
MODEL 4
REMARK VINA RESULT:      -7.0      0.669      1.863
REMARK SMILES O=C(O)CCc1ccccc1
REMARK SMILES IDX 4 1 2 2 1 3 3 4 5 6 6 7 7 8 11 9 8 10 10 11 9 12
REMARK H PARENT 3 5
REMARK Flexibility Score: inf
ROOT
ATOM      1  C   UNL     1       8.377  -0.928  -1.783  1.00  0.00     0.127 C 
ENDROOT
BRANCH   1   2
ATOM      2  C   UNL     1       8.364  -1.989  -2.817  1.00  0.00     0.303 C 
ATOM      3  O   UNL     1       7.285  -2.426  -3.289  1.00  0.00    -0.252 OA
BRANCH   2   4
ATOM      4  O   UNL     1       9.548  -2.530  -3.294  1.00  0.00    -0.481 OA
ATOM      5  H   UNL     1      10.221  -1.923  -3.769  1.00  0.00     0.296 HD
ENDBRANCH   2   4
ENDBRANCH   1   2
BRANCH   1   6
ATOM      6  C   UNL     1       7.517  -1.375  -0.640  1.00  0.00     0.047 C 
BRANCH   6   7
ATOM      7  C   UNL     1       6.648  -0.328  -0.105  1.00  0.00    -0.047 A 
ATOM      8  C   UNL     1       6.296   0.756  -0.876  1.00  0.00     0.004 A 
ATOM      9  C   UNL     1       6.179  -0.438   1.183  1.00  0.00     0.004 A 
ATOM     10  C   UNL     1       5.462   1.717  -0.301  1.00  0.00     0.000 A 
ATOM     11  C   UNL     1       5.355   0.513   1.751  1.00  0.00     0.000 A 
ATOM     12  C   UNL     1       4.998   1.602   0.986  1.00  0.00     0.000 A 
ENDBRANCH   6   7
ENDBRANCH   1   6
TORSDOF 4
ENDMDL
MODEL 5
REMARK VINA RESULT:      -6.8      3.389      5.068
REMARK SMILES O=C(O)CCc1ccccc1
REMARK SMILES IDX 4 1 2 2 1 3 3 4 5 6 6 7 7 8 11 9 8 10 10 11 9 12
REMARK H PARENT 3 5
REMARK Flexibility Score: inf
ROOT
ATOM      1  C   UNL     1       4.989   1.837   0.727  1.00  0.00     0.127 C 
ENDROOT
BRANCH   1   2
ATOM      2  C   UNL     1       4.476   1.128   1.923  1.00  0.00     0.303 C 
ATOM      3  O   UNL     1       5.141   0.215   2.473  1.00  0.00    -0.252 OA
BRANCH   2   4
ATOM      4  O   UNL     1       3.245   1.455   2.469  1.00  0.00    -0.481 OA
ATOM      5  H   UNL     1       2.524   1.864   1.869  1.00  0.00     0.296 HD
ENDBRANCH   2   4
ENDBRANCH   1   2
BRANCH   1   6
ATOM      6  C   UNL     1       6.487   1.811   0.770  1.00  0.00     0.047 C 
BRANCH   6   7
ATOM      7  C   UNL     1       7.100   1.066  -0.328  1.00  0.00    -0.047 A 
ATOM      8  C   UNL     1       6.354   0.199  -1.093  1.00  0.00     0.004 A 
ATOM      9  C   UNL     1       8.438   1.242  -0.594  1.00  0.00     0.004 A 
ATOM     10  C   UNL     1       7.005  -0.479  -2.126  1.00  0.00     0.000 A 
ATOM     11  C   UNL     1       9.080   0.571  -1.616  1.00  0.00     0.000 A 
ATOM     12  C   UNL     1       8.341  -0.300  -2.386  1.00  0.00     0.000 A 
ENDBRANCH   6   7
ENDBRANCH   1   6
TORSDOF 4
ENDMDL
