@<TRIPOS>MOLECULE
/home/cewinharhar/GITHUB/reincatalyze/data/processed/docking_pred/2023-Apr-26-1657_maxeplen10_maxtrainstep1000_exh32_gamma099_lrac9e-4_lrcr1e-3/034cecc51265c6b10d0b2cc1c9f67b1ec6b5e3be_ligand_2.pdbqt
 12 12 0 0 0
SMALL
GASTEIGER

@<TRIPOS>ATOM
      1  C          8.2360   -1.5430    1.0020 C.3     1  UNL1        0.1270
      2  C          8.4910   -2.8030    0.2640 C.2     1  UNL1        0.3030
      3  O          9.0800   -3.7690    0.8090 O.2     1  UNL1       -0.2520
      4  O          8.0840   -2.9490   -1.0530 O.3     1  UNL1       -0.4810
      5  H          7.1660   -2.5950   -1.3360 H       1  UNL1        0.2960
      6  C          6.7610   -1.4230    1.2330 C.3     1  UNL1        0.0470
      7  C          6.1840   -0.1680    0.7530 C.2     1  UNL1       -0.0470
      8  C          5.4220    0.6190    1.5850 C.2     1  UNL1        0.0040
      9  C          6.4140    0.2230   -0.5450 C.2     1  UNL1        0.0040
     10  C          4.9040    1.8050    1.0600 C.2     1  UNL1        0.0000
     11  C          5.9010    1.3960   -1.0630 C.2     1  UNL1        0.0000
     12  C          5.1360    2.1900   -0.2360 C.2     1  UNL1        0.0000
@<TRIPOS>BOND
     1     5     4    1
     2    11     9    1
     3    11    12    2
     4     4     2    1
     5     9     7    2
     6    12    10    1
     7     2     3    2
     8     2     1    1
     9     7     6    1
    10     7     8    1
    11     1     6    1
    12    10     8    2
