@<TRIPOS>MOLECULE
/home/cewinharhar/GITHUB/reincatalyze/data/processed/docking_pred/2023-Apr-26-1657_maxeplen10_maxtrainstep1000_exh32_gamma099_lrac9e-4_lrcr1e-3/034cecc51265c6b10d0b2cc1c9f67b1ec6b5e3be_ligand_2.pdbqt
 12 12 0 0 0
SMALL
GASTEIGER

@<TRIPOS>ATOM
      1  C          4.9870    1.7950    0.7030 C.3     1  UNL1        0.1270
      2  C          4.4780    1.1140    1.9170 C.2     1  UNL1        0.3030
      3  O          5.1410    0.2110    2.4830 O.2     1  UNL1       -0.2520
      4  O          3.2500    1.4570    2.4610 O.3     1  UNL1       -0.4810
      5  H          2.7780    0.7990    3.0870 H       1  UNL1        0.2960
      6  C          6.4840    1.7880    0.7530 C.3     1  UNL1        0.0470
      7  C          7.1110    1.0390   -0.3350 C.2     1  UNL1       -0.0470
      8  C          6.3830    0.1440   -1.0840 C.2     1  UNL1        0.0040
      9  C          8.4450    1.2400   -0.6080 C.2     1  UNL1        0.0040
     10  C          7.0460   -0.5350   -2.1080 C.2     1  UNL1        0.0000
     11  C          9.0990    0.5680   -1.6210 C.2     1  UNL1        0.0000
     12  C          8.3770   -0.3310   -2.3750 C.2     1  UNL1        0.0000
@<TRIPOS>BOND
     1    12    10    2
     2    12    11    1
     3    10     8    1
     4    11     9    2
     5     8     7    2
     6     9     7    1
     7     7     6    1
     8     1     6    1
     9     1     2    1
    10     2     4    1
    11     2     3    2
    12     4     5    1
