@<TRIPOS>MOLECULE
/home/cewinharhar/GITHUB/reincatalyze/data/processed/docking_pred/2023-Apr-26-1657_maxeplen10_maxtrainstep1000_exh32_gamma099_lrac9e-4_lrcr1e-3/034cecc51265c6b10d0b2cc1c9f67b1ec6b5e3be_ligand_2.pdbqt
 12 12 0 0 0
SMALL
GASTEIGER

@<TRIPOS>ATOM
      1  C          8.4140   -0.6400   -2.0940 C.3     1  UNL1        0.1270
      2  C          8.3800   -1.8940   -2.8830 C.2     1  UNL1        0.3030
      3  O          7.2910   -2.4080   -3.2420 O.2     1  UNL1       -0.2520
      4  O          9.5530   -2.5370   -3.2460 O.3     1  UNL1       -0.4810
      5  H         10.4510   -2.0870   -3.0510 H       1  UNL1        0.2960
      6  C          7.0350   -0.0520   -2.0850 C.3     1  UNL1        0.0470
      7  C          6.4630    0.1020   -0.7490 C.2     1  UNL1       -0.0470
      8  C          5.8050    1.2570   -0.3950 C.2     1  UNL1        0.0040
      9  C          6.5880   -0.9250    0.1580 C.2     1  UNL1        0.0040
     10  C          5.2830    1.3340    0.8980 C.2     1  UNL1        0.0000
     11  C          6.0720   -0.8460    1.4360 C.2     1  UNL1        0.0000
     12  C          5.4110    0.3070    1.7990 C.2     1  UNL1        0.0000
@<TRIPOS>BOND
     1     4     5    1
     2     4     2    1
     3     3     2    2
     4     2     1    1
     5     1     6    1
     6     6     7    1
     7     7     8    2
     8     7     9    1
     9     8    10    1
    10     9    11    2
    11    10    12    2
    12    11    12    1
