@<TRIPOS>MOLECULE
/home/cewinharhar/GITHUB/reincatalyze/data/processed/docking_pred/2023-Apr-26-1657_maxeplen10_maxtrainstep1000_exh32_gamma099_lrac9e-4_lrcr1e-3/034cecc51265c6b10d0b2cc1c9f67b1ec6b5e3be_ligand_2.pdbqt
 12 12 0 0 0
SMALL
GASTEIGER

@<TRIPOS>ATOM
      1  C          8.4620   -0.6050   -2.1660 C.3     1  UNL1        0.1270
      2  C          8.4920   -1.8870   -2.9090 C.2     1  UNL1        0.3030
      3  O          9.5700   -2.5020   -3.1010 O.2     1  UNL1       -0.2520
      4  O          7.3270   -2.4420   -3.4150 O.3     1  UNL1       -0.4810
      5  H          7.2030   -3.4580   -3.3850 H       1  UNL1        0.2960
      6  C          7.0490   -0.1050   -2.1470 C.3     1  UNL1        0.0470
      7  C          6.4960    0.0620   -0.8040 C.2     1  UNL1       -0.0470
      8  C          6.6280   -0.9300    0.1390 C.2     1  UNL1        0.0040
      9  C          5.8390    1.2290   -0.4890 C.2     1  UNL1        0.0040
     10  C          6.0760   -0.7010    1.4020 C.2     1  UNL1        0.0000
     11  C          5.2940    1.4530    0.7590 C.2     1  UNL1        0.0000
     12  C          5.4210    0.4640    1.7100 C.2     1  UNL1        0.0000
@<TRIPOS>BOND
     1     4     5    1
     2     4     2    1
     3     3     2    2
     4     2     1    1
     5     1     6    1
     6     6     7    1
     7     7     9    2
     8     7     8    1
     9     9    11    1
    10     8    10    2
    11    11    12    2
    12    10    12    1
