@<TRIPOS>MOLECULE
/home/cewinharhar/GITHUB/reincatalyze/data/processed/docking_pred/2023-Apr-26-1657_maxeplen10_maxtrainstep1000_exh32_gamma099_lrac9e-4_lrcr1e-3/034cecc51265c6b10d0b2cc1c9f67b1ec6b5e3be_ligand_2.pdbqt
 12 12 0 0 0
SMALL
GASTEIGER

@<TRIPOS>ATOM
      1  C          8.2910    0.4150   -1.9510 C.3     1  UNL1        0.1270
      2  C          9.4750    0.4150   -1.0600 C.2     1  UNL1        0.3030
      3  O          9.5510   -0.3640   -0.0780 O.2     1  UNL1       -0.2520
      4  O         10.5340    1.2790   -1.2880 O.3     1  UNL1       -0.4810
      5  H         11.2310    1.0400   -2.0000 H       1  UNL1        0.2960
      6  C          7.2500   -0.4800   -1.3490 C.3     1  UNL1        0.0470
      7  C          6.4080    0.1760   -0.3500 C.2     1  UNL1       -0.0470
      8  C          5.8380    1.4010   -0.6060 C.2     1  UNL1        0.0040
      9  C          6.1880   -0.4480    0.8560 C.2     1  UNL1        0.0040
     10  C          5.0440    1.9680    0.3940 C.2     1  UNL1        0.0000
     11  C          5.4040    0.1140    1.8440 C.2     1  UNL1        0.0000
     12  C          4.8290    1.3410    1.5960 C.2     1  UNL1        0.0000
@<TRIPOS>BOND
     1     5     4    1
     2     1     6    1
     3     1     2    1
     4     6     7    1
     5     4     2    1
     6     2     3    2
     7     8     7    2
     8     8    10    1
     9     7     9    1
    10    10    12    2
    11     9    11    2
    12    12    11    1
