MODEL 1
REMARK VINA RESULT:      -7.3      0.000      0.000
REMARK SMILES O=C(O)CCc1ccccc1
REMARK SMILES IDX 4 1 2 2 1 3 3 4 5 6 6 7 7 8 11 9 8 10 10 11 9 12
REMARK H PARENT 3 5
REMARK Flexibility Score: inf
ROOT
ATOM      1  C   UNL     1       8.462  -0.605  -2.166  1.00  0.00     0.127 C 
ENDROOT
BRANCH   1   2
ATOM      2  C   UNL     1       8.492  -1.887  -2.909  1.00  0.00     0.303 C 
ATOM      3  O   UNL     1       9.570  -2.502  -3.101  1.00  0.00    -0.252 OA
BRANCH   2   4
ATOM      4  O   UNL     1       7.327  -2.442  -3.415  1.00  0.00    -0.481 OA
ATOM      5  H   UNL     1       7.203  -3.458  -3.385  1.00  0.00     0.296 HD
ENDBRANCH   2   4
ENDBRANCH   1   2
BRANCH   1   6
ATOM      6  C   UNL     1       7.049  -0.105  -2.147  1.00  0.00     0.047 C 
BRANCH   6   7
ATOM      7  C   UNL     1       6.496   0.062  -0.804  1.00  0.00    -0.047 A 
ATOM      8  C   UNL     1       6.628  -0.930   0.139  1.00  0.00     0.004 A 
ATOM      9  C   UNL     1       5.839   1.229  -0.489  1.00  0.00     0.004 A 
ATOM     10  C   UNL     1       6.076  -0.701   1.402  1.00  0.00     0.000 A 
ATOM     11  C   UNL     1       5.294   1.453   0.759  1.00  0.00     0.000 A 
ATOM     12  C   UNL     1       5.421   0.464   1.710  1.00  0.00     0.000 A 
ENDBRANCH   6   7
ENDBRANCH   1   6
TORSDOF 4
ENDMDL
MODEL 2
REMARK VINA RESULT:      -7.2      0.132      1.733
REMARK SMILES O=C(O)CCc1ccccc1
REMARK SMILES IDX 4 1 2 2 1 3 3 4 5 6 6 7 7 8 11 9 8 10 10 11 9 12
REMARK H PARENT 3 5
REMARK Flexibility Score: inf
ROOT
ATOM      1  C   UNL     1       8.414  -0.640  -2.094  1.00  0.00     0.127 C 
ENDROOT
BRANCH   1   2
ATOM      2  C   UNL     1       8.380  -1.894  -2.883  1.00  0.00     0.303 C 
ATOM      3  O   UNL     1       7.291  -2.408  -3.242  1.00  0.00    -0.252 OA
BRANCH   2   4
ATOM      4  O   UNL     1       9.553  -2.537  -3.246  1.00  0.00    -0.481 OA
ATOM      5  H   UNL     1      10.451  -2.087  -3.051  1.00  0.00     0.296 HD
ENDBRANCH   2   4
ENDBRANCH   1   2
BRANCH   1   6
ATOM      6  C   UNL     1       7.035  -0.052  -2.085  1.00  0.00     0.047 C 
BRANCH   6   7
ATOM      7  C   UNL     1       6.463   0.102  -0.749  1.00  0.00    -0.047 A 
ATOM      8  C   UNL     1       5.805   1.257  -0.395  1.00  0.00     0.004 A 
ATOM      9  C   UNL     1       6.588  -0.925   0.158  1.00  0.00     0.004 A 
ATOM     10  C   UNL     1       5.283   1.334   0.898  1.00  0.00     0.000 A 
ATOM     11  C   UNL     1       6.072  -0.846   1.436  1.00  0.00     0.000 A 
ATOM     12  C   UNL     1       5.411   0.307   1.799  1.00  0.00     0.000 A 
ENDBRANCH   6   7
ENDBRANCH   1   6
TORSDOF 4
ENDMDL
MODEL 3
REMARK VINA RESULT:      -6.7      3.375      5.069
REMARK SMILES O=C(O)CCc1ccccc1
REMARK SMILES IDX 4 1 2 2 1 3 3 4 5 6 6 7 7 8 11 9 8 10 10 11 9 12
REMARK H PARENT 3 5
REMARK Flexibility Score: inf
ROOT
ATOM      1  C   UNL     1       4.987   1.795   0.703  1.00  0.00     0.127 C 
ENDROOT
BRANCH   1   2
ATOM      2  C   UNL     1       4.478   1.114   1.917  1.00  0.00     0.303 C 
ATOM      3  O   UNL     1       5.141   0.211   2.483  1.00  0.00    -0.252 OA
BRANCH   2   4
ATOM      4  O   UNL     1       3.250   1.457   2.461  1.00  0.00    -0.481 OA
ATOM      5  H   UNL     1       2.778   0.799   3.087  1.00  0.00     0.296 HD
ENDBRANCH   2   4
ENDBRANCH   1   2
BRANCH   1   6
ATOM      6  C   UNL     1       6.484   1.788   0.753  1.00  0.00     0.047 C 
BRANCH   6   7
ATOM      7  C   UNL     1       7.111   1.039  -0.335  1.00  0.00    -0.047 A 
ATOM      8  C   UNL     1       6.383   0.144  -1.084  1.00  0.00     0.004 A 
ATOM      9  C   UNL     1       8.445   1.240  -0.608  1.00  0.00     0.004 A 
ATOM     10  C   UNL     1       7.046  -0.535  -2.108  1.00  0.00     0.000 A 
ATOM     11  C   UNL     1       9.099   0.568  -1.621  1.00  0.00     0.000 A 
ATOM     12  C   UNL     1       8.377  -0.331  -2.375  1.00  0.00     0.000 A 
ENDBRANCH   6   7
ENDBRANCH   1   6
TORSDOF 4
ENDMDL
MODEL 4
REMARK VINA RESULT:      -6.6      2.004      2.678
REMARK SMILES O=C(O)CCc1ccccc1
REMARK SMILES IDX 4 1 2 2 1 3 3 4 5 6 6 7 7 8 11 9 8 10 10 11 9 12
REMARK H PARENT 3 5
REMARK Flexibility Score: inf
ROOT
ATOM      1  C   UNL     1       8.291   0.415  -1.951  1.00  0.00     0.127 C 
ENDROOT
BRANCH   1   2
ATOM      2  C   UNL     1       9.475   0.415  -1.060  1.00  0.00     0.303 C 
ATOM      3  O   UNL     1       9.551  -0.364  -0.078  1.00  0.00    -0.252 OA
BRANCH   2   4
ATOM      4  O   UNL     1      10.534   1.279  -1.288  1.00  0.00    -0.481 OA
ATOM      5  H   UNL     1      11.231   1.040  -2.000  1.00  0.00     0.296 HD
ENDBRANCH   2   4
ENDBRANCH   1   2
BRANCH   1   6
ATOM      6  C   UNL     1       7.250  -0.480  -1.349  1.00  0.00     0.047 C 
BRANCH   6   7
ATOM      7  C   UNL     1       6.408   0.176  -0.350  1.00  0.00    -0.047 A 
ATOM      8  C   UNL     1       5.838   1.401  -0.606  1.00  0.00     0.004 A 
ATOM      9  C   UNL     1       6.188  -0.448   0.856  1.00  0.00     0.004 A 
ATOM     10  C   UNL     1       5.044   1.968   0.394  1.00  0.00     0.000 A 
ATOM     11  C   UNL     1       5.404   0.114   1.844  1.00  0.00     0.000 A 
ATOM     12  C   UNL     1       4.829   1.341   1.596  1.00  0.00     0.000 A 
ENDBRANCH   6   7
ENDBRANCH   1   6
TORSDOF 4
ENDMDL
MODEL 5
REMARK VINA RESULT:      -6.5      1.867      2.810
REMARK SMILES O=C(O)CCc1ccccc1
REMARK SMILES IDX 4 1 2 2 1 3 3 4 5 6 6 7 7 8 11 9 8 10 10 11 9 12
REMARK H PARENT 3 5
REMARK Flexibility Score: inf
ROOT
ATOM      1  C   UNL     1       8.236  -1.543   1.002  1.00  0.00     0.127 C 
ENDROOT
BRANCH   1   2
ATOM      2  C   UNL     1       8.491  -2.803   0.264  1.00  0.00     0.303 C 
ATOM      3  O   UNL     1       9.080  -3.769   0.809  1.00  0.00    -0.252 OA
BRANCH   2   4
ATOM      4  O   UNL     1       8.084  -2.949  -1.053  1.00  0.00    -0.481 OA
ATOM      5  H   UNL     1       7.166  -2.595  -1.336  1.00  0.00     0.296 HD
ENDBRANCH   2   4
ENDBRANCH   1   2
BRANCH   1   6
ATOM      6  C   UNL     1       6.761  -1.423   1.233  1.00  0.00     0.047 C 
BRANCH   6   7
ATOM      7  C   UNL     1       6.184  -0.168   0.753  1.00  0.00    -0.047 A 
ATOM      8  C   UNL     1       5.422   0.619   1.585  1.00  0.00     0.004 A 
ATOM      9  C   UNL     1       6.414   0.223  -0.545  1.00  0.00     0.004 A 
ATOM     10  C   UNL     1       4.904   1.805   1.060  1.00  0.00     0.000 A 
ATOM     11  C   UNL     1       5.901   1.396  -1.063  1.00  0.00     0.000 A 
ATOM     12  C   UNL     1       5.136   2.190  -0.236  1.00  0.00     0.000 A 
ENDBRANCH   6   7
ENDBRANCH   1   6
TORSDOF 4
ENDMDL
