MODEL 1
REMARK VINA RESULT:      -6.4      0.000      0.000
REMARK SMILES O=C(O)CCc1ccccc1
REMARK SMILES IDX 4 1 2 2 1 3 3 4 5 6 6 7 7 8 11 9 8 10 10 11 9 12
REMARK H PARENT 3 5
REMARK Flexibility Score: inf
ROOT
ATOM      1  C   UNL     1       8.398  -0.813  -2.039  1.00  0.00     0.127 C 
ENDROOT
BRANCH   1   2
ATOM      2  C   UNL     1       8.482  -2.022  -2.891  1.00  0.00     0.303 C 
ATOM      3  O   UNL     1       9.584  -2.575  -3.130  1.00  0.00    -0.252 OA
BRANCH   2   4
ATOM      4  O   UNL     1       7.342  -2.577  -3.451  1.00  0.00    -0.481 OA
ATOM      5  H   UNL     1       7.417  -3.093  -4.332  1.00  0.00     0.296 HD
ENDBRANCH   2   4
ENDBRANCH   1   2
BRANCH   1   6
ATOM      6  C   UNL     1       6.964  -0.602  -1.660  1.00  0.00     0.047 C 
BRANCH   6   7
ATOM      7  C   UNL     1       6.705  -0.713  -0.225  1.00  0.00    -0.047 A 
ATOM      8  C   UNL     1       7.270  -1.726   0.515  1.00  0.00     0.004 A 
ATOM      9  C   UNL     1       5.889   0.212   0.383  1.00  0.00     0.004 A 
ATOM     10  C   UNL     1       6.981  -1.770   1.880  1.00  0.00     0.000 A 
ATOM     11  C   UNL     1       5.603   0.166   1.733  1.00  0.00     0.000 A 
ATOM     12  C   UNL     1       6.164  -0.845   2.482  1.00  0.00     0.000 A 
ENDBRANCH   6   7
ENDBRANCH   1   6
TORSDOF 4
ENDMDL
MODEL 2
REMARK VINA RESULT:      -6.4      0.161      1.444
REMARK SMILES O=C(O)CCc1ccccc1
REMARK SMILES IDX 4 1 2 2 1 3 3 4 5 6 6 7 7 8 11 9 8 10 10 11 9 12
REMARK H PARENT 3 5
REMARK Flexibility Score: inf
ROOT
ATOM      1  C   UNL     1       8.294  -0.671  -2.192  1.00  0.00     0.127 C 
ENDROOT
BRANCH   1   2
ATOM      2  C   UNL     1       8.422  -1.942  -2.943  1.00  0.00     0.303 C 
ATOM      3  O   UNL     1       9.539  -2.488  -3.112  1.00  0.00    -0.252 OA
BRANCH   2   4
ATOM      4  O   UNL     1       7.306  -2.563  -3.482  1.00  0.00    -0.481 OA
ATOM      5  H   UNL     1       7.264  -2.730  -4.491  1.00  0.00     0.296 HD
ENDBRANCH   2   4
ENDBRANCH   1   2
BRANCH   1   6
ATOM      6  C   UNL     1       6.864  -0.513  -1.773  1.00  0.00     0.047 C 
BRANCH   6   7
ATOM      7  C   UNL     1       6.648  -0.648  -0.333  1.00  0.00    -0.047 A 
ATOM      8  C   UNL     1       5.844   0.239   0.343  1.00  0.00     0.004 A 
ATOM      9  C   UNL     1       7.259  -1.678   0.344  1.00  0.00     0.004 A 
ATOM     10  C   UNL     1       5.681   0.049   1.718  1.00  0.00     0.000 A 
ATOM     11  C   UNL     1       7.098  -1.864   1.702  1.00  0.00     0.000 A 
ATOM     12  C   UNL     1       6.294  -0.979   2.388  1.00  0.00     0.000 A 
ENDBRANCH   6   7
ENDBRANCH   1   6
TORSDOF 4
ENDMDL
MODEL 3
REMARK VINA RESULT:      -6.3      3.194      4.973
REMARK SMILES O=C(O)CCc1ccccc1
REMARK SMILES IDX 4 1 2 2 1 3 3 4 5 6 6 7 7 8 11 9 8 10 10 11 9 12
REMARK H PARENT 3 5
REMARK Flexibility Score: inf
ROOT
ATOM      1  C   UNL     1       5.912  -0.894   1.717  1.00  0.00     0.127 C 
ENDROOT
BRANCH   1   2
ATOM      2  C   UNL     1       5.362   0.445   2.036  1.00  0.00     0.303 C 
ATOM      3  O   UNL     1       4.194   0.581   2.477  1.00  0.00    -0.252 OA
BRANCH   2   4
ATOM      4  O   UNL     1       6.125   1.587   1.854  1.00  0.00    -0.481 OA
ATOM      5  H   UNL     1       7.033   1.662   2.322  1.00  0.00     0.296 HD
ENDBRANCH   2   4
ENDBRANCH   1   2
BRANCH   1   6
ATOM      6  C   UNL     1       7.377  -0.748   1.442  1.00  0.00     0.047 C 
BRANCH   6   7
ATOM      7  C   UNL     1       7.710  -0.659   0.021  1.00  0.00    -0.047 A 
ATOM      8  C   UNL     1       8.844  -0.001  -0.395  1.00  0.00     0.004 A 
ATOM      9  C   UNL     1       6.874  -1.243  -0.902  1.00  0.00     0.004 A 
ATOM     10  C   UNL     1       9.100   0.044  -1.767  1.00  0.00     0.000 A 
ATOM     11  C   UNL     1       7.129  -1.197  -2.258  1.00  0.00     0.000 A 
ATOM     12  C   UNL     1       8.262  -0.540  -2.684  1.00  0.00     0.000 A 
ENDBRANCH   6   7
ENDBRANCH   1   6
TORSDOF 4
ENDMDL
MODEL 4
REMARK VINA RESULT:      -6.3      3.199      4.988
REMARK SMILES O=C(O)CCc1ccccc1
REMARK SMILES IDX 4 1 2 2 1 3 3 4 5 6 6 7 7 8 11 9 8 10 10 11 9 12
REMARK H PARENT 3 5
REMARK Flexibility Score: inf
ROOT
ATOM      1  C   UNL     1       5.857  -0.903   1.749  1.00  0.00     0.127 C 
ENDROOT
BRANCH   1   2
ATOM      2  C   UNL     1       5.331   0.451   2.042  1.00  0.00     0.303 C 
ATOM      3  O   UNL     1       4.169   0.616   2.488  1.00  0.00    -0.252 OA
BRANCH   2   4
ATOM      4  O   UNL     1       6.111   1.577   1.830  1.00  0.00    -0.481 OA
ATOM      5  H   UNL     1       7.058   1.467   1.456  1.00  0.00     0.296 HD
ENDBRANCH   2   4
ENDBRANCH   1   2
BRANCH   1   6
ATOM      6  C   UNL     1       7.326  -0.788   1.475  1.00  0.00     0.047 C 
BRANCH   6   7
ATOM      7  C   UNL     1       7.660  -0.694   0.055  1.00  0.00    -0.047 A 
ATOM      8  C   UNL     1       6.852  -1.271  -0.898  1.00  0.00     0.004 A 
ATOM      9  C   UNL     1       8.797  -0.018  -0.324  1.00  0.00     0.004 A 
ATOM     10  C   UNL     1       7.233  -1.140  -2.235  1.00  0.00     0.000 A 
ATOM     11  C   UNL     1       9.172   0.109  -1.647  1.00  0.00     0.000 A 
ATOM     12  C   UNL     1       8.368  -0.466  -2.607  1.00  0.00     0.000 A 
ENDBRANCH   6   7
ENDBRANCH   1   6
TORSDOF 4
ENDMDL
MODEL 5
REMARK VINA RESULT:      -6.1      3.459      4.984
REMARK SMILES O=C(O)CCc1ccccc1
REMARK SMILES IDX 4 1 2 2 1 3 3 4 5 6 6 7 7 8 11 9 8 10 10 11 9 12
REMARK H PARENT 3 5
REMARK Flexibility Score: inf
ROOT
ATOM      1  C   UNL     1       5.094  -0.115   2.023  1.00  0.00     0.127 C 
ENDROOT
BRANCH   1   2
ATOM      2  C   UNL     1       4.412   1.201   1.991  1.00  0.00     0.303 C 
ATOM      3  O   UNL     1       4.932   2.189   1.415  1.00  0.00    -0.252 OA
BRANCH   2   4
ATOM      4  O   UNL     1       3.179   1.377   2.597  1.00  0.00    -0.481 OA
ATOM      5  H   UNL     1       2.355   0.917   2.200  1.00  0.00     0.296 HD
ENDBRANCH   2   4
ENDBRANCH   1   2
BRANCH   1   6
ATOM      6  C   UNL     1       6.544   0.099   1.712  1.00  0.00     0.047 C 
BRANCH   6   7
ATOM      7  C   UNL     1       7.031  -0.688   0.580  1.00  0.00    -0.047 A 
ATOM      8  C   UNL     1       7.839  -1.783   0.780  1.00  0.00     0.004 A 
ATOM      9  C   UNL     1       6.670  -0.322  -0.696  1.00  0.00     0.004 A 
ATOM     10  C   UNL     1       8.266  -2.488  -0.348  1.00  0.00     0.000 A 
ATOM     11  C   UNL     1       7.093  -1.020  -1.810  1.00  0.00     0.000 A 
ATOM     12  C   UNL     1       7.904  -2.118  -1.618  1.00  0.00     0.000 A 
ENDBRANCH   6   7
ENDBRANCH   1   6
TORSDOF 4
ENDMDL
