@<TRIPOS>MOLECULE
/home/cewinharhar/GITHUB/reincatalyze/data/processed/docking_pred/2023-Apr-26-1657_maxeplen10_maxtrainstep1000_exh32_gamma099_lrac9e-4_lrcr1e-3/035d1107efb5fe3e99d2a33353f0da4e413613a6_ligand_2.pdbqt
 12 12 0 0 0
SMALL
GASTEIGER

@<TRIPOS>ATOM
      1  C          5.9120   -0.8940    1.7170 C.3     1  UNL1        0.1270
      2  C          5.3620    0.4450    2.0360 C.2     1  UNL1        0.3030
      3  O          4.1940    0.5810    2.4770 O.2     1  UNL1       -0.2520
      4  O          6.1250    1.5870    1.8540 O.3     1  UNL1       -0.4810
      5  H          7.0330    1.6620    2.3220 H       1  UNL1        0.2960
      6  C          7.3770   -0.7480    1.4420 C.3     1  UNL1        0.0470
      7  C          7.7100   -0.6590    0.0210 C.2     1  UNL1       -0.0470
      8  C          8.8440   -0.0010   -0.3950 C.2     1  UNL1        0.0040
      9  C          6.8740   -1.2430   -0.9020 C.2     1  UNL1        0.0040
     10  C          9.1000    0.0440   -1.7670 C.2     1  UNL1        0.0000
     11  C          7.1290   -1.1970   -2.2580 C.2     1  UNL1        0.0000
     12  C          8.2620   -0.5400   -2.6840 C.2     1  UNL1        0.0000
@<TRIPOS>BOND
     1    12    11    2
     2    12    10    1
     3    11     9    1
     4    10     8    2
     5     9     7    2
     6     8     7    1
     7     7     6    1
     8     6     1    1
     9     1     2    1
    10     4     2    1
    11     4     5    1
    12     2     3    2
