@<TRIPOS>MOLECULE
/home/cewinharhar/GITHUB/reincatalyze/data/processed/docking_pred/2023-Apr-26-1657_maxeplen10_maxtrainstep1000_exh32_gamma099_lrac9e-4_lrcr1e-3/035d1107efb5fe3e99d2a33353f0da4e413613a6_ligand_2.pdbqt
 12 12 0 0 0
SMALL
GASTEIGER

@<TRIPOS>ATOM
      1  C          8.3980   -0.8130   -2.0390 C.3     1  UNL1        0.1270
      2  C          8.4820   -2.0220   -2.8910 C.2     1  UNL1        0.3030
      3  O          9.5840   -2.5750   -3.1300 O.2     1  UNL1       -0.2520
      4  O          7.3420   -2.5770   -3.4510 O.3     1  UNL1       -0.4810
      5  H          7.4170   -3.0930   -4.3320 H       1  UNL1        0.2960
      6  C          6.9640   -0.6020   -1.6600 C.3     1  UNL1        0.0470
      7  C          6.7050   -0.7130   -0.2250 C.2     1  UNL1       -0.0470
      8  C          7.2700   -1.7260    0.5150 C.2     1  UNL1        0.0040
      9  C          5.8890    0.2120    0.3830 C.2     1  UNL1        0.0040
     10  C          6.9810   -1.7700    1.8800 C.2     1  UNL1        0.0000
     11  C          5.6030    0.1660    1.7330 C.2     1  UNL1        0.0000
     12  C          6.1640   -0.8450    2.4820 C.2     1  UNL1        0.0000
@<TRIPOS>BOND
     1     5     4    1
     2     4     2    1
     3     3     2    2
     4     2     1    1
     5     1     6    1
     6     6     7    1
     7     7     9    2
     8     7     8    1
     9     9    11    1
    10     8    10    2
    11    11    12    2
    12    10    12    1
