@<TRIPOS>MOLECULE
/home/cewinharhar/GITHUB/reincatalyze/data/processed/docking_pred/2023-Apr-26-1657_maxeplen10_maxtrainstep1000_exh32_gamma099_lrac9e-4_lrcr1e-3/035d1107efb5fe3e99d2a33353f0da4e413613a6_ligand_2.pdbqt
 12 12 0 0 0
SMALL
GASTEIGER

@<TRIPOS>ATOM
      1  C          8.2940   -0.6710   -2.1920 C.3     1  UNL1        0.1270
      2  C          8.4220   -1.9420   -2.9430 C.2     1  UNL1        0.3030
      3  O          9.5390   -2.4880   -3.1120 O.2     1  UNL1       -0.2520
      4  O          7.3060   -2.5630   -3.4820 O.3     1  UNL1       -0.4810
      5  H          7.2640   -2.7300   -4.4910 H       1  UNL1        0.2960
      6  C          6.8640   -0.5130   -1.7730 C.3     1  UNL1        0.0470
      7  C          6.6480   -0.6480   -0.3330 C.2     1  UNL1       -0.0470
      8  C          5.8440    0.2390    0.3430 C.2     1  UNL1        0.0040
      9  C          7.2590   -1.6780    0.3440 C.2     1  UNL1        0.0040
     10  C          5.6810    0.0490    1.7180 C.2     1  UNL1        0.0000
     11  C          7.0980   -1.8640    1.7020 C.2     1  UNL1        0.0000
     12  C          6.2940   -0.9790    2.3880 C.2     1  UNL1        0.0000
@<TRIPOS>BOND
     1     5     4    1
     2     4     2    1
     3     3     2    2
     4     2     1    1
     5     1     6    1
     6     6     7    1
     7     7     8    2
     8     7     9    1
     9     8    10    1
    10     9    11    2
    11    11    12    1
    12    10    12    2
