@<TRIPOS>MOLECULE
/home/cewinharhar/GITHUB/reincatalyze/data/processed/docking_pred/2023-Apr-26-1657_maxeplen10_maxtrainstep1000_exh32_gamma099_lrac9e-4_lrcr1e-3/035d1107efb5fe3e99d2a33353f0da4e413613a6_ligand_2.pdbqt
 12 12 0 0 0
SMALL
GASTEIGER

@<TRIPOS>ATOM
      1  C          5.0940   -0.1150    2.0230 C.3     1  UNL1        0.1270
      2  C          4.4120    1.2010    1.9910 C.2     1  UNL1        0.3030
      3  O          4.9320    2.1890    1.4150 O.2     1  UNL1       -0.2520
      4  O          3.1790    1.3770    2.5970 O.3     1  UNL1       -0.4810
      5  H          2.3550    0.9170    2.2000 H       1  UNL1        0.2960
      6  C          6.5440    0.0990    1.7120 C.3     1  UNL1        0.0470
      7  C          7.0310   -0.6880    0.5800 C.2     1  UNL1       -0.0470
      8  C          7.8390   -1.7830    0.7800 C.2     1  UNL1        0.0040
      9  C          6.6700   -0.3220   -0.6960 C.2     1  UNL1        0.0040
     10  C          8.2660   -2.4880   -0.3480 C.2     1  UNL1        0.0000
     11  C          7.0930   -1.0200   -1.8100 C.2     1  UNL1        0.0000
     12  C          7.9040   -2.1180   -1.6180 C.2     1  UNL1        0.0000
@<TRIPOS>BOND
     1    11    12    2
     2    11     9    1
     3    12    10    1
     4     9     7    2
     5    10     8    2
     6     7     8    1
     7     7     6    1
     8     3     2    2
     9     6     1    1
    10     2     1    1
    11     2     4    1
    12     5     4    1
