@<TRIPOS>MOLECULE
/home/cewinharhar/GITHUB/reincatalyze/data/processed/docking_pred/2023-Apr-26-1657_maxeplen10_maxtrainstep1000_exh32_gamma099_lrac9e-4_lrcr1e-3/035d1107efb5fe3e99d2a33353f0da4e413613a6_ligand_2.pdbqt
 12 12 0 0 0
SMALL
GASTEIGER

@<TRIPOS>ATOM
      1  C          5.8570   -0.9030    1.7490 C.3     1  UNL1        0.1270
      2  C          5.3310    0.4510    2.0420 C.2     1  UNL1        0.3030
      3  O          4.1690    0.6160    2.4880 O.2     1  UNL1       -0.2520
      4  O          6.1110    1.5770    1.8300 O.3     1  UNL1       -0.4810
      5  H          7.0580    1.4670    1.4560 H       1  UNL1        0.2960
      6  C          7.3260   -0.7880    1.4750 C.3     1  UNL1        0.0470
      7  C          7.6600   -0.6940    0.0550 C.2     1  UNL1       -0.0470
      8  C          6.8520   -1.2710   -0.8980 C.2     1  UNL1        0.0040
      9  C          8.7970   -0.0180   -0.3240 C.2     1  UNL1        0.0040
     10  C          7.2330   -1.1400   -2.2350 C.2     1  UNL1        0.0000
     11  C          9.1720    0.1090   -1.6470 C.2     1  UNL1        0.0000
     12  C          8.3680   -0.4660   -2.6070 C.2     1  UNL1        0.0000
@<TRIPOS>BOND
     1    12    10    2
     2    12    11    1
     3    10     8    1
     4    11     9    2
     5     8     7    2
     6     9     7    1
     7     7     6    1
     8     5     4    1
     9     6     1    1
    10     1     2    1
    11     4     2    1
    12     2     3    2
