@<TRIPOS>MOLECULE
/home/cewinharhar/GITHUB/reincatalyze/data/processed/docking_pred/2023-Apr-26-1657_maxeplen10_maxtrainstep1000_exh32_gamma099_lrac9e-4_lrcr1e-3/04093ca98f76925b46d8e425639cb467aa73d951_ligand_2.pdbqt
 12 12 0 0 0
SMALL
GASTEIGER

@<TRIPOS>ATOM
      1  C          8.4900   -0.6380   -2.1510 C.3     1  UNL1        0.1270
      2  C          8.5010   -1.9110   -2.9100 C.2     1  UNL1        0.3030
      3  O          9.5730   -2.5270   -3.1320 O.2     1  UNL1       -0.2520
      4  O          7.3250   -2.4570   -3.3980 O.3     1  UNL1       -0.4810
      5  H          7.1080   -3.4370   -3.1980 H       1  UNL1        0.2960
      6  C          7.0920   -0.1000   -2.1550 C.3     1  UNL1        0.0470
      7  C          6.5200    0.0780   -0.8210 C.2     1  UNL1       -0.0470
      8  C          6.6690   -0.8920    0.1430 C.2     1  UNL1        0.0040
      9  C          5.8300    1.2330   -0.5350 C.2     1  UNL1        0.0040
     10  C          6.0970   -0.6550    1.3950 C.2     1  UNL1        0.0000
     11  C          5.2650    1.4660    0.7030 C.2     1  UNL1        0.0000
     12  C          5.4090    0.4990    1.6740 C.2     1  UNL1        0.0000
@<TRIPOS>BOND
     1     4     5    1
     2     4     2    1
     3     3     2    2
     4     2     1    1
     5     6     1    1
     6     6     7    1
     7     7     9    2
     8     7     8    1
     9     9    11    1
    10     8    10    2
    11    11    12    2
    12    10    12    1
