@<TRIPOS>MOLECULE
/home/cewinharhar/GITHUB/reincatalyze/data/processed/docking_pred/2023-Apr-26-1657_maxeplen10_maxtrainstep1000_exh32_gamma099_lrac9e-4_lrcr1e-3/04093ca98f76925b46d8e425639cb467aa73d951_ligand_2.pdbqt
 12 12 0 0 0
SMALL
GASTEIGER

@<TRIPOS>ATOM
      1  C          8.4720   -0.6520   -2.0980 C.3     1  UNL1        0.1270
      2  C          8.4860   -1.9010   -2.8940 C.2     1  UNL1        0.3030
      3  O          9.5560   -2.5200   -3.1150 O.2     1  UNL1       -0.2520
      4  O          7.3140   -2.4220   -3.4180 O.3     1  UNL1       -0.4810
      5  H          7.3400   -3.3210   -3.9070 H       1  UNL1        0.2960
      6  C          7.0760   -0.1080   -2.0990 C.3     1  UNL1        0.0470
      7  C          6.5030    0.0610   -0.7650 C.2     1  UNL1       -0.0470
      8  C          5.8480    1.2210   -0.4220 C.2     1  UNL1        0.0040
      9  C          6.6230   -0.9590    0.1510 C.2     1  UNL1        0.0040
     10  C          5.3240    1.3120    0.8690 C.2     1  UNL1        0.0000
     11  C          6.1050   -0.8660    1.4280 C.2     1  UNL1        0.0000
     12  C          5.4480    0.2930    1.7790 C.2     1  UNL1        0.0000
@<TRIPOS>BOND
     1     5     4    1
     2     4     2    1
     3     3     2    2
     4     2     1    1
     5     6     1    1
     6     6     7    1
     7     7     8    2
     8     7     9    1
     9     8    10    1
    10     9    11    2
    11    10    12    2
    12    11    12    1
