@<TRIPOS>MOLECULE
/home/cewinharhar/GITHUB/reincatalyze/data/processed/docking_pred/2023-Apr-26-1657_maxeplen10_maxtrainstep1000_exh32_gamma099_lrac9e-4_lrcr1e-3/04093ca98f76925b46d8e425639cb467aa73d951_ligand_2.pdbqt
 12 12 0 0 0
SMALL
GASTEIGER

@<TRIPOS>ATOM
      1  C          5.0600    1.7220    0.7200 C.3     1  UNL1        0.1270
      2  C          4.6010    1.0130    1.9380 C.2     1  UNL1        0.3030
      3  O          5.3130    0.1370    2.4890 O.2     1  UNL1       -0.2520
      4  O          3.3700    1.3000    2.5050 O.3     1  UNL1       -0.4810
      5  H          2.8620    2.1360    2.2040 H       1  UNL1        0.2960
      6  C          6.5580    1.7440    0.7250 C.3     1  UNL1        0.0470
      7  C          7.1670    0.9800   -0.3620 C.2     1  UNL1       -0.0470
      8  C          6.4300    0.0680   -1.0810 C.2     1  UNL1        0.0040
      9  C          8.4940    1.1840   -0.6650 C.2     1  UNL1        0.0040
     10  C          7.0770   -0.6260   -2.1060 C.2     1  UNL1        0.0000
     11  C          9.1320    0.4970   -1.6790 C.2     1  UNL1        0.0000
     12  C          8.4000   -0.4190   -2.4030 C.2     1  UNL1        0.0000
@<TRIPOS>BOND
     1    12    10    2
     2    12    11    1
     3    10     8    1
     4    11     9    2
     5     8     7    2
     6     9     7    1
     7     7     6    1
     8     1     6    1
     9     1     2    1
    10     2     3    2
    11     2     4    1
    12     5     4    1
