MODEL 1
REMARK VINA RESULT:      -7.4      0.000      0.000
REMARK SMILES O=C(O)CCc1ccccc1
REMARK SMILES IDX 4 1 2 2 1 3 3 4 5 6 6 7 7 8 11 9 8 10 10 11 9 12
REMARK H PARENT 3 5
REMARK Flexibility Score: inf
ROOT
ATOM      1  C   UNL     1       8.490  -0.638  -2.151  1.00  0.00     0.127 C 
ENDROOT
BRANCH   1   2
ATOM      2  C   UNL     1       8.501  -1.911  -2.910  1.00  0.00     0.303 C 
ATOM      3  O   UNL     1       9.573  -2.527  -3.132  1.00  0.00    -0.252 OA
BRANCH   2   4
ATOM      4  O   UNL     1       7.325  -2.457  -3.398  1.00  0.00    -0.481 OA
ATOM      5  H   UNL     1       7.108  -3.437  -3.198  1.00  0.00     0.296 HD
ENDBRANCH   2   4
ENDBRANCH   1   2
BRANCH   1   6
ATOM      6  C   UNL     1       7.092  -0.100  -2.155  1.00  0.00     0.047 C 
BRANCH   6   7
ATOM      7  C   UNL     1       6.520   0.078  -0.821  1.00  0.00    -0.047 A 
ATOM      8  C   UNL     1       6.669  -0.892   0.143  1.00  0.00     0.004 A 
ATOM      9  C   UNL     1       5.830   1.233  -0.535  1.00  0.00     0.004 A 
ATOM     10  C   UNL     1       6.097  -0.655   1.395  1.00  0.00     0.000 A 
ATOM     11  C   UNL     1       5.265   1.466   0.703  1.00  0.00     0.000 A 
ATOM     12  C   UNL     1       5.409   0.499   1.674  1.00  0.00     0.000 A 
ENDBRANCH   6   7
ENDBRANCH   1   6
TORSDOF 4
ENDMDL
MODEL 2
REMARK VINA RESULT:      -7.3      0.131      1.441
REMARK SMILES O=C(O)CCc1ccccc1
REMARK SMILES IDX 4 1 2 2 1 3 3 4 5 6 6 7 7 8 11 9 8 10 10 11 9 12
REMARK H PARENT 3 5
REMARK Flexibility Score: inf
ROOT
ATOM      1  C   UNL     1       8.472  -0.652  -2.098  1.00  0.00     0.127 C 
ENDROOT
BRANCH   1   2
ATOM      2  C   UNL     1       8.486  -1.901  -2.894  1.00  0.00     0.303 C 
ATOM      3  O   UNL     1       9.556  -2.520  -3.115  1.00  0.00    -0.252 OA
BRANCH   2   4
ATOM      4  O   UNL     1       7.314  -2.422  -3.418  1.00  0.00    -0.481 OA
ATOM      5  H   UNL     1       7.340  -3.321  -3.907  1.00  0.00     0.296 HD
ENDBRANCH   2   4
ENDBRANCH   1   2
BRANCH   1   6
ATOM      6  C   UNL     1       7.076  -0.108  -2.099  1.00  0.00     0.047 C 
BRANCH   6   7
ATOM      7  C   UNL     1       6.503   0.061  -0.765  1.00  0.00    -0.047 A 
ATOM      8  C   UNL     1       5.848   1.221  -0.422  1.00  0.00     0.004 A 
ATOM      9  C   UNL     1       6.623  -0.959   0.151  1.00  0.00     0.004 A 
ATOM     10  C   UNL     1       5.324   1.312   0.869  1.00  0.00     0.000 A 
ATOM     11  C   UNL     1       6.105  -0.866   1.428  1.00  0.00     0.000 A 
ATOM     12  C   UNL     1       5.448   0.293   1.779  1.00  0.00     0.000 A 
ENDBRANCH   6   7
ENDBRANCH   1   6
TORSDOF 4
ENDMDL
MODEL 3
REMARK VINA RESULT:      -6.7      3.328      5.032
REMARK SMILES O=C(O)CCc1ccccc1
REMARK SMILES IDX 4 1 2 2 1 3 3 4 5 6 6 7 7 8 11 9 8 10 10 11 9 12
REMARK H PARENT 3 5
REMARK Flexibility Score: inf
ROOT
ATOM      1  C   UNL     1       5.060   1.722   0.720  1.00  0.00     0.127 C 
ENDROOT
BRANCH   1   2
ATOM      2  C   UNL     1       4.601   1.013   1.938  1.00  0.00     0.303 C 
ATOM      3  O   UNL     1       5.313   0.137   2.489  1.00  0.00    -0.252 OA
BRANCH   2   4
ATOM      4  O   UNL     1       3.370   1.300   2.505  1.00  0.00    -0.481 OA
ATOM      5  H   UNL     1       2.862   2.136   2.204  1.00  0.00     0.296 HD
ENDBRANCH   2   4
ENDBRANCH   1   2
BRANCH   1   6
ATOM      6  C   UNL     1       6.558   1.744   0.725  1.00  0.00     0.047 C 
BRANCH   6   7
ATOM      7  C   UNL     1       7.167   0.980  -0.362  1.00  0.00    -0.047 A 
ATOM      8  C   UNL     1       6.430   0.068  -1.081  1.00  0.00     0.004 A 
ATOM      9  C   UNL     1       8.494   1.184  -0.665  1.00  0.00     0.004 A 
ATOM     10  C   UNL     1       7.077  -0.626  -2.106  1.00  0.00     0.000 A 
ATOM     11  C   UNL     1       9.132   0.497  -1.679  1.00  0.00     0.000 A 
ATOM     12  C   UNL     1       8.400  -0.419  -2.403  1.00  0.00     0.000 A 
ENDBRANCH   6   7
ENDBRANCH   1   6
TORSDOF 4
ENDMDL
MODEL 4
REMARK VINA RESULT:      -6.7      3.845      4.932
REMARK SMILES O=C(O)CCc1ccccc1
REMARK SMILES IDX 4 1 2 2 1 3 3 4 5 6 6 7 7 8 11 9 8 10 10 11 9 12
REMARK H PARENT 3 5
REMARK Flexibility Score: inf
ROOT
ATOM      1  C   UNL     1       5.490   2.841  -0.061  1.00  0.00     0.127 C 
ENDROOT
BRANCH   1   2
ATOM      2  C   UNL     1       6.232   3.829   0.757  1.00  0.00     0.303 C 
ATOM      3  O   UNL     1       6.864   4.773   0.222  1.00  0.00    -0.252 OA
BRANCH   2   4
ATOM      4  O   UNL     1       6.250   3.736   2.140  1.00  0.00    -0.481 OA
ATOM      5  H   UNL     1       6.630   4.512   2.689  1.00  0.00     0.296 HD
ENDBRANCH   2   4
ENDBRANCH   1   2
BRANCH   1   6
ATOM      6  C   UNL     1       4.931   1.795   0.856  1.00  0.00     0.047 C 
BRANCH   6   7
ATOM      7  C   UNL     1       5.748   0.586   0.945  1.00  0.00    -0.047 A 
ATOM      8  C   UNL     1       5.670  -0.235   2.046  1.00  0.00     0.004 A 
ATOM      9  C   UNL     1       6.599   0.272  -0.089  1.00  0.00     0.004 A 
ATOM     10  C   UNL     1       6.478  -1.374   2.064  1.00  0.00     0.000 A 
ATOM     11  C   UNL     1       7.397  -0.854  -0.070  1.00  0.00     0.000 A 
ATOM     12  C   UNL     1       7.326  -1.681   1.030  1.00  0.00     0.000 A 
ENDBRANCH   6   7
ENDBRANCH   1   6
TORSDOF 4
ENDMDL
MODEL 5
REMARK VINA RESULT:      -6.6      1.934      2.634
REMARK SMILES O=C(O)CCc1ccccc1
REMARK SMILES IDX 4 1 2 2 1 3 3 4 5 6 6 7 7 8 11 9 8 10 10 11 9 12
REMARK H PARENT 3 5
REMARK Flexibility Score: inf
ROOT
ATOM      1  C   UNL     1       8.260   0.155  -2.176  1.00  0.00     0.127 C 
ENDROOT
BRANCH   1   2
ATOM      2  C   UNL     1       9.381   0.336  -1.223  1.00  0.00     0.303 C 
ATOM      3  O   UNL     1       9.488  -0.384  -0.200  1.00  0.00    -0.252 OA
BRANCH   2   4
ATOM      4  O   UNL     1      10.344   1.309  -1.436  1.00  0.00    -0.481 OA
ATOM      5  H   UNL     1      11.324   1.031  -1.533  1.00  0.00     0.296 HD
ENDBRANCH   2   4
ENDBRANCH   1   2
BRANCH   1   6
ATOM      6  C   UNL     1       7.168  -0.598  -1.480  1.00  0.00     0.047 C 
BRANCH   6   7
ATOM      7  C   UNL     1       6.370   0.220  -0.567  1.00  0.00    -0.047 A 
ATOM      8  C   UNL     1       5.850   1.426  -0.976  1.00  0.00     0.004 A 
ATOM      9  C   UNL     1       6.140  -0.232   0.712  1.00  0.00     0.004 A 
ATOM     10  C   UNL     1       5.097   2.153  -0.051  1.00  0.00     0.000 A 
ATOM     11  C   UNL     1       5.396   0.489   1.625  1.00  0.00     0.000 A 
ATOM     12  C   UNL     1       4.872   1.699   1.224  1.00  0.00     0.000 A 
ENDBRANCH   6   7
ENDBRANCH   1   6
TORSDOF 4
ENDMDL
