@<TRIPOS>MOLECULE
/home/cewinharhar/GITHUB/reincatalyze/data/processed/docking_pred/2023-Apr-26-1657_maxeplen10_maxtrainstep1000_exh32_gamma099_lrac9e-4_lrcr1e-3/04093ca98f76925b46d8e425639cb467aa73d951_ligand_2.pdbqt
 12 12 0 0 0
SMALL
GASTEIGER

@<TRIPOS>ATOM
      1  C          8.2600    0.1550   -2.1760 C.3     1  UNL1        0.1270
      2  C          9.3810    0.3360   -1.2230 C.2     1  UNL1        0.3030
      3  O          9.4880   -0.3840   -0.2000 O.2     1  UNL1       -0.2520
      4  O         10.3440    1.3090   -1.4360 O.3     1  UNL1       -0.4810
      5  H         11.3240    1.0310   -1.5330 H       1  UNL1        0.2960
      6  C          7.1680   -0.5980   -1.4800 C.3     1  UNL1        0.0470
      7  C          6.3700    0.2200   -0.5670 C.2     1  UNL1       -0.0470
      8  C          5.8500    1.4260   -0.9760 C.2     1  UNL1        0.0040
      9  C          6.1400   -0.2320    0.7120 C.2     1  UNL1        0.0040
     10  C          5.0970    2.1530   -0.0510 C.2     1  UNL1        0.0000
     11  C          5.3960    0.4890    1.6250 C.2     1  UNL1        0.0000
     12  C          4.8720    1.6990    1.2240 C.2     1  UNL1        0.0000
@<TRIPOS>BOND
     1     1     6    1
     2     1     2    1
     3     5     4    1
     4     6     7    1
     5     4     2    1
     6     2     3    2
     7     8     7    2
     8     8    10    1
     9     7     9    1
    10    10    12    2
    11     9    11    2
    12    12    11    1
