@<TRIPOS>MOLECULE
/home/cewinharhar/GITHUB/reincatalyze/data/processed/docking_pred/2023-Apr-26-1657_maxeplen10_maxtrainstep1000_exh32_gamma099_lrac9e-4_lrcr1e-3/04093ca98f76925b46d8e425639cb467aa73d951_ligand_2.pdbqt
 12 12 0 0 0
SMALL
GASTEIGER

@<TRIPOS>ATOM
      1  C          5.4900    2.8410   -0.0610 C.3     1  UNL1        0.1270
      2  C          6.2320    3.8290    0.7570 C.2     1  UNL1        0.3030
      3  O          6.8640    4.7730    0.2220 O.2     1  UNL1       -0.2520
      4  O          6.2500    3.7360    2.1400 O.3     1  UNL1       -0.4810
      5  H          6.6300    4.5120    2.6890 H       1  UNL1        0.2960
      6  C          4.9310    1.7950    0.8560 C.3     1  UNL1        0.0470
      7  C          5.7480    0.5860    0.9450 C.2     1  UNL1       -0.0470
      8  C          5.6700   -0.2350    2.0460 C.2     1  UNL1        0.0040
      9  C          6.5990    0.2720   -0.0890 C.2     1  UNL1        0.0040
     10  C          6.4780   -1.3740    2.0640 C.2     1  UNL1        0.0000
     11  C          7.3970   -0.8540   -0.0700 C.2     1  UNL1        0.0000
     12  C          7.3260   -1.6810    1.0300 C.2     1  UNL1        0.0000
@<TRIPOS>BOND
     1     9    11    1
     2     9     7    2
     3    11    12    2
     4     1     2    1
     5     1     6    1
     6     3     2    2
     7     2     4    1
     8     6     7    1
     9     7     8    1
    10    12    10    1
    11     8    10    2
    12     4     5    1
