MODEL 1
REMARK VINA RESULT:      -7.3      0.000      0.000
REMARK SMILES O=C(O)CCc1ccccc1
REMARK SMILES IDX 4 1 2 2 1 3 3 4 5 6 6 7 7 8 11 9 8 10 10 11 9 12
REMARK H PARENT 3 5
REMARK Flexibility Score: inf
ROOT
ATOM      1  C   UNL     1       8.421  -0.636  -2.140  1.00  0.00     0.127 C 
ENDROOT
BRANCH   1   2
ATOM      2  C   UNL     1       8.465  -1.911  -2.896  1.00  0.00     0.303 C 
ATOM      3  O   UNL     1       9.548  -2.516  -3.088  1.00  0.00    -0.252 OA
BRANCH   2   4
ATOM      4  O   UNL     1       7.307  -2.470  -3.412  1.00  0.00    -0.481 OA
ATOM      5  H   UNL     1       6.775  -1.956  -4.119  1.00  0.00     0.296 HD
ENDBRANCH   2   4
ENDBRANCH   1   2
BRANCH   1   6
ATOM      6  C   UNL     1       7.004  -0.151  -2.118  1.00  0.00     0.047 C 
BRANCH   6   7
ATOM      7  C   UNL     1       6.461   0.040  -0.774  1.00  0.00    -0.047 A 
ATOM      8  C   UNL     1       5.841   1.217  -0.426  1.00  0.00     0.004 A 
ATOM      9  C   UNL     1       6.575  -0.977   0.146  1.00  0.00     0.004 A 
ATOM     10  C   UNL     1       5.345   1.329   0.875  1.00  0.00     0.000 A 
ATOM     11  C   UNL     1       6.085  -0.865   1.431  1.00  0.00     0.000 A 
ATOM     12  C   UNL     1       5.463   0.312   1.788  1.00  0.00     0.000 A 
ENDBRANCH   6   7
ENDBRANCH   1   6
TORSDOF 4
ENDMDL
MODEL 2
REMARK VINA RESULT:      -7.3      0.114      1.732
REMARK SMILES O=C(O)CCc1ccccc1
REMARK SMILES IDX 4 1 2 2 1 3 3 4 5 6 6 7 7 8 11 9 8 10 10 11 9 12
REMARK H PARENT 3 5
REMARK Flexibility Score: inf
ROOT
ATOM      1  C   UNL     1       8.409  -0.627  -2.132  1.00  0.00     0.127 C 
ENDROOT
BRANCH   1   2
ATOM      2  C   UNL     1       8.381  -1.895  -2.899  1.00  0.00     0.303 C 
ATOM      3  O   UNL     1       7.294  -2.420  -3.248  1.00  0.00    -0.252 OA
BRANCH   2   4
ATOM      4  O   UNL     1       9.556  -2.537  -3.253  1.00  0.00    -0.481 OA
ATOM      5  H   UNL     1      10.180  -2.099  -3.937  1.00  0.00     0.296 HD
ENDBRANCH   2   4
ENDBRANCH   1   2
BRANCH   1   6
ATOM      6  C   UNL     1       7.021  -0.064  -2.102  1.00  0.00     0.047 C 
BRANCH   6   7
ATOM      7  C   UNL     1       6.468   0.081  -0.756  1.00  0.00    -0.047 A 
ATOM      8  C   UNL     1       6.586  -0.933   0.166  1.00  0.00     0.004 A 
ATOM      9  C   UNL     1       5.825   1.249  -0.417  1.00  0.00     0.004 A 
ATOM     10  C   UNL     1       6.035  -0.726   1.432  1.00  0.00     0.000 A 
ATOM     11  C   UNL     1       5.280   1.452   0.836  1.00  0.00     0.000 A 
ATOM     12  C   UNL     1       5.394   0.440   1.765  1.00  0.00     0.000 A 
ENDBRANCH   6   7
ENDBRANCH   1   6
TORSDOF 4
ENDMDL
MODEL 3
REMARK VINA RESULT:      -6.8      3.384      5.089
REMARK SMILES O=C(O)CCc1ccccc1
REMARK SMILES IDX 4 1 2 2 1 3 3 4 5 6 6 7 7 8 11 9 8 10 10 11 9 12
REMARK H PARENT 3 5
REMARK Flexibility Score: inf
ROOT
ATOM      1  C   UNL     1       4.995   1.792   0.704  1.00  0.00     0.127 C 
ENDROOT
BRANCH   1   2
ATOM      2  C   UNL     1       4.480   1.112   1.915  1.00  0.00     0.303 C 
ATOM      3  O   UNL     1       5.139   0.205   2.482  1.00  0.00    -0.252 OA
BRANCH   2   4
ATOM      4  O   UNL     1       3.253   1.459   2.458  1.00  0.00    -0.481 OA
ATOM      5  H   UNL     1       2.775   2.298   2.118  1.00  0.00     0.296 HD
ENDBRANCH   2   4
ENDBRANCH   1   2
BRANCH   1   6
ATOM      6  C   UNL     1       6.492   1.775   0.754  1.00  0.00     0.047 C 
BRANCH   6   7
ATOM      7  C   UNL     1       7.115   1.026  -0.336  1.00  0.00    -0.047 A 
ATOM      8  C   UNL     1       6.387   0.121  -1.073  1.00  0.00     0.004 A 
ATOM      9  C   UNL     1       8.444   1.237  -0.622  1.00  0.00     0.004 A 
ATOM     10  C   UNL     1       7.047  -0.558  -2.101  1.00  0.00     0.000 A 
ATOM     11  C   UNL     1       9.095   0.564  -1.637  1.00  0.00     0.000 A 
ATOM     12  C   UNL     1       8.373  -0.345  -2.380  1.00  0.00     0.000 A 
ENDBRANCH   6   7
ENDBRANCH   1   6
TORSDOF 4
ENDMDL
MODEL 4
REMARK VINA RESULT:      -6.7      3.831      4.916
REMARK SMILES O=C(O)CCc1ccccc1
REMARK SMILES IDX 4 1 2 2 1 3 3 4 5 6 6 7 7 8 11 9 8 10 10 11 9 12
REMARK H PARENT 3 5
REMARK Flexibility Score: inf
ROOT
ATOM      1  C   UNL     1       5.462   2.887  -0.024  1.00  0.00     0.127 C 
ENDROOT
BRANCH   1   2
ATOM      2  C   UNL     1       6.235   3.860   0.783  1.00  0.00     0.303 C 
ATOM      3  O   UNL     1       6.901   4.775   0.237  1.00  0.00    -0.252 OA
BRANCH   2   4
ATOM      4  O   UNL     1       6.245   3.787   2.167  1.00  0.00    -0.481 OA
ATOM      5  H   UNL     1       5.582   4.353   2.703  1.00  0.00     0.296 HD
ENDBRANCH   2   4
ENDBRANCH   1   2
BRANCH   1   6
ATOM      6  C   UNL     1       4.924   1.835   0.897  1.00  0.00     0.047 C 
BRANCH   6   7
ATOM      7  C   UNL     1       5.709   0.601   0.915  1.00  0.00    -0.047 A 
ATOM      8  C   UNL     1       6.363   0.168  -0.214  1.00  0.00     0.004 A 
ATOM      9  C   UNL     1       5.790  -0.126   2.080  1.00  0.00     0.004 A 
ATOM     10  C   UNL     1       7.095  -1.018  -0.124  1.00  0.00     0.000 A 
ATOM     11  C   UNL     1       6.514  -1.298   2.167  1.00  0.00     0.000 A 
ATOM     12  C   UNL     1       7.172  -1.740   1.040  1.00  0.00     0.000 A 
ENDBRANCH   6   7
ENDBRANCH   1   6
TORSDOF 4
ENDMDL
MODEL 5
REMARK VINA RESULT:      -6.6      1.929      2.669
REMARK SMILES O=C(O)CCc1ccccc1
REMARK SMILES IDX 4 1 2 2 1 3 3 4 5 6 6 7 7 8 11 9 8 10 10 11 9 12
REMARK H PARENT 3 5
REMARK Flexibility Score: inf
ROOT
ATOM      1  C   UNL     1       8.193   0.255  -2.203  1.00  0.00     0.127 C 
ENDROOT
BRANCH   1   2
ATOM      2  C   UNL     1       9.330   0.357  -1.257  1.00  0.00     0.303 C 
ATOM      3  O   UNL     1       9.427  -0.416  -0.272  1.00  0.00    -0.252 OA
BRANCH   2   4
ATOM      4  O   UNL     1      10.318   1.311  -1.435  1.00  0.00    -0.481 OA
ATOM      5  H   UNL     1      10.651   1.844  -0.626  1.00  0.00     0.296 HD
ENDBRANCH   2   4
ENDBRANCH   1   2
BRANCH   1   6
ATOM      6  C   UNL     1       7.090  -0.507  -1.534  1.00  0.00     0.047 C 
BRANCH   6   7
ATOM      7  C   UNL     1       6.318   0.282  -0.576  1.00  0.00    -0.047 A 
ATOM      8  C   UNL     1       6.100  -0.179   0.702  1.00  0.00     0.004 A 
ATOM      9  C   UNL     1       5.810   1.500  -0.964  1.00  0.00     0.004 A 
ATOM     10  C   UNL     1       5.354   0.628   1.564  1.00  0.00     0.000 A 
ATOM     11  C   UNL     1       5.073   2.297  -0.111  1.00  0.00     0.000 A 
ATOM     12  C   UNL     1       4.849   1.842   1.170  1.00  0.00     0.000 A 
ENDBRANCH   6   7
ENDBRANCH   1   6
TORSDOF 4
ENDMDL
