@<TRIPOS>MOLECULE
/home/cewinharhar/GITHUB/reincatalyze/data/processed/docking_pred/2023-Apr-26-1657_maxeplen10_maxtrainstep1000_exh32_gamma099_lrac9e-4_lrcr1e-3/0493ae4577fb245076a56c9e7bbbfc493763ce5a_ligand_2.pdbqt
 12 12 0 0 0
SMALL
GASTEIGER

@<TRIPOS>ATOM
      1  C          8.1930    0.2550   -2.2030 C.3     1  UNL1        0.1270
      2  C          9.3300    0.3570   -1.2570 C.2     1  UNL1        0.3030
      3  O          9.4270   -0.4160   -0.2720 O.2     1  UNL1       -0.2520
      4  O         10.3180    1.3110   -1.4350 O.3     1  UNL1       -0.4810
      5  H         10.6510    1.8440   -0.6260 H       1  UNL1        0.2960
      6  C          7.0900   -0.5070   -1.5340 C.3     1  UNL1        0.0470
      7  C          6.3180    0.2820   -0.5760 C.2     1  UNL1       -0.0470
      8  C          6.1000   -0.1790    0.7020 C.2     1  UNL1        0.0040
      9  C          5.8100    1.5000   -0.9640 C.2     1  UNL1        0.0040
     10  C          5.3540    0.6280    1.5640 C.2     1  UNL1        0.0000
     11  C          5.0730    2.2970   -0.1110 C.2     1  UNL1        0.0000
     12  C          4.8490    1.8420    1.1700 C.2     1  UNL1        0.0000
@<TRIPOS>BOND
     1     1     6    1
     2     1     2    1
     3     6     7    1
     4     4     2    1
     5     4     5    1
     6     2     3    2
     7     9     7    2
     8     9    11    1
     9     7     8    1
    10    11    12    2
    11     8    10    2
    12    12    10    1
