@<TRIPOS>MOLECULE
/home/cewinharhar/GITHUB/reincatalyze/data/processed/docking_pred/2023-Apr-26-1657_maxeplen10_maxtrainstep1000_exh32_gamma099_lrac9e-4_lrcr1e-3/0493ae4577fb245076a56c9e7bbbfc493763ce5a_ligand_2.pdbqt
 12 12 0 0 0
SMALL
GASTEIGER

@<TRIPOS>ATOM
      1  C          4.9950    1.7920    0.7040 C.3     1  UNL1        0.1270
      2  C          4.4800    1.1120    1.9150 C.2     1  UNL1        0.3030
      3  O          5.1390    0.2050    2.4820 O.2     1  UNL1       -0.2520
      4  O          3.2530    1.4590    2.4580 O.3     1  UNL1       -0.4810
      5  H          2.7750    2.2980    2.1180 H       1  UNL1        0.2960
      6  C          6.4920    1.7750    0.7540 C.3     1  UNL1        0.0470
      7  C          7.1150    1.0260   -0.3360 C.2     1  UNL1       -0.0470
      8  C          6.3870    0.1210   -1.0730 C.2     1  UNL1        0.0040
      9  C          8.4440    1.2370   -0.6220 C.2     1  UNL1        0.0040
     10  C          7.0470   -0.5580   -2.1010 C.2     1  UNL1        0.0000
     11  C          9.0950    0.5640   -1.6370 C.2     1  UNL1        0.0000
     12  C          8.3730   -0.3450   -2.3800 C.2     1  UNL1        0.0000
@<TRIPOS>BOND
     1    12    10    2
     2    12    11    1
     3    10     8    1
     4    11     9    2
     5     8     7    2
     6     9     7    1
     7     7     6    1
     8     1     6    1
     9     1     2    1
    10     2     4    1
    11     2     3    2
    12     5     4    1
