@<TRIPOS>MOLECULE
/home/cewinharhar/GITHUB/reincatalyze/data/processed/docking_pred/2023-Apr-26-1657_maxeplen10_maxtrainstep1000_exh32_gamma099_lrac9e-4_lrcr1e-3/0493ae4577fb245076a56c9e7bbbfc493763ce5a_ligand_2.pdbqt
 12 12 0 0 0
SMALL
GASTEIGER

@<TRIPOS>ATOM
      1  C          8.4090   -0.6270   -2.1320 C.3     1  UNL1        0.1270
      2  C          8.3810   -1.8950   -2.8990 C.2     1  UNL1        0.3030
      3  O          7.2940   -2.4200   -3.2480 O.2     1  UNL1       -0.2520
      4  O          9.5560   -2.5370   -3.2530 O.3     1  UNL1       -0.4810
      5  H         10.1800   -2.0990   -3.9370 H       1  UNL1        0.2960
      6  C          7.0210   -0.0640   -2.1020 C.3     1  UNL1        0.0470
      7  C          6.4680    0.0810   -0.7560 C.2     1  UNL1       -0.0470
      8  C          6.5860   -0.9330    0.1660 C.2     1  UNL1        0.0040
      9  C          5.8250    1.2490   -0.4170 C.2     1  UNL1        0.0040
     10  C          6.0350   -0.7260    1.4320 C.2     1  UNL1        0.0000
     11  C          5.2800    1.4520    0.8360 C.2     1  UNL1        0.0000
     12  C          5.3940    0.4400    1.7650 C.2     1  UNL1        0.0000
@<TRIPOS>BOND
     1     5     4    1
     2     4     2    1
     3     3     2    2
     4     2     1    1
     5     1     6    1
     6     6     7    1
     7     7     9    2
     8     7     8    1
     9     9    11    1
    10     8    10    2
    11    11    12    2
    12    10    12    1
