@<TRIPOS>MOLECULE
/home/cewinharhar/GITHUB/reincatalyze/data/processed/docking_pred/2023-Apr-26-1657_maxeplen10_maxtrainstep1000_exh32_gamma099_lrac9e-4_lrcr1e-3/0493ae4577fb245076a56c9e7bbbfc493763ce5a_ligand_2.pdbqt
 12 12 0 0 0
SMALL
GASTEIGER

@<TRIPOS>ATOM
      1  C          5.4620    2.8870   -0.0240 C.3     1  UNL1        0.1270
      2  C          6.2350    3.8600    0.7830 C.2     1  UNL1        0.3030
      3  O          6.9010    4.7750    0.2370 O.2     1  UNL1       -0.2520
      4  O          6.2450    3.7870    2.1670 O.3     1  UNL1       -0.4810
      5  H          5.5820    4.3530    2.7030 H       1  UNL1        0.2960
      6  C          4.9240    1.8350    0.8970 C.3     1  UNL1        0.0470
      7  C          5.7090    0.6010    0.9150 C.2     1  UNL1       -0.0470
      8  C          6.3630    0.1680   -0.2140 C.2     1  UNL1        0.0040
      9  C          5.7900   -0.1260    2.0800 C.2     1  UNL1        0.0040
     10  C          7.0950   -1.0180   -0.1240 C.2     1  UNL1        0.0000
     11  C          6.5140   -1.2980    2.1670 C.2     1  UNL1        0.0000
     12  C          7.1720   -1.7400    1.0400 C.2     1  UNL1        0.0000
@<TRIPOS>BOND
     1     8    10    1
     2     8     7    2
     3    10    12    2
     4     1     2    1
     5     1     6    1
     6     3     2    2
     7     2     4    1
     8     6     7    1
     9     7     9    1
    10    12    11    1
    11     9    11    2
    12     4     5    1
