MODEL 1
REMARK VINA RESULT:      -7.3      0.000      0.000
REMARK SMILES O=C(O)CCc1ccccc1
REMARK SMILES IDX 4 1 2 2 1 3 3 4 5 6 6 7 7 8 11 9 8 10 10 11 9 12
REMARK H PARENT 3 5
REMARK Flexibility Score: inf
ROOT
ATOM      1  C   UNL     1       8.417  -0.607  -2.165  1.00  0.00     0.127 C 
ENDROOT
BRANCH   1   2
ATOM      2  C   UNL     1       8.469  -1.888  -2.908  1.00  0.00     0.303 C 
ATOM      3  O   UNL     1       9.557  -2.486  -3.098  1.00  0.00    -0.252 OA
BRANCH   2   4
ATOM      4  O   UNL     1       7.315  -2.463  -3.416  1.00  0.00    -0.481 OA
ATOM      5  H   UNL     1       7.220  -3.482  -3.413  1.00  0.00     0.296 HD
ENDBRANCH   2   4
ENDBRANCH   1   2
BRANCH   1   6
ATOM      6  C   UNL     1       6.991  -0.150  -2.116  1.00  0.00     0.047 C 
BRANCH   6   7
ATOM      7  C   UNL     1       6.464   0.010  -0.761  1.00  0.00    -0.047 A 
ATOM      8  C   UNL     1       6.595  -0.996   0.167  1.00  0.00     0.004 A 
ATOM      9  C   UNL     1       5.834   1.184  -0.420  1.00  0.00     0.004 A 
ATOM     10  C   UNL     1       6.069  -0.774   1.442  1.00  0.00     0.000 A 
ATOM     11  C   UNL     1       5.314   1.402   0.840  1.00  0.00     0.000 A 
ATOM     12  C   UNL     1       5.440   0.398   1.776  1.00  0.00     0.000 A 
ENDBRANCH   6   7
ENDBRANCH   1   6
TORSDOF 4
ENDMDL
MODEL 2
REMARK VINA RESULT:      -7.3      0.118      1.732
REMARK SMILES O=C(O)CCc1ccccc1
REMARK SMILES IDX 4 1 2 2 1 3 3 4 5 6 6 7 7 8 11 9 8 10 10 11 9 12
REMARK H PARENT 3 5
REMARK Flexibility Score: inf
ROOT
ATOM      1  C   UNL     1       8.409  -0.686  -2.035  1.00  0.00     0.127 C 
ENDROOT
BRANCH   1   2
ATOM      2  C   UNL     1       8.378  -1.909  -2.872  1.00  0.00     0.303 C 
ATOM      3  O   UNL     1       7.291  -2.414  -3.245  1.00  0.00    -0.252 OA
BRANCH   2   4
ATOM      4  O   UNL     1       9.553  -2.529  -3.265  1.00  0.00    -0.481 OA
ATOM      5  H   UNL     1      10.137  -2.989  -2.561  1.00  0.00     0.296 HD
ENDBRANCH   2   4
ENDBRANCH   1   2
BRANCH   1   6
ATOM      6  C   UNL     1       7.042  -0.072  -2.048  1.00  0.00     0.047 C 
BRANCH   6   7
ATOM      7  C   UNL     1       6.459   0.110  -0.720  1.00  0.00    -0.047 A 
ATOM      8  C   UNL     1       5.805   1.275  -0.393  1.00  0.00     0.004 A 
ATOM      9  C   UNL     1       6.569  -0.901   0.206  1.00  0.00     0.004 A 
ATOM     10  C   UNL     1       5.272   1.380   0.894  1.00  0.00     0.000 A 
ATOM     11  C   UNL     1       6.042  -0.796   1.478  1.00  0.00     0.000 A 
ATOM     12  C   UNL     1       5.386   0.368   1.814  1.00  0.00     0.000 A 
ENDBRANCH   6   7
ENDBRANCH   1   6
TORSDOF 4
ENDMDL
MODEL 3
REMARK VINA RESULT:      -6.8      3.382      5.061
REMARK SMILES O=C(O)CCc1ccccc1
REMARK SMILES IDX 4 1 2 2 1 3 3 4 5 6 6 7 7 8 11 9 8 10 10 11 9 12
REMARK H PARENT 3 5
REMARK Flexibility Score: inf
ROOT
ATOM      1  C   UNL     1       5.051   1.774   0.744  1.00  0.00     0.127 C 
ENDROOT
BRANCH   1   2
ATOM      2  C   UNL     1       4.486   1.100   1.937  1.00  0.00     0.303 C 
ATOM      3  O   UNL     1       5.107   0.174   2.516  1.00  0.00    -0.252 OA
BRANCH   2   4
ATOM      4  O   UNL     1       3.253   1.473   2.447  1.00  0.00    -0.481 OA
ATOM      5  H   UNL     1       2.488   0.793   2.455  1.00  0.00     0.296 HD
ENDBRANCH   2   4
ENDBRANCH   1   2
BRANCH   1   6
ATOM      6  C   UNL     1       6.544   1.672   0.808  1.00  0.00     0.047 C 
BRANCH   6   7
ATOM      7  C   UNL     1       7.138   0.933  -0.305  1.00  0.00    -0.047 A 
ATOM      8  C   UNL     1       6.424  -0.042  -0.962  1.00  0.00     0.004 A 
ATOM      9  C   UNL     1       8.424   1.225  -0.694  1.00  0.00     0.004 A 
ATOM     10  C   UNL     1       7.053  -0.707  -2.017  1.00  0.00     0.000 A 
ATOM     11  C   UNL     1       9.045   0.566  -1.737  1.00  0.00     0.000 A 
ATOM     12  C   UNL     1       8.337  -0.413  -2.400  1.00  0.00     0.000 A 
ENDBRANCH   6   7
ENDBRANCH   1   6
TORSDOF 4
ENDMDL
MODEL 4
REMARK VINA RESULT:      -6.7      3.810      4.939
REMARK SMILES O=C(O)CCc1ccccc1
REMARK SMILES IDX 4 1 2 2 1 3 3 4 5 6 6 7 7 8 11 9 8 10 10 11 9 12
REMARK H PARENT 3 5
REMARK Flexibility Score: inf
ROOT
ATOM      1  C   UNL     1       5.420   2.902   0.022  1.00  0.00     0.127 C 
ENDROOT
BRANCH   1   2
ATOM      2  C   UNL     1       6.215   3.881   0.801  1.00  0.00     0.303 C 
ATOM      3  O   UNL     1       6.887   4.775   0.230  1.00  0.00    -0.252 OA
BRANCH   2   4
ATOM      4  O   UNL     1       6.238   3.835   2.186  1.00  0.00    -0.481 OA
ATOM      5  H   UNL     1       5.388   3.574   2.693  1.00  0.00     0.296 HD
ENDBRANCH   2   4
ENDBRANCH   1   2
BRANCH   1   6
ATOM      6  C   UNL     1       4.918   1.849   0.962  1.00  0.00     0.047 C 
BRANCH   6   7
ATOM      7  C   UNL     1       5.710   0.620   0.956  1.00  0.00    -0.047 A 
ATOM      8  C   UNL     1       5.805  -0.161   2.085  1.00  0.00     0.004 A 
ATOM      9  C   UNL     1       6.363   0.248  -0.196  1.00  0.00     0.004 A 
ATOM     10  C   UNL     1       6.578  -1.322   2.006  1.00  0.00     0.000 A 
ATOM     11  C   UNL     1       7.128  -0.900  -0.271  1.00  0.00     0.000 A 
ATOM     12  C   UNL     1       7.228  -1.687   0.855  1.00  0.00     0.000 A 
ENDBRANCH   6   7
ENDBRANCH   1   6
TORSDOF 4
ENDMDL
MODEL 5
REMARK VINA RESULT:      -6.7      1.933      2.305
REMARK SMILES O=C(O)CCc1ccccc1
REMARK SMILES IDX 4 1 2 2 1 3 3 4 5 6 6 7 7 8 11 9 8 10 10 11 9 12
REMARK H PARENT 3 5
REMARK Flexibility Score: inf
ROOT
ATOM      1  C   UNL     1       8.253   0.186  -2.183  1.00  0.00     0.127 C 
ENDROOT
BRANCH   1   2
ATOM      2  C   UNL     1       9.379   0.345  -1.233  1.00  0.00     0.303 C 
ATOM      3  O   UNL     1       9.481  -0.385  -0.217  1.00  0.00    -0.252 OA
BRANCH   2   4
ATOM      4  O   UNL     1      10.353   1.308  -1.442  1.00  0.00    -0.481 OA
ATOM      5  H   UNL     1      10.957   1.587  -0.664  1.00  0.00     0.296 HD
ENDBRANCH   2   4
ENDBRANCH   1   2
BRANCH   1   6
ATOM      6  C   UNL     1       7.161  -0.577  -1.496  1.00  0.00     0.047 C 
BRANCH   6   7
ATOM      7  C   UNL     1       6.369   0.226  -0.566  1.00  0.00    -0.047 A 
ATOM      8  C   UNL     1       6.146  -0.205   0.721  1.00  0.00     0.004 A 
ATOM      9  C   UNL     1       5.847   1.426  -0.991  1.00  0.00     0.004 A 
ATOM     10  C   UNL     1       5.381   0.614   1.555  1.00  0.00     0.000 A 
ATOM     11  C   UNL     1       5.091   2.234  -0.165  1.00  0.00     0.000 A 
ATOM     12  C   UNL     1       4.862   1.809   1.126  1.00  0.00     0.000 A 
ENDBRANCH   6   7
ENDBRANCH   1   6
TORSDOF 4
ENDMDL
