@<TRIPOS>MOLECULE
/home/cewinharhar/GITHUB/reincatalyze/data/processed/docking_pred/2023-Apr-26-1657_maxeplen10_maxtrainstep1000_exh32_gamma099_lrac9e-4_lrcr1e-3/051d9442833557c4466992e4bdada3c2de553c76_ligand_2.pdbqt
 12 12 0 0 0
SMALL
GASTEIGER

@<TRIPOS>ATOM
      1  C          5.0510    1.7740    0.7440 C.3     1  UNL1        0.1270
      2  C          4.4860    1.1000    1.9370 C.2     1  UNL1        0.3030
      3  O          5.1070    0.1740    2.5160 O.2     1  UNL1       -0.2520
      4  O          3.2530    1.4730    2.4470 O.3     1  UNL1       -0.4810
      5  H          2.4880    0.7930    2.4550 H       1  UNL1        0.2960
      6  C          6.5440    1.6720    0.8080 C.3     1  UNL1        0.0470
      7  C          7.1380    0.9330   -0.3050 C.2     1  UNL1       -0.0470
      8  C          6.4240   -0.0420   -0.9620 C.2     1  UNL1        0.0040
      9  C          8.4240    1.2250   -0.6940 C.2     1  UNL1        0.0040
     10  C          7.0530   -0.7070   -2.0170 C.2     1  UNL1        0.0000
     11  C          9.0450    0.5660   -1.7370 C.2     1  UNL1        0.0000
     12  C          8.3370   -0.4130   -2.4000 C.2     1  UNL1        0.0000
@<TRIPOS>BOND
     1    12    10    2
     2    12    11    1
     3    10     8    1
     4    11     9    2
     5     8     7    2
     6     9     7    1
     7     7     6    1
     8     1     6    1
     9     1     2    1
    10     2     4    1
    11     2     3    2
    12     4     5    1
