@<TRIPOS>MOLECULE
/home/cewinharhar/GITHUB/reincatalyze/data/processed/docking_pred/2023-Apr-26-1657_maxeplen10_maxtrainstep1000_exh32_gamma099_lrac9e-4_lrcr1e-3/051d9442833557c4466992e4bdada3c2de553c76_ligand_2.pdbqt
 12 12 0 0 0
SMALL
GASTEIGER

@<TRIPOS>ATOM
      1  C          8.4170   -0.6070   -2.1650 C.3     1  UNL1        0.1270
      2  C          8.4690   -1.8880   -2.9080 C.2     1  UNL1        0.3030
      3  O          9.5570   -2.4860   -3.0980 O.2     1  UNL1       -0.2520
      4  O          7.3150   -2.4630   -3.4160 O.3     1  UNL1       -0.4810
      5  H          7.2200   -3.4820   -3.4130 H       1  UNL1        0.2960
      6  C          6.9910   -0.1500   -2.1160 C.3     1  UNL1        0.0470
      7  C          6.4640    0.0100   -0.7610 C.2     1  UNL1       -0.0470
      8  C          6.5950   -0.9960    0.1670 C.2     1  UNL1        0.0040
      9  C          5.8340    1.1840   -0.4200 C.2     1  UNL1        0.0040
     10  C          6.0690   -0.7740    1.4420 C.2     1  UNL1        0.0000
     11  C          5.3140    1.4020    0.8400 C.2     1  UNL1        0.0000
     12  C          5.4400    0.3980    1.7760 C.2     1  UNL1        0.0000
@<TRIPOS>BOND
     1     4     5    1
     2     4     2    1
     3     3     2    2
     4     2     1    1
     5     1     6    1
     6     6     7    1
     7     7     9    2
     8     7     8    1
     9     9    11    1
    10     8    10    2
    11    11    12    2
    12    10    12    1
