@<TRIPOS>MOLECULE
/home/cewinharhar/GITHUB/reincatalyze/data/processed/docking_pred/2023-Apr-26-1657_maxeplen10_maxtrainstep1000_exh32_gamma099_lrac9e-4_lrcr1e-3/051d9442833557c4466992e4bdada3c2de553c76_ligand_2.pdbqt
 12 12 0 0 0
SMALL
GASTEIGER

@<TRIPOS>ATOM
      1  C          8.2530    0.1860   -2.1830 C.3     1  UNL1        0.1270
      2  C          9.3790    0.3450   -1.2330 C.2     1  UNL1        0.3030
      3  O          9.4810   -0.3850   -0.2170 O.2     1  UNL1       -0.2520
      4  O         10.3530    1.3080   -1.4420 O.3     1  UNL1       -0.4810
      5  H         10.9570    1.5870   -0.6640 H       1  UNL1        0.2960
      6  C          7.1610   -0.5770   -1.4960 C.3     1  UNL1        0.0470
      7  C          6.3690    0.2260   -0.5660 C.2     1  UNL1       -0.0470
      8  C          6.1460   -0.2050    0.7210 C.2     1  UNL1        0.0040
      9  C          5.8470    1.4260   -0.9910 C.2     1  UNL1        0.0040
     10  C          5.3810    0.6140    1.5550 C.2     1  UNL1        0.0000
     11  C          5.0910    2.2340   -0.1650 C.2     1  UNL1        0.0000
     12  C          4.8620    1.8090    1.1260 C.2     1  UNL1        0.0000
@<TRIPOS>BOND
     1     1     6    1
     2     1     2    1
     3     6     7    1
     4     4     2    1
     5     4     5    1
     6     2     3    2
     7     9     7    2
     8     9    11    1
     9     7     8    1
    10    11    12    2
    11     8    10    2
    12    12    10    1
