@<TRIPOS>MOLECULE
/home/cewinharhar/GITHUB/reincatalyze/data/processed/docking_pred/2023-Apr-26-1657_maxeplen10_maxtrainstep1000_exh32_gamma099_lrac9e-4_lrcr1e-3/051d9442833557c4466992e4bdada3c2de553c76_ligand_2.pdbqt
 12 12 0 0 0
SMALL
GASTEIGER

@<TRIPOS>ATOM
      1  C          5.4200    2.9020    0.0220 C.3     1  UNL1        0.1270
      2  C          6.2150    3.8810    0.8010 C.2     1  UNL1        0.3030
      3  O          6.8870    4.7750    0.2300 O.2     1  UNL1       -0.2520
      4  O          6.2380    3.8350    2.1860 O.3     1  UNL1       -0.4810
      5  H          5.3880    3.5740    2.6930 H       1  UNL1        0.2960
      6  C          4.9180    1.8490    0.9620 C.3     1  UNL1        0.0470
      7  C          5.7100    0.6200    0.9560 C.2     1  UNL1       -0.0470
      8  C          5.8050   -0.1610    2.0850 C.2     1  UNL1        0.0040
      9  C          6.3630    0.2480   -0.1960 C.2     1  UNL1        0.0040
     10  C          6.5780   -1.3220    2.0060 C.2     1  UNL1        0.0000
     11  C          7.1280   -0.9000   -0.2710 C.2     1  UNL1        0.0000
     12  C          7.2280   -1.6870    0.8550 C.2     1  UNL1        0.0000
@<TRIPOS>BOND
     1    11     9    1
     2    11    12    2
     3     9     7    2
     4     1     2    1
     5     1     6    1
     6     3     2    2
     7     2     4    1
     8    12    10    1
     9     7     6    1
    10     7     8    1
    11    10     8    2
    12     4     5    1
