@<TRIPOS>MOLECULE
/home/cewinharhar/GITHUB/reincatalyze/data/processed/docking_pred/2023-Apr-26-1657_maxeplen10_maxtrainstep1000_exh32_gamma099_lrac9e-4_lrcr1e-3/051d9442833557c4466992e4bdada3c2de553c76_ligand_2.pdbqt
 12 12 0 0 0
SMALL
GASTEIGER

@<TRIPOS>ATOM
      1  C          8.4090   -0.6860   -2.0350 C.3     1  UNL1        0.1270
      2  C          8.3780   -1.9090   -2.8720 C.2     1  UNL1        0.3030
      3  O          7.2910   -2.4140   -3.2450 O.2     1  UNL1       -0.2520
      4  O          9.5530   -2.5290   -3.2650 O.3     1  UNL1       -0.4810
      5  H         10.1370   -2.9890   -2.5610 H       1  UNL1        0.2960
      6  C          7.0420   -0.0720   -2.0480 C.3     1  UNL1        0.0470
      7  C          6.4590    0.1100   -0.7200 C.2     1  UNL1       -0.0470
      8  C          5.8050    1.2750   -0.3930 C.2     1  UNL1        0.0040
      9  C          6.5690   -0.9010    0.2060 C.2     1  UNL1        0.0040
     10  C          5.2720    1.3800    0.8940 C.2     1  UNL1        0.0000
     11  C          6.0420   -0.7960    1.4780 C.2     1  UNL1        0.0000
     12  C          5.3860    0.3680    1.8140 C.2     1  UNL1        0.0000
@<TRIPOS>BOND
     1     4     2    1
     2     4     5    1
     3     3     2    2
     4     2     1    1
     5     6     1    1
     6     6     7    1
     7     7     8    2
     8     7     9    1
     9     8    10    1
    10     9    11    2
    11    10    12    2
    12    11    12    1
