@<TRIPOS>MOLECULE
/home/cewinharhar/GITHUB/reincatalyze/data/processed/docking_pred/2023-Apr-26-1657_maxeplen10_maxtrainstep1000_exh32_gamma099_lrac9e-4_lrcr1e-3/05fc2472135fbee8f2c0d268145bdd055e68f396_ligand_2.pdbqt
 12 12 0 0 0
SMALL
GASTEIGER

@<TRIPOS>ATOM
      1  C          8.2150   -0.4740   -2.3510 C.3     1  UNL1        0.1270
      2  C          8.3590   -1.8130   -2.9700 C.2     1  UNL1        0.3030
      3  O          9.4810   -2.3690   -3.0630 O.2     1  UNL1       -0.2520
      4  O          7.2560   -2.4880   -3.4660 O.3     1  UNL1       -0.4810
      5  H          6.3330   -2.3040   -3.0630 H       1  UNL1        0.2960
      6  C          7.0370   -0.5080   -1.4260 C.3     1  UNL1        0.0470
      7  C          6.8240    0.7360   -0.6890 C.2     1  UNL1       -0.0470
      8  C          5.5790    1.3190   -0.6360 C.2     1  UNL1        0.0040
      9  C          7.8860    1.3230   -0.0410 C.2     1  UNL1        0.0040
     10  C          5.4480    2.5060    0.0870 C.2     1  UNL1        0.0000
     11  C          7.7560    2.4980    0.6730 C.2     1  UNL1        0.0000
     12  C          6.5120    3.0880    0.7300 C.2     1  UNL1        0.0000
@<TRIPOS>BOND
     1     4     5    1
     2     4     2    1
     3     3     2    2
     4     2     1    1
     5     1     6    1
     6     6     7    1
     7     7     8    2
     8     7     9    1
     9     8    10    1
    10     9    11    2
    11    10    12    2
    12    11    12    1
