@<TRIPOS>MOLECULE
/home/cewinharhar/GITHUB/reincatalyze/data/processed/docking_pred/2023-Apr-26-1657_maxeplen10_maxtrainstep1000_exh32_gamma099_lrac9e-4_lrcr1e-3/05fc2472135fbee8f2c0d268145bdd055e68f396_ligand_2.pdbqt
 12 12 0 0 0
SMALL
GASTEIGER

@<TRIPOS>ATOM
      1  C          8.4250   -0.6750   -2.0700 C.3     1  UNL1        0.1270
      2  C          8.4600   -1.9190   -2.8750 C.2     1  UNL1        0.3030
      3  O          9.5360   -2.5350   -3.0740 O.2     1  UNL1       -0.2520
      4  O          7.3010   -2.4380   -3.4310 O.3     1  UNL1       -0.4810
      5  H          7.2540   -3.4370   -3.6480 H       1  UNL1        0.2960
      6  C          7.0210   -0.1510   -2.0750 C.3     1  UNL1        0.0470
      7  C          6.4520    0.0350   -0.7410 C.2     1  UNL1       -0.0470
      8  C          5.8050    1.2020   -0.4090 C.2     1  UNL1        0.0040
      9  C          6.5670   -0.9760    0.1850 C.2     1  UNL1        0.0040
     10  C          5.2840    1.3100    0.8830 C.2     1  UNL1        0.0000
     11  C          6.0520   -0.8680    1.4610 C.2     1  UNL1        0.0000
     12  C          5.4030    0.2990    1.8030 C.2     1  UNL1        0.0000
@<TRIPOS>BOND
     1     5     4    1
     2     4     2    1
     3     3     2    2
     4     2     1    1
     5     6     1    1
     6     6     7    1
     7     7     8    2
     8     7     9    1
     9     8    10    1
    10     9    11    2
    11    10    12    2
    12    11    12    1
