@<TRIPOS>MOLECULE
/home/cewinharhar/GITHUB/reincatalyze/data/processed/docking_pred/2023-Apr-26-1657_maxeplen10_maxtrainstep1000_exh32_gamma099_lrac9e-4_lrcr1e-3/05fc2472135fbee8f2c0d268145bdd055e68f396_ligand_2.pdbqt
 12 12 0 0 0
SMALL
GASTEIGER

@<TRIPOS>ATOM
      1  C          6.9580   -1.1870   -2.4340 C.3     1  UNL1        0.1270
      2  C          8.2410   -1.9230   -2.5320 C.2     1  UNL1        0.3030
      3  O          8.2680   -3.1780   -2.5840 O.2     1  UNL1       -0.2520
      4  O          9.4480   -1.2450   -2.5680 O.3     1  UNL1       -0.4810
      5  H         10.1530   -1.4380   -1.8510 H       1  UNL1        0.2960
      6  C          7.2180    0.1210   -1.7510 C.3     1  UNL1        0.0470
      7  C          6.4830    0.2940   -0.4990 C.2     1  UNL1       -0.0470
      8  C          5.7160    1.4150   -0.2830 C.2     1  UNL1        0.0040
      9  C          6.5630   -0.6820    0.4670 C.2     1  UNL1        0.0040
     10  C          5.0400    1.5140    0.9350 C.2     1  UNL1        0.0000
     11  C          5.8950   -0.5830    1.6710 C.2     1  UNL1        0.0000
     12  C          5.1250    0.5370    1.8960 C.2     1  UNL1        0.0000
@<TRIPOS>BOND
     1     3     2    2
     2     4     2    1
     3     4     5    1
     4     2     1    1
     5     1     6    1
     6     6     7    1
     7     7     8    2
     8     7     9    1
     9     8    10    1
    10     9    11    2
    11    10    12    2
    12    11    12    1
