@<TRIPOS>MOLECULE
/home/cewinharhar/GITHUB/reincatalyze/data/processed/docking_pred/2023-Apr-26-1657_maxeplen10_maxtrainstep1000_exh32_gamma099_lrac9e-4_lrcr1e-3/05fc2472135fbee8f2c0d268145bdd055e68f396_ligand_2.pdbqt
 12 12 0 0 0
SMALL
GASTEIGER

@<TRIPOS>ATOM
      1  C          8.2540   -0.3680   -2.3080 C.3     1  UNL1        0.1270
      2  C          8.4320   -1.7140   -2.9030 C.2     1  UNL1        0.3030
      3  O          9.5660   -2.2500   -2.9720 O.2     1  UNL1       -0.2520
      4  O          7.3480   -2.4200   -3.4000 O.3     1  UNL1       -0.4810
      5  H          7.2320   -3.4040   -3.1450 H       1  UNL1        0.2960
      6  C          7.0400   -0.3990   -1.4300 C.3     1  UNL1        0.0470
      7  C          6.8160    0.8380   -0.6840 C.2     1  UNL1       -0.0470
      8  C          7.8530    1.4660   -0.0350 C.2     1  UNL1        0.0040
      9  C          5.5490    1.3740   -0.6390 C.2     1  UNL1        0.0040
     10  C          7.5660    2.6450    0.6580 C.2     1  UNL1        0.0000
     11  C          5.2670    2.5390    0.0470 C.2     1  UNL1        0.0000
     12  C          6.3000    3.1740    0.7010 C.2     1  UNL1        0.0000
@<TRIPOS>BOND
     1     4     5    1
     2     4     2    1
     3     3     2    2
     4     2     1    1
     5     1     6    1
     6     6     7    1
     7     7     9    2
     8     7     8    1
     9     9    11    1
    10     8    10    2
    11    11    12    2
    12    10    12    1
