MODEL 1
REMARK VINA RESULT:      -7.1      0.000      0.000
REMARK SMILES O=C(O)CCc1ccccc1
REMARK SMILES IDX 4 1 2 2 1 3 3 4 5 6 6 7 7 8 11 9 8 10 10 11 9 12
REMARK H PARENT 3 5
REMARK Flexibility Score: inf
ROOT
ATOM      1  C   UNL     1       8.425  -0.675  -2.070  1.00  0.00     0.127 C 
ENDROOT
BRANCH   1   2
ATOM      2  C   UNL     1       8.460  -1.919  -2.875  1.00  0.00     0.303 C 
ATOM      3  O   UNL     1       9.536  -2.535  -3.074  1.00  0.00    -0.252 OA
BRANCH   2   4
ATOM      4  O   UNL     1       7.301  -2.438  -3.431  1.00  0.00    -0.481 OA
ATOM      5  H   UNL     1       7.254  -3.437  -3.648  1.00  0.00     0.296 HD
ENDBRANCH   2   4
ENDBRANCH   1   2
BRANCH   1   6
ATOM      6  C   UNL     1       7.021  -0.151  -2.075  1.00  0.00     0.047 C 
BRANCH   6   7
ATOM      7  C   UNL     1       6.452   0.035  -0.741  1.00  0.00    -0.047 A 
ATOM      8  C   UNL     1       5.805   1.202  -0.409  1.00  0.00     0.004 A 
ATOM      9  C   UNL     1       6.567  -0.976   0.185  1.00  0.00     0.004 A 
ATOM     10  C   UNL     1       5.284   1.310   0.883  1.00  0.00     0.000 A 
ATOM     11  C   UNL     1       6.052  -0.868   1.461  1.00  0.00     0.000 A 
ATOM     12  C   UNL     1       5.403   0.299   1.803  1.00  0.00     0.000 A 
ENDBRANCH   6   7
ENDBRANCH   1   6
TORSDOF 4
ENDMDL
MODEL 2
REMARK VINA RESULT:      -7.1      0.109      1.440
REMARK SMILES O=C(O)CCc1ccccc1
REMARK SMILES IDX 4 1 2 2 1 3 3 4 5 6 6 7 7 8 11 9 8 10 10 11 9 12
REMARK H PARENT 3 5
REMARK Flexibility Score: inf
ROOT
ATOM      1  C   UNL     1       8.399  -0.542  -2.232  1.00  0.00     0.127 C 
ENDROOT
BRANCH   1   2
ATOM      2  C   UNL     1       8.451  -1.845  -2.935  1.00  0.00     0.303 C 
ATOM      3  O   UNL     1       9.534  -2.465  -3.078  1.00  0.00    -0.252 OA
BRANCH   2   4
ATOM      4  O   UNL     1       7.302  -2.417  -3.457  1.00  0.00    -0.481 OA
ATOM      5  H   UNL     1       7.294  -2.723  -4.434  1.00  0.00     0.296 HD
ENDBRANCH   2   4
ENDBRANCH   1   2
BRANCH   1   6
ATOM      6  C   UNL     1       6.970  -0.098  -2.169  1.00  0.00     0.047 C 
BRANCH   6   7
ATOM      7  C   UNL     1       6.450   0.042  -0.809  1.00  0.00    -0.047 A 
ATOM      8  C   UNL     1       6.583  -0.979   0.103  1.00  0.00     0.004 A 
ATOM      9  C   UNL     1       5.824   1.212  -0.447  1.00  0.00     0.004 A 
ATOM     10  C   UNL     1       6.064  -0.775   1.384  1.00  0.00     0.000 A 
ATOM     11  C   UNL     1       5.311   1.412   0.819  1.00  0.00     0.000 A 
ATOM     12  C   UNL     1       5.440   0.394   1.739  1.00  0.00     0.000 A 
ENDBRANCH   6   7
ENDBRANCH   1   6
TORSDOF 4
ENDMDL
MODEL 3
REMARK VINA RESULT:      -6.7      1.397      1.802
REMARK SMILES O=C(O)CCc1ccccc1
REMARK SMILES IDX 4 1 2 2 1 3 3 4 5 6 6 7 7 8 11 9 8 10 10 11 9 12
REMARK H PARENT 3 5
REMARK Flexibility Score: inf
ROOT
ATOM      1  C   UNL     1       8.215  -0.474  -2.351  1.00  0.00     0.127 C 
ENDROOT
BRANCH   1   2
ATOM      2  C   UNL     1       8.359  -1.813  -2.970  1.00  0.00     0.303 C 
ATOM      3  O   UNL     1       9.481  -2.369  -3.063  1.00  0.00    -0.252 OA
BRANCH   2   4
ATOM      4  O   UNL     1       7.256  -2.488  -3.466  1.00  0.00    -0.481 OA
ATOM      5  H   UNL     1       6.333  -2.304  -3.063  1.00  0.00     0.296 HD
ENDBRANCH   2   4
ENDBRANCH   1   2
BRANCH   1   6
ATOM      6  C   UNL     1       7.037  -0.508  -1.426  1.00  0.00     0.047 C 
BRANCH   6   7
ATOM      7  C   UNL     1       6.824   0.736  -0.689  1.00  0.00    -0.047 A 
ATOM      8  C   UNL     1       5.579   1.319  -0.636  1.00  0.00     0.004 A 
ATOM      9  C   UNL     1       7.886   1.323  -0.041  1.00  0.00     0.004 A 
ATOM     10  C   UNL     1       5.448   2.506   0.087  1.00  0.00     0.000 A 
ATOM     11  C   UNL     1       7.756   2.498   0.673  1.00  0.00     0.000 A 
ATOM     12  C   UNL     1       6.512   3.088   0.730  1.00  0.00     0.000 A 
ENDBRANCH   6   7
ENDBRANCH   1   6
TORSDOF 4
ENDMDL
MODEL 4
REMARK VINA RESULT:      -6.7      1.425      2.018
REMARK SMILES O=C(O)CCc1ccccc1
REMARK SMILES IDX 4 1 2 2 1 3 3 4 5 6 6 7 7 8 11 9 8 10 10 11 9 12
REMARK H PARENT 3 5
REMARK Flexibility Score: inf
ROOT
ATOM      1  C   UNL     1       8.254  -0.368  -2.308  1.00  0.00     0.127 C 
ENDROOT
BRANCH   1   2
ATOM      2  C   UNL     1       8.432  -1.714  -2.903  1.00  0.00     0.303 C 
ATOM      3  O   UNL     1       9.566  -2.250  -2.972  1.00  0.00    -0.252 OA
BRANCH   2   4
ATOM      4  O   UNL     1       7.348  -2.420  -3.400  1.00  0.00    -0.481 OA
ATOM      5  H   UNL     1       7.232  -3.404  -3.145  1.00  0.00     0.296 HD
ENDBRANCH   2   4
ENDBRANCH   1   2
BRANCH   1   6
ATOM      6  C   UNL     1       7.040  -0.399  -1.430  1.00  0.00     0.047 C 
BRANCH   6   7
ATOM      7  C   UNL     1       6.816   0.838  -0.684  1.00  0.00    -0.047 A 
ATOM      8  C   UNL     1       7.853   1.466  -0.035  1.00  0.00     0.004 A 
ATOM      9  C   UNL     1       5.549   1.374  -0.639  1.00  0.00     0.004 A 
ATOM     10  C   UNL     1       7.566   2.645   0.658  1.00  0.00     0.000 A 
ATOM     11  C   UNL     1       5.267   2.539   0.047  1.00  0.00     0.000 A 
ATOM     12  C   UNL     1       6.300   3.174   0.701  1.00  0.00     0.000 A 
ENDBRANCH   6   7
ENDBRANCH   1   6
TORSDOF 4
ENDMDL
MODEL 5
REMARK VINA RESULT:      -6.6      0.802      1.075
REMARK SMILES O=C(O)CCc1ccccc1
REMARK SMILES IDX 4 1 2 2 1 3 3 4 5 6 6 7 7 8 11 9 8 10 10 11 9 12
REMARK H PARENT 3 5
REMARK Flexibility Score: inf
ROOT
ATOM      1  C   UNL     1       6.958  -1.187  -2.434  1.00  0.00     0.127 C 
ENDROOT
BRANCH   1   2
ATOM      2  C   UNL     1       8.241  -1.923  -2.532  1.00  0.00     0.303 C 
ATOM      3  O   UNL     1       8.268  -3.178  -2.584  1.00  0.00    -0.252 OA
BRANCH   2   4
ATOM      4  O   UNL     1       9.448  -1.245  -2.568  1.00  0.00    -0.481 OA
ATOM      5  H   UNL     1      10.153  -1.438  -1.851  1.00  0.00     0.296 HD
ENDBRANCH   2   4
ENDBRANCH   1   2
BRANCH   1   6
ATOM      6  C   UNL     1       7.218   0.121  -1.751  1.00  0.00     0.047 C 
BRANCH   6   7
ATOM      7  C   UNL     1       6.483   0.294  -0.499  1.00  0.00    -0.047 A 
ATOM      8  C   UNL     1       5.716   1.415  -0.283  1.00  0.00     0.004 A 
ATOM      9  C   UNL     1       6.563  -0.682   0.467  1.00  0.00     0.004 A 
ATOM     10  C   UNL     1       5.040   1.514   0.935  1.00  0.00     0.000 A 
ATOM     11  C   UNL     1       5.895  -0.583   1.671  1.00  0.00     0.000 A 
ATOM     12  C   UNL     1       5.125   0.537   1.896  1.00  0.00     0.000 A 
ENDBRANCH   6   7
ENDBRANCH   1   6
TORSDOF 4
ENDMDL
