@<TRIPOS>MOLECULE
/home/cewinharhar/GITHUB/reincatalyze/data/processed/docking_pred/2023-Apr-26-1657_maxeplen10_maxtrainstep1000_exh32_gamma099_lrac9e-4_lrcr1e-3/074f71e156faecc69724e62cc987f5104d3c940c_ligand_2.pdbqt
 12 12 0 0 0
SMALL
GASTEIGER

@<TRIPOS>ATOM
      1  C          6.4330   -0.5230    2.7270 C.3     1  UNL1        0.1270
      2  C          7.1520   -1.5100    1.8870 C.2     1  UNL1        0.3030
      3  O          8.3180   -1.2890    1.4760 O.2     1  UNL1       -0.2520
      4  O          6.5530   -2.7080    1.5310 O.3     1  UNL1       -0.4810
      5  H          6.6250   -3.0360    0.5640 H       1  UNL1        0.2960
      6  C          5.2850    0.0230    1.9340 C.3     1  UNL1        0.0470
      7  C          5.5500    1.3230    1.3210 C.2     1  UNL1       -0.0470
      8  C          4.8600    1.7270    0.2020 C.2     1  UNL1        0.0040
      9  C          6.5020    2.1460    1.8780 C.2     1  UNL1        0.0040
     10  C          5.1640    2.9830   -0.3290 C.2     1  UNL1        0.0000
     11  C          6.8020    3.3870    1.3510 C.2     1  UNL1        0.0000
     12  C          6.1150    3.7990    0.2300 C.2     1  UNL1        0.0000
@<TRIPOS>BOND
     1    10     8    1
     2    10    12    2
     3     8     7    2
     4    12    11    1
     5     5     4    1
     6     7     9    1
     7     7     6    1
     8    11     9    2
     9     3     2    2
    10     4     2    1
    11     2     1    1
    12     6     1    1
