@<TRIPOS>MOLECULE
/home/cewinharhar/GITHUB/reincatalyze/data/processed/docking_pred/2023-Apr-26-1657_maxeplen10_maxtrainstep1000_exh32_gamma099_lrac9e-4_lrcr1e-3/074f71e156faecc69724e62cc987f5104d3c940c_ligand_2.pdbqt
 12 12 0 0 0
SMALL
GASTEIGER

@<TRIPOS>ATOM
      1  C          5.5760    2.9980    0.0810 C.3     1  UNL1        0.1270
      2  C          6.2480    4.0870    0.8280 C.2     1  UNL1        0.3030
      3  O          7.1590    4.7730    0.3000 O.2     1  UNL1       -0.2520
      4  O          5.8900    4.3780    2.1340 O.3     1  UNL1       -0.4810
      5  H          4.8980    4.4760    2.3710 H       1  UNL1        0.2960
      6  C          4.8270    2.1470    1.0610 C.3     1  UNL1        0.0470
      7  C          5.5390    0.9350    1.4620 C.2     1  UNL1       -0.0470
      8  C          6.7820    1.0100    2.0460 C.2     1  UNL1        0.0040
      9  C          4.9510   -0.2900    1.2500 C.2     1  UNL1        0.0040
     10  C          7.4040   -0.1890    2.4040 C.2     1  UNL1        0.0000
     11  C          5.5660   -1.4740    1.6040 C.2     1  UNL1        0.0000
     12  C          6.8120   -1.4080    2.1900 C.2     1  UNL1        0.0000
@<TRIPOS>BOND
     1     1     2    1
     2     1     6    1
     3     3     2    2
     4     2     4    1
     5     6     7    1
     6     9     7    2
     7     9    11    1
     8     7     8    1
     9    11    12    2
    10     8    10    2
    11     4     5    1
    12    12    10    1
