@<TRIPOS>MOLECULE
/home/cewinharhar/GITHUB/reincatalyze/data/processed/docking_pred/2023-Apr-26-1657_maxeplen10_maxtrainstep1000_exh32_gamma099_lrac9e-4_lrcr1e-3/074f71e156faecc69724e62cc987f5104d3c940c_ligand_2.pdbqt
 12 12 0 0 0
SMALL
GASTEIGER

@<TRIPOS>ATOM
      1  C          8.3140   -5.9130   11.6200 C.3     1  UNL1        0.1270
      2  C          7.7290   -4.5700   11.3900 C.2     1  UNL1        0.3030
      3  O          7.7030   -4.0590   10.2430 O.2     1  UNL1       -0.2520
      4  O          7.1950   -3.8400   12.4390 O.3     1  UNL1       -0.4810
      5  H          7.4890   -2.8690   12.5750 H       1  UNL1        0.2960
      6  C          8.7950   -6.4480   10.3060 C.3     1  UNL1        0.0470
      7  C         10.0580   -7.1780   10.3880 C.2     1  UNL1       -0.0470
      8  C         11.2600   -6.5100   10.3550 C.2     1  UNL1        0.0040
      9  C         10.0350   -8.5490   10.5010 C.2     1  UNL1        0.0040
     10  C         12.4280   -7.2720   10.4390 C.2     1  UNL1        0.0000
     11  C         11.1900   -9.3010   10.5830 C.2     1  UNL1        0.0000
     12  C         12.3990   -8.6390   10.5500 C.2     1  UNL1        0.0000
@<TRIPOS>BOND
     1     3     2    2
     2     6     7    1
     3     6     1    1
     4     8     7    2
     5     8    10    1
     6     7     9    1
     7    10    12    2
     8     9    11    2
     9    12    11    1
    10     2     1    1
    11     2     4    1
    12     4     5    1
