@<TRIPOS>MOLECULE
/home/cewinharhar/GITHUB/reincatalyze/data/processed/docking_pred/2023-Apr-26-1657_maxeplen10_maxtrainstep1000_exh32_gamma099_lrac9e-4_lrcr1e-3/074f71e156faecc69724e62cc987f5104d3c940c_ligand_2.pdbqt
 12 12 0 0 0
SMALL
GASTEIGER

@<TRIPOS>ATOM
      1  C          6.5140   -0.5800    2.7820 C.3     1  UNL1        0.1270
      2  C          7.2110   -1.5470    1.9010 C.2     1  UNL1        0.3030
      3  O          8.3700   -1.3210    1.4760 O.2     1  UNL1       -0.2520
      4  O          6.5990   -2.7310    1.5230 O.3     1  UNL1       -0.4810
      5  H          7.1580   -3.5860    1.4620 H       1  UNL1        0.2960
      6  C          5.3400   -0.0240    2.0350 C.3     1  UNL1        0.0470
      7  C          5.5910    1.2740    1.4130 C.2     1  UNL1       -0.0470
      8  C          6.5830    2.1010    1.8870 C.2     1  UNL1        0.0040
      9  C          4.8230    1.6650    0.3400 C.2     1  UNL1        0.0040
     10  C          6.7680    3.3270    1.2440 C.2     1  UNL1        0.0000
     11  C          5.0070    2.8780   -0.2940 C.2     1  UNL1        0.0000
     12  C          5.9980    3.7120    0.1750 C.2     1  UNL1        0.0000
@<TRIPOS>BOND
     1    11    12    2
     2    11     9    1
     3    12    10    1
     4     9     7    2
     5    10     8    2
     6     7     8    1
     7     7     6    1
     8     5     4    1
     9     3     2    2
    10     4     2    1
    11     2     1    1
    12     6     1    1
