MODEL 1
REMARK VINA RESULT:      -5.6      0.000      0.000
REMARK SMILES O=C(O)CCc1ccccc1
REMARK SMILES IDX 4 1 2 2 1 3 3 4 5 6 6 7 7 8 11 9 8 10 10 11 9 12
REMARK H PARENT 3 5
REMARK Flexibility Score: inf
ROOT
ATOM      1  C   UNL     1       6.433  -0.523   2.727  1.00  0.00     0.127 C 
ENDROOT
BRANCH   1   2
ATOM      2  C   UNL     1       7.152  -1.510   1.887  1.00  0.00     0.303 C 
ATOM      3  O   UNL     1       8.318  -1.289   1.476  1.00  0.00    -0.252 OA
BRANCH   2   4
ATOM      4  O   UNL     1       6.553  -2.708   1.531  1.00  0.00    -0.481 OA
ATOM      5  H   UNL     1       6.625  -3.036   0.564  1.00  0.00     0.296 HD
ENDBRANCH   2   4
ENDBRANCH   1   2
BRANCH   1   6
ATOM      6  C   UNL     1       5.285   0.023   1.934  1.00  0.00     0.047 C 
BRANCH   6   7
ATOM      7  C   UNL     1       5.550   1.323   1.321  1.00  0.00    -0.047 A 
ATOM      8  C   UNL     1       4.860   1.727   0.202  1.00  0.00     0.004 A 
ATOM      9  C   UNL     1       6.502   2.146   1.878  1.00  0.00     0.004 A 
ATOM     10  C   UNL     1       5.164   2.983  -0.329  1.00  0.00     0.000 A 
ATOM     11  C   UNL     1       6.802   3.387   1.351  1.00  0.00     0.000 A 
ATOM     12  C   UNL     1       6.115   3.799   0.230  1.00  0.00     0.000 A 
ENDBRANCH   6   7
ENDBRANCH   1   6
TORSDOF 4
ENDMDL
MODEL 2
REMARK VINA RESULT:      -5.5      0.121      1.439
REMARK SMILES O=C(O)CCc1ccccc1
REMARK SMILES IDX 4 1 2 2 1 3 3 4 5 6 6 7 7 8 11 9 8 10 10 11 9 12
REMARK H PARENT 3 5
REMARK Flexibility Score: inf
ROOT
ATOM      1  C   UNL     1       6.514  -0.580   2.782  1.00  0.00     0.127 C 
ENDROOT
BRANCH   1   2
ATOM      2  C   UNL     1       7.211  -1.547   1.901  1.00  0.00     0.303 C 
ATOM      3  O   UNL     1       8.370  -1.321   1.476  1.00  0.00    -0.252 OA
BRANCH   2   4
ATOM      4  O   UNL     1       6.599  -2.731   1.523  1.00  0.00    -0.481 OA
ATOM      5  H   UNL     1       7.158  -3.586   1.462  1.00  0.00     0.296 HD
ENDBRANCH   2   4
ENDBRANCH   1   2
BRANCH   1   6
ATOM      6  C   UNL     1       5.340  -0.024   2.035  1.00  0.00     0.047 C 
BRANCH   6   7
ATOM      7  C   UNL     1       5.591   1.274   1.413  1.00  0.00    -0.047 A 
ATOM      8  C   UNL     1       6.583   2.101   1.887  1.00  0.00     0.004 A 
ATOM      9  C   UNL     1       4.823   1.665   0.340  1.00  0.00     0.004 A 
ATOM     10  C   UNL     1       6.768   3.327   1.244  1.00  0.00     0.000 A 
ATOM     11  C   UNL     1       5.007   2.878  -0.294  1.00  0.00     0.000 A 
ATOM     12  C   UNL     1       5.998   3.712   0.175  1.00  0.00     0.000 A 
ENDBRANCH   6   7
ENDBRANCH   1   6
TORSDOF 4
ENDMDL
MODEL 3
REMARK VINA RESULT:      -3.7      2.952      4.720
REMARK SMILES O=C(O)CCc1ccccc1
REMARK SMILES IDX 4 1 2 2 1 3 3 4 5 6 6 7 7 8 11 9 8 10 10 11 9 12
REMARK H PARENT 3 5
REMARK Flexibility Score: inf
ROOT
ATOM      1  C   UNL     1       5.576   2.998   0.081  1.00  0.00     0.127 C 
ENDROOT
BRANCH   1   2
ATOM      2  C   UNL     1       6.248   4.087   0.828  1.00  0.00     0.303 C 
ATOM      3  O   UNL     1       7.159   4.773   0.300  1.00  0.00    -0.252 OA
BRANCH   2   4
ATOM      4  O   UNL     1       5.890   4.378   2.134  1.00  0.00    -0.481 OA
ATOM      5  H   UNL     1       4.898   4.476   2.371  1.00  0.00     0.296 HD
ENDBRANCH   2   4
ENDBRANCH   1   2
BRANCH   1   6
ATOM      6  C   UNL     1       4.827   2.147   1.061  1.00  0.00     0.047 C 
BRANCH   6   7
ATOM      7  C   UNL     1       5.539   0.935   1.462  1.00  0.00    -0.047 A 
ATOM      8  C   UNL     1       6.782   1.010   2.046  1.00  0.00     0.004 A 
ATOM      9  C   UNL     1       4.951  -0.290   1.250  1.00  0.00     0.004 A 
ATOM     10  C   UNL     1       7.404  -0.189   2.404  1.00  0.00     0.000 A 
ATOM     11  C   UNL     1       5.566  -1.474   1.604  1.00  0.00     0.000 A 
ATOM     12  C   UNL     1       6.812  -1.408   2.190  1.00  0.00     0.000 A 
ENDBRANCH   6   7
ENDBRANCH   1   6
TORSDOF 4
ENDMDL
MODEL 4
REMARK VINA RESULT:      -3.7     11.827     14.314
REMARK SMILES O=C(O)CCc1ccccc1
REMARK SMILES IDX 4 1 2 2 1 3 3 4 5 6 6 7 7 8 11 9 8 10 10 11 9 12
REMARK H PARENT 3 5
REMARK Flexibility Score: inf
ROOT
ATOM      1  C   UNL     1       8.026  -6.370  10.871  1.00  0.00     0.127 C 
ENDROOT
BRANCH   1   2
ATOM      2  C   UNL     1       8.349  -4.958  11.184  1.00  0.00     0.303 C 
ATOM      3  O   UNL     1       7.577  -4.025  10.853  1.00  0.00    -0.252 OA
BRANCH   2   4
ATOM      4  O   UNL     1       9.517  -4.628  11.852  1.00  0.00    -0.481 OA
ATOM      5  H   UNL     1       9.460  -4.179  12.770  1.00  0.00     0.296 HD
ENDBRANCH   2   4
ENDBRANCH   1   2
BRANCH   1   6
ATOM      6  C   UNL     1       8.432  -7.216  12.040  1.00  0.00     0.047 C 
BRANCH   6   7
ATOM      7  C   UNL     1       9.343  -8.306  11.696  1.00  0.00    -0.047 A 
ATOM      8  C   UNL     1      10.279  -8.153  10.700  1.00  0.00     0.004 A 
ATOM      9  C   UNL     1       9.256  -9.495  12.383  1.00  0.00     0.004 A 
ATOM     10  C   UNL     1      11.117  -9.236  10.426  1.00  0.00     0.000 A 
ATOM     11  C   UNL     1      10.085 -10.565  12.110  1.00  0.00     0.000 A 
ATOM     12  C   UNL     1      11.026 -10.420  11.114  1.00  0.00     0.000 A 
ENDBRANCH   6   7
ENDBRANCH   1   6
TORSDOF 4
ENDMDL
MODEL 5
REMARK VINA RESULT:      -3.7     11.622     13.381
REMARK SMILES O=C(O)CCc1ccccc1
REMARK SMILES IDX 4 1 2 2 1 3 3 4 5 6 6 7 7 8 11 9 8 10 10 11 9 12
REMARK H PARENT 3 5
REMARK Flexibility Score: inf
ROOT
ATOM      1  C   UNL     1       8.314  -5.913  11.620  1.00  0.00     0.127 C 
ENDROOT
BRANCH   1   2
ATOM      2  C   UNL     1       7.729  -4.570  11.390  1.00  0.00     0.303 C 
ATOM      3  O   UNL     1       7.703  -4.059  10.243  1.00  0.00    -0.252 OA
BRANCH   2   4
ATOM      4  O   UNL     1       7.195  -3.840  12.439  1.00  0.00    -0.481 OA
ATOM      5  H   UNL     1       7.489  -2.869  12.575  1.00  0.00     0.296 HD
ENDBRANCH   2   4
ENDBRANCH   1   2
BRANCH   1   6
ATOM      6  C   UNL     1       8.795  -6.448  10.306  1.00  0.00     0.047 C 
BRANCH   6   7
ATOM      7  C   UNL     1      10.058  -7.178  10.388  1.00  0.00    -0.047 A 
ATOM      8  C   UNL     1      11.260  -6.510  10.355  1.00  0.00     0.004 A 
ATOM      9  C   UNL     1      10.035  -8.549  10.501  1.00  0.00     0.004 A 
ATOM     10  C   UNL     1      12.428  -7.272  10.439  1.00  0.00     0.000 A 
ATOM     11  C   UNL     1      11.190  -9.301  10.583  1.00  0.00     0.000 A 
ATOM     12  C   UNL     1      12.399  -8.639  10.550  1.00  0.00     0.000 A 
ENDBRANCH   6   7
ENDBRANCH   1   6
TORSDOF 4
ENDMDL
