@<TRIPOS>MOLECULE
/home/cewinharhar/GITHUB/reincatalyze/data/processed/docking_pred/2023-Apr-26-1657_maxeplen10_maxtrainstep1000_exh32_gamma099_lrac9e-4_lrcr1e-3/074f71e156faecc69724e62cc987f5104d3c940c_ligand_2.pdbqt
 12 12 0 0 0
SMALL
GASTEIGER

@<TRIPOS>ATOM
      1  C          8.0260   -6.3700   10.8710 C.3     1  UNL1        0.1270
      2  C          8.3490   -4.9580   11.1840 C.2     1  UNL1        0.3030
      3  O          7.5770   -4.0250   10.8530 O.2     1  UNL1       -0.2520
      4  O          9.5170   -4.6280   11.8520 O.3     1  UNL1       -0.4810
      5  H          9.4600   -4.1790   12.7700 H       1  UNL1        0.2960
      6  C          8.4320   -7.2160   12.0400 C.3     1  UNL1        0.0470
      7  C          9.3430   -8.3060   11.6960 C.2     1  UNL1       -0.0470
      8  C         10.2790   -8.1530   10.7000 C.2     1  UNL1        0.0040
      9  C          9.2560   -9.4950   12.3830 C.2     1  UNL1        0.0040
     10  C         11.1170   -9.2360   10.4260 C.2     1  UNL1        0.0000
     11  C         10.0850  -10.5650   12.1100 C.2     1  UNL1        0.0000
     12  C         11.0260  -10.4200   11.1140 C.2     1  UNL1        0.0000
@<TRIPOS>BOND
     1    10     8    1
     2    10    12    2
     3     8     7    2
     4     3     2    2
     5     1     2    1
     6     1     6    1
     7    12    11    1
     8     2     4    1
     9     7     6    1
    10     7     9    1
    11     4     5    1
    12    11     9    2
