@<TRIPOS>MOLECULE
/home/cewinharhar/GITHUB/reincatalyze/data/processed/docking_pred/2023-Apr-26-1657_maxeplen10_maxtrainstep1000_exh32_gamma099_lrac9e-4_lrcr1e-3/088b63c47bd4d7a6949fea46fb2e227d24226938_ligand_2.pdbqt
 12 12 0 0 0
SMALL
GASTEIGER

@<TRIPOS>ATOM
      1  C          8.4410   -0.5840   -2.1900 C.3     1  UNL1        0.1270
      2  C          8.4650   -1.8780   -2.9120 C.2     1  UNL1        0.3030
      3  O          9.5370   -2.5090   -3.0800 O.2     1  UNL1       -0.2520
      4  O          7.3000   -2.4280   -3.4220 O.3     1  UNL1       -0.4810
      5  H          7.3590   -3.0970   -4.1950 H       1  UNL1        0.2960
      6  C          7.0220   -0.1060   -2.1270 C.3     1  UNL1        0.0470
      7  C          6.4940    0.0140   -0.7690 C.2     1  UNL1       -0.0470
      8  C          6.6230   -1.0200    0.1290 C.2     1  UNL1        0.0040
      9  C          5.8660    1.1790   -0.3940 C.2     1  UNL1        0.0040
     10  C          6.0960   -0.8350    1.4100 C.2     1  UNL1        0.0000
     11  C          5.3460    1.3600    0.8720 C.2     1  UNL1        0.0000
     12  C          5.4690    0.3290    1.7780 C.2     1  UNL1        0.0000
@<TRIPOS>BOND
     1     5     4    1
     2     4     2    1
     3     3     2    2
     4     2     1    1
     5     1     6    1
     6     6     7    1
     7     7     9    2
     8     7     8    1
     9     9    11    1
    10     8    10    2
    11    11    12    2
    12    10    12    1
