@<TRIPOS>MOLECULE
/home/cewinharhar/GITHUB/reincatalyze/data/processed/docking_pred/2023-Apr-26-1657_maxeplen10_maxtrainstep1000_exh32_gamma099_lrac9e-4_lrcr1e-3/088b63c47bd4d7a6949fea46fb2e227d24226938_ligand_2.pdbqt
 12 12 0 0 0
SMALL
GASTEIGER

@<TRIPOS>ATOM
      1  C          8.3940   -0.6800   -2.0410 C.3     1  UNL1        0.1270
      2  C          8.3690   -1.9100   -2.8660 C.2     1  UNL1        0.3030
      3  O          7.2850   -2.4120   -3.2530 O.2     1  UNL1       -0.2520
      4  O          9.5460   -2.5430   -3.2330 O.3     1  UNL1       -0.4810
      5  H         10.2700   -2.7010   -2.5280 H       1  UNL1        0.2960
      6  C          7.0210   -0.0810   -2.0470 C.3     1  UNL1        0.0470
      7  C          6.4470    0.1030   -0.7150 C.2     1  UNL1       -0.0470
      8  C          5.7980    1.2700   -0.3830 C.2     1  UNL1        0.0040
      9  C          6.5590   -0.9100    0.2100 C.2     1  UNL1        0.0040
     10  C          5.2730    1.3750    0.9070 C.2     1  UNL1        0.0000
     11  C          6.0400   -0.8030    1.4850 C.2     1  UNL1        0.0000
     12  C          5.3890    0.3630    1.8250 C.2     1  UNL1        0.0000
@<TRIPOS>BOND
     1     3     2    2
     2     4     2    1
     3     4     5    1
     4     2     1    1
     5     6     1    1
     6     6     7    1
     7     7     8    2
     8     7     9    1
     9     8    10    1
    10     9    11    2
    11    10    12    2
    12    11    12    1
