@<TRIPOS>MOLECULE
/home/cewinharhar/GITHUB/reincatalyze/data/processed/docking_pred/2023-Apr-26-1657_maxeplen10_maxtrainstep1000_exh32_gamma099_lrac9e-4_lrcr1e-3/088b63c47bd4d7a6949fea46fb2e227d24226938_ligand_2.pdbqt
 12 12 0 0 0
SMALL
GASTEIGER

@<TRIPOS>ATOM
      1  C          4.9890    1.7620    0.6920 C.3     1  UNL1        0.1270
      2  C          4.4750    1.0970    1.9120 C.2     1  UNL1        0.3030
      3  O          5.1290    0.1900    2.4830 O.2     1  UNL1       -0.2520
      4  O          3.2550    1.4610    2.4580 O.3     1  UNL1       -0.4810
      5  H          3.2000    1.6920    3.4540 H       1  UNL1        0.2960
      6  C          6.4870    1.7490    0.7440 C.3     1  UNL1        0.0470
      7  C          7.1130    0.9880   -0.3360 C.2     1  UNL1       -0.0470
      8  C          6.4040    0.0310   -1.0240 C.2     1  UNL1        0.0040
      9  C          8.4260    1.2390   -0.6610 C.2     1  UNL1        0.0040
     10  C          7.0650   -0.6570   -2.0440 C.2     1  UNL1        0.0000
     11  C          9.0780    0.5570   -1.6690 C.2     1  UNL1        0.0000
     12  C          8.3750   -0.4030   -2.3630 C.2     1  UNL1        0.0000
@<TRIPOS>BOND
     1    12    10    2
     2    12    11    1
     3    10     8    1
     4    11     9    2
     5     8     7    2
     6     9     7    1
     7     7     6    1
     8     1     6    1
     9     1     2    1
    10     2     4    1
    11     2     3    2
    12     4     5    1
