@<TRIPOS>MOLECULE
/home/cewinharhar/GITHUB/reincatalyze/data/processed/docking_pred/2023-Apr-26-1657_maxeplen10_maxtrainstep1000_exh32_gamma099_lrac9e-4_lrcr1e-3/088b63c47bd4d7a6949fea46fb2e227d24226938_ligand_2.pdbqt
 12 12 0 0 0
SMALL
GASTEIGER

@<TRIPOS>ATOM
      1  C          5.5680    2.7510   -0.1060 C.3     1  UNL1        0.1270
      2  C          6.2130    3.7620    0.7650 C.2     1  UNL1        0.3030
      3  O          6.0740    3.7290    2.0130 O.2     1  UNL1       -0.2520
      4  O          6.9880    4.7750    0.2230 O.3     1  UNL1       -0.4810
      5  H          6.5280    5.5840   -0.2020 H       1  UNL1        0.2960
      6  C          4.9670    1.6920    0.7670 C.3     1  UNL1        0.0470
      7  C          5.7570    0.4640    0.8420 C.2     1  UNL1       -0.0470
      8  C          6.4970    0.0360   -0.2360 C.2     1  UNL1        0.0040
      9  C          5.7570   -0.2650    2.0090 C.2     1  UNL1        0.0040
     10  C          7.2280   -1.1450   -0.0940 C.2     1  UNL1        0.0000
     11  C          6.4800   -1.4320    2.1480 C.2     1  UNL1        0.0000
     12  C          7.2230   -1.8680    1.0730 C.2     1  UNL1        0.0000
@<TRIPOS>BOND
     1     8    10    1
     2     8     7    2
     3     5     4    1
     4     1     2    1
     5     1     6    1
     6    10    12    2
     7     4     2    1
     8     2     3    2
     9     6     7    1
    10     7     9    1
    11    12    11    1
    12     9    11    2
