MODEL 1
REMARK VINA RESULT:      -7.3      0.000      0.000
REMARK SMILES O=C(O)CCc1ccccc1
REMARK SMILES IDX 4 1 2 2 1 3 3 4 5 6 6 7 7 8 11 9 8 10 10 11 9 12
REMARK H PARENT 3 5
REMARK Flexibility Score: inf
ROOT
ATOM      1  C   UNL     1       8.441  -0.584  -2.190  1.00  0.00     0.127 C 
ENDROOT
BRANCH   1   2
ATOM      2  C   UNL     1       8.465  -1.878  -2.912  1.00  0.00     0.303 C 
ATOM      3  O   UNL     1       9.537  -2.509  -3.080  1.00  0.00    -0.252 OA
BRANCH   2   4
ATOM      4  O   UNL     1       7.300  -2.428  -3.422  1.00  0.00    -0.481 OA
ATOM      5  H   UNL     1       7.359  -3.097  -4.195  1.00  0.00     0.296 HD
ENDBRANCH   2   4
ENDBRANCH   1   2
BRANCH   1   6
ATOM      6  C   UNL     1       7.022  -0.106  -2.127  1.00  0.00     0.047 C 
BRANCH   6   7
ATOM      7  C   UNL     1       6.494   0.014  -0.769  1.00  0.00    -0.047 A 
ATOM      8  C   UNL     1       6.623  -1.020   0.129  1.00  0.00     0.004 A 
ATOM      9  C   UNL     1       5.866   1.179  -0.394  1.00  0.00     0.004 A 
ATOM     10  C   UNL     1       6.096  -0.835   1.410  1.00  0.00     0.000 A 
ATOM     11  C   UNL     1       5.346   1.360   0.872  1.00  0.00     0.000 A 
ATOM     12  C   UNL     1       5.469   0.329   1.778  1.00  0.00     0.000 A 
ENDBRANCH   6   7
ENDBRANCH   1   6
TORSDOF 4
ENDMDL
MODEL 2
REMARK VINA RESULT:      -7.3      0.128      1.733
REMARK SMILES O=C(O)CCc1ccccc1
REMARK SMILES IDX 4 1 2 2 1 3 3 4 5 6 6 7 7 8 11 9 8 10 10 11 9 12
REMARK H PARENT 3 5
REMARK Flexibility Score: inf
ROOT
ATOM      1  C   UNL     1       8.394  -0.680  -2.041  1.00  0.00     0.127 C 
ENDROOT
BRANCH   1   2
ATOM      2  C   UNL     1       8.369  -1.910  -2.866  1.00  0.00     0.303 C 
ATOM      3  O   UNL     1       7.285  -2.412  -3.253  1.00  0.00    -0.252 OA
BRANCH   2   4
ATOM      4  O   UNL     1       9.546  -2.543  -3.233  1.00  0.00    -0.481 OA
ATOM      5  H   UNL     1      10.270  -2.701  -2.528  1.00  0.00     0.296 HD
ENDBRANCH   2   4
ENDBRANCH   1   2
BRANCH   1   6
ATOM      6  C   UNL     1       7.021  -0.081  -2.047  1.00  0.00     0.047 C 
BRANCH   6   7
ATOM      7  C   UNL     1       6.447   0.103  -0.715  1.00  0.00    -0.047 A 
ATOM      8  C   UNL     1       5.798   1.270  -0.383  1.00  0.00     0.004 A 
ATOM      9  C   UNL     1       6.559  -0.910   0.210  1.00  0.00     0.004 A 
ATOM     10  C   UNL     1       5.273   1.375   0.907  1.00  0.00     0.000 A 
ATOM     11  C   UNL     1       6.040  -0.803   1.485  1.00  0.00     0.000 A 
ATOM     12  C   UNL     1       5.389   0.363   1.825  1.00  0.00     0.000 A 
ENDBRANCH   6   7
ENDBRANCH   1   6
TORSDOF 4
ENDMDL
MODEL 3
REMARK VINA RESULT:      -6.8      3.372      5.047
REMARK SMILES O=C(O)CCc1ccccc1
REMARK SMILES IDX 4 1 2 2 1 3 3 4 5 6 6 7 7 8 11 9 8 10 10 11 9 12
REMARK H PARENT 3 5
REMARK Flexibility Score: inf
ROOT
ATOM      1  C   UNL     1       4.989   1.762   0.692  1.00  0.00     0.127 C 
ENDROOT
BRANCH   1   2
ATOM      2  C   UNL     1       4.475   1.097   1.912  1.00  0.00     0.303 C 
ATOM      3  O   UNL     1       5.129   0.190   2.483  1.00  0.00    -0.252 OA
BRANCH   2   4
ATOM      4  O   UNL     1       3.255   1.461   2.458  1.00  0.00    -0.481 OA
ATOM      5  H   UNL     1       3.200   1.692   3.454  1.00  0.00     0.296 HD
ENDBRANCH   2   4
ENDBRANCH   1   2
BRANCH   1   6
ATOM      6  C   UNL     1       6.487   1.749   0.744  1.00  0.00     0.047 C 
BRANCH   6   7
ATOM      7  C   UNL     1       7.113   0.988  -0.336  1.00  0.00    -0.047 A 
ATOM      8  C   UNL     1       6.404   0.031  -1.024  1.00  0.00     0.004 A 
ATOM      9  C   UNL     1       8.426   1.239  -0.661  1.00  0.00     0.004 A 
ATOM     10  C   UNL     1       7.065  -0.657  -2.044  1.00  0.00     0.000 A 
ATOM     11  C   UNL     1       9.078   0.557  -1.669  1.00  0.00     0.000 A 
ATOM     12  C   UNL     1       8.375  -0.403  -2.363  1.00  0.00     0.000 A 
ENDBRANCH   6   7
ENDBRANCH   1   6
TORSDOF 4
ENDMDL
MODEL 4
REMARK VINA RESULT:      -6.6      3.811      4.929
REMARK SMILES O=C(O)CCc1ccccc1
REMARK SMILES IDX 4 1 2 2 1 3 3 4 5 6 6 7 7 8 11 9 8 10 10 11 9 12
REMARK H PARENT 3 5
REMARK Flexibility Score: inf
ROOT
ATOM      1  C   UNL     1       5.568   2.751  -0.106  1.00  0.00     0.127 C 
ENDROOT
BRANCH   1   2
ATOM      2  C   UNL     1       6.213   3.762   0.765  1.00  0.00     0.303 C 
ATOM      3  O   UNL     1       6.074   3.729   2.013  1.00  0.00    -0.252 OA
BRANCH   2   4
ATOM      4  O   UNL     1       6.988   4.775   0.223  1.00  0.00    -0.481 OA
ATOM      5  H   UNL     1       6.528   5.584  -0.202  1.00  0.00     0.296 HD
ENDBRANCH   2   4
ENDBRANCH   1   2
BRANCH   1   6
ATOM      6  C   UNL     1       4.967   1.692   0.767  1.00  0.00     0.047 C 
BRANCH   6   7
ATOM      7  C   UNL     1       5.757   0.464   0.842  1.00  0.00    -0.047 A 
ATOM      8  C   UNL     1       6.497   0.036  -0.236  1.00  0.00     0.004 A 
ATOM      9  C   UNL     1       5.757  -0.265   2.009  1.00  0.00     0.004 A 
ATOM     10  C   UNL     1       7.228  -1.145  -0.094  1.00  0.00     0.000 A 
ATOM     11  C   UNL     1       6.480  -1.432   2.148  1.00  0.00     0.000 A 
ATOM     12  C   UNL     1       7.223  -1.868   1.073  1.00  0.00     0.000 A 
ENDBRANCH   6   7
ENDBRANCH   1   6
TORSDOF 4
ENDMDL
MODEL 5
REMARK VINA RESULT:      -6.6      1.996      2.680
REMARK SMILES O=C(O)CCc1ccccc1
REMARK SMILES IDX 4 1 2 2 1 3 3 4 5 6 6 7 7 8 11 9 8 10 10 11 9 12
REMARK H PARENT 3 5
REMARK Flexibility Score: inf
ROOT
ATOM      1  C   UNL     1       8.266   0.485  -1.947  1.00  0.00     0.127 C 
ENDROOT
BRANCH   1   2
ATOM      2  C   UNL     1       9.464   0.429  -1.076  1.00  0.00     0.303 C 
ATOM      3  O   UNL     1       9.530  -0.373  -0.112  1.00  0.00    -0.252 OA
BRANCH   2   4
ATOM      4  O   UNL     1      10.546   1.264  -1.302  1.00  0.00    -0.481 OA
ATOM      5  H   UNL     1      11.357   1.212  -0.679  1.00  0.00     0.296 HD
ENDBRANCH   2   4
ENDBRANCH   1   2
BRANCH   1   6
ATOM      6  C   UNL     1       7.227  -0.432  -1.378  1.00  0.00     0.047 C 
BRANCH   6   7
ATOM      7  C   UNL     1       6.396   0.180  -0.342  1.00  0.00    -0.047 A 
ATOM      8  C   UNL     1       5.802   1.404  -0.548  1.00  0.00     0.004 A 
ATOM      9  C   UNL     1       6.211  -0.483   0.848  1.00  0.00     0.004 A 
ATOM     10  C   UNL     1       5.022   1.928   0.485  1.00  0.00     0.000 A 
ATOM     11  C   UNL     1       5.439   0.036   1.869  1.00  0.00     0.000 A 
ATOM     12  C   UNL     1       4.841   1.262   1.671  1.00  0.00     0.000 A 
ENDBRANCH   6   7
ENDBRANCH   1   6
TORSDOF 4
ENDMDL
