@<TRIPOS>MOLECULE
/home/cewinharhar/GITHUB/reincatalyze/data/processed/docking_pred/2023-Apr-26-1657_maxeplen10_maxtrainstep1000_exh32_gamma099_lrac9e-4_lrcr1e-3/088b63c47bd4d7a6949fea46fb2e227d24226938_ligand_2.pdbqt
 12 12 0 0 0
SMALL
GASTEIGER

@<TRIPOS>ATOM
      1  C          8.2660    0.4850   -1.9470 C.3     1  UNL1        0.1270
      2  C          9.4640    0.4290   -1.0760 C.2     1  UNL1        0.3030
      3  O          9.5300   -0.3730   -0.1120 O.2     1  UNL1       -0.2520
      4  O         10.5460    1.2640   -1.3020 O.3     1  UNL1       -0.4810
      5  H         11.3570    1.2120   -0.6790 H       1  UNL1        0.2960
      6  C          7.2270   -0.4320   -1.3780 C.3     1  UNL1        0.0470
      7  C          6.3960    0.1800   -0.3420 C.2     1  UNL1       -0.0470
      8  C          5.8020    1.4040   -0.5480 C.2     1  UNL1        0.0040
      9  C          6.2110   -0.4830    0.8480 C.2     1  UNL1        0.0040
     10  C          5.0220    1.9280    0.4850 C.2     1  UNL1        0.0000
     11  C          5.4390    0.0360    1.8690 C.2     1  UNL1        0.0000
     12  C          4.8410    1.2620    1.6710 C.2     1  UNL1        0.0000
@<TRIPOS>BOND
     1     1     6    1
     2     1     2    1
     3     6     7    1
     4     4     2    1
     5     4     5    1
     6     2     3    2
     7     8     7    2
     8     8    10    1
     9     7     9    1
    10    10    12    2
    11     9    11    2
    12    12    11    1
