@<TRIPOS>MOLECULE
/home/cewinharhar/GITHUB/reincatalyze/data/processed/docking_pred/2023-Apr-26-1657_maxeplen10_maxtrainstep1000_exh32_gamma099_lrac9e-4_lrcr1e-3/08a74a7e320cd1ecb560e86b752820c061dfae11_ligand_2.pdbqt
 12 12 0 0 0
SMALL
GASTEIGER

@<TRIPOS>ATOM
      1  C          5.0520    1.6940    0.6910 C.3     1  UNL1        0.1270
      2  C          4.5890    1.0180    1.9270 C.2     1  UNL1        0.3030
      3  O          5.2970    0.1530    2.4990 O.2     1  UNL1       -0.2520
      4  O          3.3590    1.3240    2.4850 O.3     1  UNL1       -0.4810
      5  H          2.5040    1.0710    1.9820 H       1  UNL1        0.2960
      6  C          6.5490    1.7480    0.7170 C.3     1  UNL1        0.0470
      7  C          7.1900    0.9970   -0.3610 C.2     1  UNL1       -0.0470
      8  C          8.5130    1.2040   -0.6730 C.2     1  UNL1        0.0040
      9  C          6.4530    0.0730   -1.0660 C.2     1  UNL1        0.0040
     10  C          9.0600    0.4510   -1.7140 C.2     1  UNL1        0.0000
     11  C          6.9950   -0.6710   -2.0950 C.2     1  UNL1        0.0000
     12  C          8.3200   -0.4690   -2.4140 C.2     1  UNL1        0.0000
@<TRIPOS>BOND
     1    12    11    2
     2    12    10    1
     3    11     9    1
     4    10     8    2
     5     9     7    2
     6     8     7    1
     7     7     6    1
     8     1     6    1
     9     1     2    1
    10     2     4    1
    11     2     3    2
    12     5     4    1
