@<TRIPOS>MOLECULE
/home/cewinharhar/GITHUB/reincatalyze/data/processed/docking_pred/2023-Apr-26-1657_maxeplen10_maxtrainstep1000_exh32_gamma099_lrac9e-4_lrcr1e-3/08a74a7e320cd1ecb560e86b752820c061dfae11_ligand_2.pdbqt
 12 12 0 0 0
SMALL
GASTEIGER

@<TRIPOS>ATOM
      1  C          8.1640    0.2590   -2.1270 C.3     1  UNL1        0.1270
      2  C          9.3310    0.3570   -1.2190 C.2     1  UNL1        0.3030
      3  O          9.4520   -0.4070   -0.2290 O.2     1  UNL1       -0.2520
      4  O         10.3250    1.2980   -1.4390 O.3     1  UNL1       -0.4810
      5  H         10.2940    1.8700   -2.2880 H       1  UNL1        0.2960
      6  C          7.1070   -0.5570   -1.4470 C.3     1  UNL1        0.0470
      7  C          6.3290    0.1850   -0.4560 C.2     1  UNL1       -0.0470
      8  C          6.1160   -0.3310    0.8010 C.2     1  UNL1        0.0040
      9  C          5.8100    1.4140   -0.7930 C.2     1  UNL1        0.0040
     10  C          5.3650    0.4330    1.6970 C.2     1  UNL1        0.0000
     11  C          5.0670    2.1680    0.0940 C.2     1  UNL1        0.0000
     12  C          4.8490    1.6570    1.3550 C.2     1  UNL1        0.0000
@<TRIPOS>BOND
     1     5     4    1
     2     1     6    1
     3     1     2    1
     4     6     7    1
     5     4     2    1
     6     2     3    2
     7     9     7    2
     8     9    11    1
     9     7     8    1
    10    11    12    2
    11     8    10    2
    12    12    10    1
