@<TRIPOS>MOLECULE
/home/cewinharhar/GITHUB/reincatalyze/data/processed/docking_pred/2023-Apr-26-1657_maxeplen10_maxtrainstep1000_exh32_gamma099_lrac9e-4_lrcr1e-3/08a74a7e320cd1ecb560e86b752820c061dfae11_ligand_2.pdbqt
 12 12 0 0 0
SMALL
GASTEIGER

@<TRIPOS>ATOM
      1  C          8.4400   -0.6160   -2.1660 C.3     1  UNL1        0.1270
      2  C          8.4810   -1.8940   -2.9150 C.2     1  UNL1        0.3030
      3  O          9.5630   -2.5020   -3.1050 O.2     1  UNL1       -0.2520
      4  O          7.3220   -2.4540   -3.4290 O.3     1  UNL1       -0.4810
      5  H          7.2050   -3.4700   -3.4070 H       1  UNL1        0.2960
      6  C          7.0210   -0.1360   -2.1320 C.3     1  UNL1        0.0470
      7  C          6.4820    0.0310   -0.7840 C.2     1  UNL1       -0.0470
      8  C          6.6150   -0.9660    0.1550 C.2     1  UNL1        0.0040
      9  C          5.8370    1.2020   -0.4580 C.2     1  UNL1        0.0040
     10  C          6.0760   -0.7380    1.4230 C.2     1  UNL1        0.0000
     11  C          5.3050    1.4250    0.7960 C.2     1  UNL1        0.0000
     12  C          5.4340    0.4320    1.7420 C.2     1  UNL1        0.0000
@<TRIPOS>BOND
     1     4     5    1
     2     4     2    1
     3     3     2    2
     4     2     1    1
     5     1     6    1
     6     6     7    1
     7     7     9    2
     8     7     8    1
     9     9    11    1
    10     8    10    2
    11    11    12    2
    12    10    12    1
