@<TRIPOS>MOLECULE
/home/cewinharhar/GITHUB/reincatalyze/data/processed/docking_pred/2023-Apr-26-1657_maxeplen10_maxtrainstep1000_exh32_gamma099_lrac9e-4_lrcr1e-3/08a74a7e320cd1ecb560e86b752820c061dfae11_ligand_2.pdbqt
 12 12 0 0 0
SMALL
GASTEIGER

@<TRIPOS>ATOM
      1  C          8.3980   -0.6180   -2.1570 C.3     1  UNL1        0.1270
      2  C          8.4550   -1.8960   -2.9060 C.2     1  UNL1        0.3030
      3  O          9.5450   -2.4910   -3.0950 O.2     1  UNL1       -0.2520
      4  O          7.3030   -2.4700   -3.4190 O.3     1  UNL1       -0.4810
      5  H          6.3970   -2.2250   -3.0110 H       1  UNL1        0.2960
      6  C          6.9720   -0.1590   -2.1170 C.3     1  UNL1        0.0470
      7  C          6.4470    0.0340   -0.7670 C.2     1  UNL1       -0.0470
      8  C          5.8230    1.2080   -0.4160 C.2     1  UNL1        0.0040
      9  C          6.5800   -0.9780    0.1560 C.2     1  UNL1        0.0040
     10  C          5.3440    1.3230    0.8910 C.2     1  UNL1        0.0000
     11  C          6.1070   -0.8630    1.4480 C.2     1  UNL1        0.0000
     12  C          5.4810    0.3110    1.8080 C.2     1  UNL1        0.0000
@<TRIPOS>BOND
     1     4     5    1
     2     4     2    1
     3     3     2    2
     4     2     1    1
     5     1     6    1
     6     6     7    1
     7     7     8    2
     8     7     9    1
     9     8    10    1
    10     9    11    2
    11    10    12    2
    12    11    12    1
