@<TRIPOS>MOLECULE
/home/cewinharhar/GITHUB/reincatalyze/data/processed/docking_pred/2023-Apr-26-1657_maxeplen10_maxtrainstep1000_exh32_gamma099_lrac9e-4_lrcr1e-3/08a74a7e320cd1ecb560e86b752820c061dfae11_ligand_2.pdbqt
 12 12 0 0 0
SMALL
GASTEIGER

@<TRIPOS>ATOM
      1  C          5.3980    2.9060    0.0210 C.3     1  UNL1        0.1270
      2  C          6.2010    3.8880    0.7880 C.2     1  UNL1        0.3030
      3  O          6.8770    4.7710    0.2060 O.2     1  UNL1       -0.2520
      4  O          6.2270    3.8570    2.1730 O.3     1  UNL1       -0.4810
      5  H          6.7950    4.5410    2.6790 H       1  UNL1        0.2960
      6  C          4.9330    1.8390    0.9640 C.3     1  UNL1        0.0470
      7  C          5.7230    0.6100    0.9080 C.2     1  UNL1       -0.0470
      8  C          5.8290   -0.2090    2.0080 C.2     1  UNL1        0.0040
      9  C          6.3610    0.2750   -0.2640 C.2     1  UNL1        0.0040
     10  C          6.5990   -1.3680    1.8810 C.2     1  UNL1        0.0000
     11  C          7.1220   -0.8710   -0.3870 C.2     1  UNL1        0.0000
     12  C          7.2340   -1.6960    0.7100 C.2     1  UNL1        0.0000
@<TRIPOS>BOND
     1    11     9    1
     2    11    12    2
     3     9     7    2
     4     1     2    1
     5     1     6    1
     6     3     2    2
     7    12    10    1
     8     2     4    1
     9     7     6    1
    10     7     8    1
    11    10     8    2
    12     4     5    1
