@<TRIPOS>MOLECULE
/home/cewinharhar/GITHUB/reincatalyze/data/processed/docking_pred/2023-Apr-26-1657_maxeplen10_maxtrainstep1000_exh32_gamma099_lrac9e-4_lrcr1e-3/08d2e2d4a7c660d60546aaed77652d308bf13ce5_ligand_2.pdbqt
 12 12 0 0 0
SMALL
GASTEIGER

@<TRIPOS>ATOM
      1  C          8.2810   -0.8240   -1.9760 C.3     1  UNL1        0.1270
      2  C          8.4170   -2.0080   -2.8570 C.2     1  UNL1        0.3030
      3  O          9.5310   -2.5570   -3.0420 O.2     1  UNL1       -0.2520
      4  O          7.3140   -2.5420   -3.5030 O.3     1  UNL1       -0.4810
      5  H          6.5550   -1.9210   -3.7960 H       1  UNL1        0.2960
      6  C          7.5920   -1.2520   -0.7160 C.3     1  UNL1        0.0470
      7  C          6.6880   -0.2460   -0.1610 C.2     1  UNL1       -0.0470
      8  C          6.2990    0.8400   -0.9120 C.2     1  UNL1        0.0040
      9  C          6.2250   -0.3960    1.1250 C.2     1  UNL1        0.0040
     10  C          5.4330    1.7600   -0.3180 C.2     1  UNL1        0.0000
     11  C          5.3680    0.5160    1.7100 C.2     1  UNL1        0.0000
     12  C          4.9740    1.6060    0.9660 C.2     1  UNL1        0.0000
@<TRIPOS>BOND
     1     5     4    1
     2     4     2    1
     3     3     2    2
     4     2     1    1
     5     1     6    1
     6     8    10    1
     7     8     7    2
     8     6     7    1
     9    10    12    2
    10     7     9    1
    11    12    11    1
    12     9    11    2
