MODEL 1
REMARK VINA RESULT:      -7.3      0.000      0.000
REMARK SMILES O=C(O)CCc1ccccc1
REMARK SMILES IDX 4 1 2 2 1 3 3 4 5 6 6 7 7 8 11 9 8 10 10 11 9 12
REMARK H PARENT 3 5
REMARK Flexibility Score: inf
ROOT
ATOM      1  C   UNL     1       8.426  -0.590  -2.185  1.00  0.00     0.127 C 
ENDROOT
BRANCH   1   2
ATOM      2  C   UNL     1       8.481  -1.877  -2.918  1.00  0.00     0.303 C 
ATOM      3  O   UNL     1       9.568  -2.485  -3.084  1.00  0.00    -0.252 OA
BRANCH   2   4
ATOM      4  O   UNL     1       7.331  -2.446  -3.441  1.00  0.00    -0.481 OA
ATOM      5  H   UNL     1       6.448  -1.931  -3.387  1.00  0.00     0.296 HD
ENDBRANCH   2   4
ENDBRANCH   1   2
BRANCH   1   6
ATOM      6  C   UNL     1       7.001  -0.129  -2.151  1.00  0.00     0.047 C 
BRANCH   6   7
ATOM      7  C   UNL     1       6.469   0.059  -0.802  1.00  0.00    -0.047 A 
ATOM      8  C   UNL     1       5.835   1.228  -0.452  1.00  0.00     0.004 A 
ATOM      9  C   UNL     1       6.606  -0.953   0.120  1.00  0.00     0.004 A 
ATOM     10  C   UNL     1       5.351   1.338   0.853  1.00  0.00     0.000 A 
ATOM     11  C   UNL     1       6.127  -0.843   1.411  1.00  0.00     0.000 A 
ATOM     12  C   UNL     1       5.492   0.326   1.769  1.00  0.00     0.000 A 
ENDBRANCH   6   7
ENDBRANCH   1   6
TORSDOF 4
ENDMDL
MODEL 2
REMARK VINA RESULT:      -7.3      0.139      1.732
REMARK SMILES O=C(O)CCc1ccccc1
REMARK SMILES IDX 4 1 2 2 1 3 3 4 5 6 6 7 7 8 11 9 8 10 10 11 9 12
REMARK H PARENT 3 5
REMARK Flexibility Score: inf
ROOT
ATOM      1  C   UNL     1       8.433  -0.631  -2.108  1.00  0.00     0.127 C 
ENDROOT
BRANCH   1   2
ATOM      2  C   UNL     1       8.387  -1.890  -2.888  1.00  0.00     0.303 C 
ATOM      3  O   UNL     1       7.294  -2.408  -3.223  1.00  0.00    -0.252 OA
BRANCH   2   4
ATOM      4  O   UNL     1       9.555  -2.532  -3.269  1.00  0.00    -0.481 OA
ATOM      5  H   UNL     1      10.443  -2.024  -3.226  1.00  0.00     0.296 HD
ENDBRANCH   2   4
ENDBRANCH   1   2
BRANCH   1   6
ATOM      6  C   UNL     1       7.058  -0.036  -2.093  1.00  0.00     0.047 C 
BRANCH   6   7
ATOM      7  C   UNL     1       6.485   0.102  -0.755  1.00  0.00    -0.047 A 
ATOM      8  C   UNL     1       6.617  -0.904   0.175  1.00  0.00     0.004 A 
ATOM      9  C   UNL     1       5.810   1.256  -0.429  1.00  0.00     0.004 A 
ATOM     10  C   UNL     1       6.046  -0.703   1.433  1.00  0.00     0.000 A 
ATOM     11  C   UNL     1       5.245   1.452   0.815  1.00  0.00     0.000 A 
ATOM     12  C   UNL     1       5.373   0.450   1.752  1.00  0.00     0.000 A 
ENDBRANCH   6   7
ENDBRANCH   1   6
TORSDOF 4
ENDMDL
MODEL 3
REMARK VINA RESULT:      -7.2      0.639      1.089
REMARK SMILES O=C(O)CCc1ccccc1
REMARK SMILES IDX 4 1 2 2 1 3 3 4 5 6 6 7 7 8 11 9 8 10 10 11 9 12
REMARK H PARENT 3 5
REMARK Flexibility Score: inf
ROOT
ATOM      1  C   UNL     1       8.281  -0.824  -1.976  1.00  0.00     0.127 C 
ENDROOT
BRANCH   1   2
ATOM      2  C   UNL     1       8.417  -2.008  -2.857  1.00  0.00     0.303 C 
ATOM      3  O   UNL     1       9.531  -2.557  -3.042  1.00  0.00    -0.252 OA
BRANCH   2   4
ATOM      4  O   UNL     1       7.314  -2.542  -3.503  1.00  0.00    -0.481 OA
ATOM      5  H   UNL     1       6.555  -1.921  -3.796  1.00  0.00     0.296 HD
ENDBRANCH   2   4
ENDBRANCH   1   2
BRANCH   1   6
ATOM      6  C   UNL     1       7.592  -1.252  -0.716  1.00  0.00     0.047 C 
BRANCH   6   7
ATOM      7  C   UNL     1       6.688  -0.246  -0.161  1.00  0.00    -0.047 A 
ATOM      8  C   UNL     1       6.299   0.840  -0.912  1.00  0.00     0.004 A 
ATOM      9  C   UNL     1       6.225  -0.396   1.125  1.00  0.00     0.004 A 
ATOM     10  C   UNL     1       5.433   1.760  -0.318  1.00  0.00     0.000 A 
ATOM     11  C   UNL     1       5.368   0.516   1.710  1.00  0.00     0.000 A 
ATOM     12  C   UNL     1       4.974   1.606   0.966  1.00  0.00     0.000 A 
ENDBRANCH   6   7
ENDBRANCH   1   6
TORSDOF 4
ENDMDL
MODEL 4
REMARK VINA RESULT:      -7.1      0.633      1.884
REMARK SMILES O=C(O)CCc1ccccc1
REMARK SMILES IDX 4 1 2 2 1 3 3 4 5 6 6 7 7 8 11 9 8 10 10 11 9 12
REMARK H PARENT 3 5
REMARK Flexibility Score: inf
ROOT
ATOM      1  C   UNL     1       8.282  -0.834  -1.905  1.00  0.00     0.127 C 
ENDROOT
BRANCH   1   2
ATOM      2  C   UNL     1       8.321  -1.961  -2.867  1.00  0.00     0.303 C 
ATOM      3  O   UNL     1       7.266  -2.446  -3.345  1.00  0.00    -0.252 OA
BRANCH   2   4
ATOM      4  O   UNL     1       9.528  -2.512  -3.266  1.00  0.00    -0.481 OA
ATOM      5  H   UNL     1       9.807  -2.451  -4.249  1.00  0.00     0.296 HD
ENDBRANCH   2   4
ENDBRANCH   1   2
BRANCH   1   6
ATOM      6  C   UNL     1       7.581  -1.298  -0.665  1.00  0.00     0.047 C 
BRANCH   6   7
ATOM      7  C   UNL     1       6.676  -0.305  -0.088  1.00  0.00    -0.047 A 
ATOM      8  C   UNL     1       6.210  -0.443   1.199  1.00  0.00     0.004 A 
ATOM      9  C   UNL     1       6.292   0.776  -0.847  1.00  0.00     0.004 A 
ATOM     10  C   UNL     1       5.349   0.544   1.686  1.00  0.00     0.000 A 
ATOM     11  C   UNL     1       5.441   1.750  -0.365  1.00  0.00     0.000 A 
ATOM     12  C   UNL     1       4.970   1.620   0.924  1.00  0.00     0.000 A 
ENDBRANCH   6   7
ENDBRANCH   1   6
TORSDOF 4
ENDMDL
MODEL 5
REMARK VINA RESULT:      -6.8      3.390      5.083
REMARK SMILES O=C(O)CCc1ccccc1
REMARK SMILES IDX 4 1 2 2 1 3 3 4 5 6 6 7 7 8 11 9 8 10 10 11 9 12
REMARK H PARENT 3 5
REMARK Flexibility Score: inf
ROOT
ATOM      1  C   UNL     1       4.998   1.802   0.711  1.00  0.00     0.127 C 
ENDROOT
BRANCH   1   2
ATOM      2  C   UNL     1       4.483   1.113   1.918  1.00  0.00     0.303 C 
ATOM      3  O   UNL     1       5.142   0.203   2.479  1.00  0.00    -0.252 OA
BRANCH   2   4
ATOM      4  O   UNL     1       3.254   1.455   2.461  1.00  0.00    -0.481 OA
ATOM      5  H   UNL     1       2.562   1.929   1.874  1.00  0.00     0.296 HD
ENDBRANCH   2   4
ENDBRANCH   1   2
BRANCH   1   6
ATOM      6  C   UNL     1       6.495   1.779   0.759  1.00  0.00     0.047 C 
BRANCH   6   7
ATOM      7  C   UNL     1       7.114   1.032  -0.334  1.00  0.00    -0.047 A 
ATOM      8  C   UNL     1       6.380   0.136  -1.077  1.00  0.00     0.004 A 
ATOM      9  C   UNL     1       8.444   1.234  -0.617  1.00  0.00     0.004 A 
ATOM     10  C   UNL     1       7.035  -0.542  -2.107  1.00  0.00     0.000 A 
ATOM     11  C   UNL     1       9.091   0.563  -1.636  1.00  0.00     0.000 A 
ATOM     12  C   UNL     1       8.363  -0.337  -2.385  1.00  0.00     0.000 A 
ENDBRANCH   6   7
ENDBRANCH   1   6
TORSDOF 4
ENDMDL
