@<TRIPOS>MOLECULE
/home/cewinharhar/GITHUB/reincatalyze/data/processed/docking_pred/2023-Apr-26-1657_maxeplen10_maxtrainstep1000_exh32_gamma099_lrac9e-4_lrcr1e-3/08d2e2d4a7c660d60546aaed77652d308bf13ce5_ligand_2.pdbqt
 12 12 0 0 0
SMALL
GASTEIGER

@<TRIPOS>ATOM
      1  C          8.2820   -0.8340   -1.9050 C.3     1  UNL1        0.1270
      2  C          8.3210   -1.9610   -2.8670 C.2     1  UNL1        0.3030
      3  O          7.2660   -2.4460   -3.3450 O.2     1  UNL1       -0.2520
      4  O          9.5280   -2.5120   -3.2660 O.3     1  UNL1       -0.4810
      5  H          9.8070   -2.4510   -4.2490 H       1  UNL1        0.2960
      6  C          7.5810   -1.2980   -0.6650 C.3     1  UNL1        0.0470
      7  C          6.6760   -0.3050   -0.0880 C.2     1  UNL1       -0.0470
      8  C          6.2100   -0.4430    1.1990 C.2     1  UNL1        0.0040
      9  C          6.2920    0.7760   -0.8470 C.2     1  UNL1        0.0040
     10  C          5.3490    0.5440    1.6860 C.2     1  UNL1        0.0000
     11  C          5.4410    1.7500   -0.3650 C.2     1  UNL1        0.0000
     12  C          4.9700    1.6200    0.9240 C.2     1  UNL1        0.0000
@<TRIPOS>BOND
     1     5     4    1
     2     3     2    2
     3     4     2    1
     4     2     1    1
     5     1     6    1
     6     9    11    1
     7     9     7    2
     8     6     7    1
     9    11    12    2
    10     7     8    1
    11    12    10    1
    12     8    10    2
