@<TRIPOS>MOLECULE
/home/cewinharhar/GITHUB/reincatalyze/data/processed/docking_pred/2023-Apr-26-1657_maxeplen10_maxtrainstep1000_exh32_gamma099_lrac9e-4_lrcr1e-3/08d2e2d4a7c660d60546aaed77652d308bf13ce5_ligand_2.pdbqt
 12 12 0 0 0
SMALL
GASTEIGER

@<TRIPOS>ATOM
      1  C          8.4330   -0.6310   -2.1080 C.3     1  UNL1        0.1270
      2  C          8.3870   -1.8900   -2.8880 C.2     1  UNL1        0.3030
      3  O          7.2940   -2.4080   -3.2230 O.2     1  UNL1       -0.2520
      4  O          9.5550   -2.5320   -3.2690 O.3     1  UNL1       -0.4810
      5  H         10.4430   -2.0240   -3.2260 H       1  UNL1        0.2960
      6  C          7.0580   -0.0360   -2.0930 C.3     1  UNL1        0.0470
      7  C          6.4850    0.1020   -0.7550 C.2     1  UNL1       -0.0470
      8  C          6.6170   -0.9040    0.1750 C.2     1  UNL1        0.0040
      9  C          5.8100    1.2560   -0.4290 C.2     1  UNL1        0.0040
     10  C          6.0460   -0.7030    1.4330 C.2     1  UNL1        0.0000
     11  C          5.2450    1.4520    0.8150 C.2     1  UNL1        0.0000
     12  C          5.3730    0.4500    1.7520 C.2     1  UNL1        0.0000
@<TRIPOS>BOND
     1     4     5    1
     2     4     2    1
     3     3     2    2
     4     2     1    1
     5     1     6    1
     6     6     7    1
     7     7     9    2
     8     7     8    1
     9     9    11    1
    10     8    10    2
    11    11    12    2
    12    10    12    1
