@<TRIPOS>MOLECULE
/home/cewinharhar/GITHUB/reincatalyze/data/processed/docking_pred/2023-Apr-26-1657_maxeplen10_maxtrainstep1000_exh32_gamma099_lrac9e-4_lrcr1e-3/08d2e2d4a7c660d60546aaed77652d308bf13ce5_ligand_2.pdbqt
 12 12 0 0 0
SMALL
GASTEIGER

@<TRIPOS>ATOM
      1  C          4.9980    1.8020    0.7110 C.3     1  UNL1        0.1270
      2  C          4.4830    1.1130    1.9180 C.2     1  UNL1        0.3030
      3  O          5.1420    0.2030    2.4790 O.2     1  UNL1       -0.2520
      4  O          3.2540    1.4550    2.4610 O.3     1  UNL1       -0.4810
      5  H          2.5620    1.9290    1.8740 H       1  UNL1        0.2960
      6  C          6.4950    1.7790    0.7590 C.3     1  UNL1        0.0470
      7  C          7.1140    1.0320   -0.3340 C.2     1  UNL1       -0.0470
      8  C          6.3800    0.1360   -1.0770 C.2     1  UNL1        0.0040
      9  C          8.4440    1.2340   -0.6170 C.2     1  UNL1        0.0040
     10  C          7.0350   -0.5420   -2.1070 C.2     1  UNL1        0.0000
     11  C          9.0910    0.5630   -1.6360 C.2     1  UNL1        0.0000
     12  C          8.3630   -0.3370   -2.3850 C.2     1  UNL1        0.0000
@<TRIPOS>BOND
     1    12    10    2
     2    12    11    1
     3    10     8    1
     4    11     9    2
     5     8     7    2
     6     9     7    1
     7     7     6    1
     8     1     6    1
     9     1     2    1
    10     5     4    1
    11     2     4    1
    12     2     3    2
