@<TRIPOS>MOLECULE
/home/cewinharhar/GITHUB/reincatalyze/data/processed/docking_pred/2023-Apr-26-1657_maxeplen10_maxtrainstep1000_exh32_gamma099_lrac9e-4_lrcr1e-3/08e84468c81f1cd513554bb3b422d21af10d92b8_ligand_2.pdbqt
 12 12 0 0 0
SMALL
GASTEIGER

@<TRIPOS>ATOM
      1  C          8.1070   -1.1410   -0.0810 C.3     1  UNL1        0.1270
      2  C          7.8880   -2.3570    0.7370 C.2     1  UNL1        0.3030
      3  O          8.7330   -3.2860    0.7610 O.2     1  UNL1       -0.2520
      4  O          6.7410   -2.5030    1.5000 O.3     1  UNL1       -0.4810
      5  H          6.1470   -1.6870    1.6720 H       1  UNL1        0.2960
      6  C          6.7700   -0.5660   -0.4360 C.3     1  UNL1        0.0470
      7  C          6.6170    0.8450   -0.0820 C.2     1  UNL1       -0.0470
      8  C          7.6620    1.5490    0.4680 C.2     1  UNL1        0.0040
      9  C          5.4110    1.4670   -0.3090 C.2     1  UNL1        0.0040
     10  C          7.4460    2.8930    0.7800 C.2     1  UNL1        0.0000
     11  C          5.1980    2.7950    0.0010 C.2     1  UNL1        0.0000
     12  C          6.2400    3.5080    0.5530 C.2     1  UNL1        0.0000
@<TRIPOS>BOND
     1     6     7    1
     2     6     1    1
     3     9     7    2
     4     9    11    1
     5     7     8    1
     6     1     2    1
     7    11    12    2
     8     8    10    2
     9    12    10    1
    10     2     3    2
    11     2     4    1
    12     4     5    1
