@<TRIPOS>MOLECULE
/home/cewinharhar/GITHUB/reincatalyze/data/processed/docking_pred/2023-Apr-26-1657_maxeplen10_maxtrainstep1000_exh32_gamma099_lrac9e-4_lrcr1e-3/08e84468c81f1cd513554bb3b422d21af10d92b8_ligand_2.pdbqt
 12 12 0 0 0
SMALL
GASTEIGER

@<TRIPOS>ATOM
      1  C          8.2420   -0.4800   -2.3600 C.3     1  UNL1        0.1270
      2  C          8.3740   -1.8220   -2.9740 C.2     1  UNL1        0.3030
      3  O          9.4920   -2.3850   -3.0720 O.2     1  UNL1       -0.2520
      4  O          7.2630   -2.4930   -3.4590 O.3     1  UNL1       -0.4810
      5  H          6.4230   -2.5570   -2.8770 H       1  UNL1        0.2960
      6  C          6.9690   -0.4470   -1.5690 C.3     1  UNL1        0.0470
      7  C          6.8020    0.7610   -0.7620 C.2     1  UNL1       -0.0470
      8  C          5.5660    1.3490   -0.6250 C.2     1  UNL1        0.0040
      9  C          7.8980    1.3060   -0.1350 C.2     1  UNL1        0.0040
     10  C          5.4790    2.5000    0.1610 C.2     1  UNL1        0.0000
     11  C          7.8100    2.4440    0.6420 C.2     1  UNL1        0.0000
     12  C          6.5760    3.0400    0.7840 C.2     1  UNL1        0.0000
@<TRIPOS>BOND
     1     4     2    1
     2     4     5    1
     3     3     2    2
     4     2     1    1
     5     1     6    1
     6     6     7    1
     7     7     8    2
     8     7     9    1
     9     8    10    1
    10     9    11    2
    11    10    12    2
    12    11    12    1
