@<TRIPOS>MOLECULE
/home/cewinharhar/GITHUB/reincatalyze/data/processed/docking_pred/2023-Apr-26-1657_maxeplen10_maxtrainstep1000_exh32_gamma099_lrac9e-4_lrcr1e-3/08e84468c81f1cd513554bb3b422d21af10d92b8_ligand_2.pdbqt
 12 12 0 0 0
SMALL
GASTEIGER

@<TRIPOS>ATOM
      1  C          4.9350    1.8180    0.8000 C.3     1  UNL1        0.1270
      2  C          4.4260    1.0930    1.9880 C.2     1  UNL1        0.3030
      3  O          5.0920    0.1740    2.5240 O.2     1  UNL1       -0.2520
      4  O          3.1960    1.4110    2.5410 O.3     1  UNL1       -0.4810
      5  H          3.0470    2.3490    2.9240 H       1  UNL1        0.2960
      6  C          6.4270    1.9040    0.9040 C.3     1  UNL1        0.0470
      7  C          7.1380    1.2310   -0.1820 C.2     1  UNL1       -0.0470
      8  C          6.4510    0.5210   -1.1390 C.2     1  UNL1        0.0040
      9  C          8.5100    1.3170   -0.2410 C.2     1  UNL1        0.0040
     10  C          7.1940   -0.0950   -2.1480 C.2     1  UNL1        0.0000
     11  C          9.2430    0.7080   -1.2390 C.2     1  UNL1        0.0000
     12  C          8.5630   -0.0060   -2.2010 C.2     1  UNL1        0.0000
@<TRIPOS>BOND
     1    12    10    2
     2    12    11    1
     3    10     8    1
     4    11     9    2
     5     8     7    2
     6     9     7    1
     7     7     6    1
     8     1     6    1
     9     1     2    1
    10     2     3    2
    11     2     4    1
    12     4     5    1
