MODEL 1
REMARK VINA RESULT:      -7.1      0.000      0.000
REMARK SMILES O=C(O)CCc1ccccc1
REMARK SMILES IDX 4 1 2 2 1 3 3 4 5 6 6 7 7 8 11 9 8 10 10 11 9 12
REMARK H PARENT 3 5
REMARK Flexibility Score: inf
ROOT
ATOM      1  C   UNL     1       8.410  -0.712  -2.019  1.00  0.00     0.127 C 
ENDROOT
BRANCH   1   2
ATOM      2  C   UNL     1       8.458  -1.928  -2.865  1.00  0.00     0.303 C 
ATOM      3  O   UNL     1       9.545  -2.508  -3.110  1.00  0.00    -0.252 OA
BRANCH   2   4
ATOM      4  O   UNL     1       7.301  -2.459  -3.411  1.00  0.00    -0.481 OA
ATOM      5  H   UNL     1       6.516  -2.690  -2.794  1.00  0.00     0.296 HD
ENDBRANCH   2   4
ENDBRANCH   1   2
BRANCH   1   6
ATOM      6  C   UNL     1       7.012  -0.174  -2.047  1.00  0.00     0.047 C 
BRANCH   6   7
ATOM      7  C   UNL     1       6.435   0.050  -0.723  1.00  0.00    -0.047 A 
ATOM      8  C   UNL     1       5.795   1.231  -0.426  1.00  0.00     0.004 A 
ATOM      9  C   UNL     1       6.535  -0.937   0.229  1.00  0.00     0.004 A 
ATOM     10  C   UNL     1       5.266   1.376   0.859  1.00  0.00     0.000 A 
ATOM     11  C   UNL     1       6.012  -0.792   1.499  1.00  0.00     0.000 A 
ATOM     12  C   UNL     1       5.370   0.388   1.805  1.00  0.00     0.000 A 
ENDBRANCH   6   7
ENDBRANCH   1   6
TORSDOF 4
ENDMDL
MODEL 2
REMARK VINA RESULT:      -7.0      0.100      1.731
REMARK SMILES O=C(O)CCc1ccccc1
REMARK SMILES IDX 4 1 2 2 1 3 3 4 5 6 6 7 7 8 11 9 8 10 10 11 9 12
REMARK H PARENT 3 5
REMARK Flexibility Score: inf
ROOT
ATOM      1  C   UNL     1       8.411  -0.631  -2.120  1.00  0.00     0.127 C 
ENDROOT
BRANCH   1   2
ATOM      2  C   UNL     1       8.374  -1.900  -2.886  1.00  0.00     0.303 C 
ATOM      3  O   UNL     1       7.285  -2.410  -3.248  1.00  0.00    -0.252 OA
BRANCH   2   4
ATOM      4  O   UNL     1       9.545  -2.559  -3.225  1.00  0.00    -0.481 OA
ATOM      5  H   UNL     1      10.444  -2.162  -2.940  1.00  0.00     0.296 HD
ENDBRANCH   2   4
ENDBRANCH   1   2
BRANCH   1   6
ATOM      6  C   UNL     1       7.028  -0.057  -2.093  1.00  0.00     0.047 C 
BRANCH   6   7
ATOM      7  C   UNL     1       6.466   0.080  -0.751  1.00  0.00    -0.047 A 
ATOM      8  C   UNL     1       6.592  -0.934   0.171  1.00  0.00     0.004 A 
ATOM      9  C   UNL     1       5.809   1.240  -0.413  1.00  0.00     0.004 A 
ATOM     10  C   UNL     1       6.032  -0.735   1.434  1.00  0.00     0.000 A 
ATOM     11  C   UNL     1       5.256   1.435   0.837  1.00  0.00     0.000 A 
ATOM     12  C   UNL     1       5.376   0.424   1.766  1.00  0.00     0.000 A 
ENDBRANCH   6   7
ENDBRANCH   1   6
TORSDOF 4
ENDMDL
MODEL 3
REMARK VINA RESULT:      -6.7      1.407      1.760
REMARK SMILES O=C(O)CCc1ccccc1
REMARK SMILES IDX 4 1 2 2 1 3 3 4 5 6 6 7 7 8 11 9 8 10 10 11 9 12
REMARK H PARENT 3 5
REMARK Flexibility Score: inf
ROOT
ATOM      1  C   UNL     1       8.242  -0.480  -2.360  1.00  0.00     0.127 C 
ENDROOT
BRANCH   1   2
ATOM      2  C   UNL     1       8.374  -1.822  -2.974  1.00  0.00     0.303 C 
ATOM      3  O   UNL     1       9.492  -2.385  -3.072  1.00  0.00    -0.252 OA
BRANCH   2   4
ATOM      4  O   UNL     1       7.263  -2.493  -3.459  1.00  0.00    -0.481 OA
ATOM      5  H   UNL     1       6.423  -2.557  -2.877  1.00  0.00     0.296 HD
ENDBRANCH   2   4
ENDBRANCH   1   2
BRANCH   1   6
ATOM      6  C   UNL     1       6.969  -0.447  -1.569  1.00  0.00     0.047 C 
BRANCH   6   7
ATOM      7  C   UNL     1       6.802   0.761  -0.762  1.00  0.00    -0.047 A 
ATOM      8  C   UNL     1       5.566   1.349  -0.625  1.00  0.00     0.004 A 
ATOM      9  C   UNL     1       7.898   1.306  -0.135  1.00  0.00     0.004 A 
ATOM     10  C   UNL     1       5.479   2.500   0.161  1.00  0.00     0.000 A 
ATOM     11  C   UNL     1       7.810   2.444   0.642  1.00  0.00     0.000 A 
ATOM     12  C   UNL     1       6.576   3.040   0.784  1.00  0.00     0.000 A 
ENDBRANCH   6   7
ENDBRANCH   1   6
TORSDOF 4
ENDMDL
MODEL 4
REMARK VINA RESULT:      -6.4      3.437      5.126
REMARK SMILES O=C(O)CCc1ccccc1
REMARK SMILES IDX 4 1 2 2 1 3 3 4 5 6 6 7 7 8 11 9 8 10 10 11 9 12
REMARK H PARENT 3 5
REMARK Flexibility Score: inf
ROOT
ATOM      1  C   UNL     1       4.935   1.818   0.800  1.00  0.00     0.127 C 
ENDROOT
BRANCH   1   2
ATOM      2  C   UNL     1       4.426   1.093   1.988  1.00  0.00     0.303 C 
ATOM      3  O   UNL     1       5.092   0.174   2.524  1.00  0.00    -0.252 OA
BRANCH   2   4
ATOM      4  O   UNL     1       3.196   1.411   2.541  1.00  0.00    -0.481 OA
ATOM      5  H   UNL     1       3.047   2.349   2.924  1.00  0.00     0.296 HD
ENDBRANCH   2   4
ENDBRANCH   1   2
BRANCH   1   6
ATOM      6  C   UNL     1       6.427   1.904   0.904  1.00  0.00     0.047 C 
BRANCH   6   7
ATOM      7  C   UNL     1       7.138   1.231  -0.182  1.00  0.00    -0.047 A 
ATOM      8  C   UNL     1       6.451   0.521  -1.139  1.00  0.00     0.004 A 
ATOM      9  C   UNL     1       8.510   1.317  -0.241  1.00  0.00     0.004 A 
ATOM     10  C   UNL     1       7.194  -0.095  -2.148  1.00  0.00     0.000 A 
ATOM     11  C   UNL     1       9.243   0.708  -1.239  1.00  0.00     0.000 A 
ATOM     12  C   UNL     1       8.563  -0.006  -2.201  1.00  0.00     0.000 A 
ENDBRANCH   6   7
ENDBRANCH   1   6
TORSDOF 4
ENDMDL
MODEL 5
REMARK VINA RESULT:      -6.4      2.501      3.143
REMARK SMILES O=C(O)CCc1ccccc1
REMARK SMILES IDX 4 1 2 2 1 3 3 4 5 6 6 7 7 8 11 9 8 10 10 11 9 12
REMARK H PARENT 3 5
REMARK Flexibility Score: inf
ROOT
ATOM      1  C   UNL     1       8.107  -1.141  -0.081  1.00  0.00     0.127 C 
ENDROOT
BRANCH   1   2
ATOM      2  C   UNL     1       7.888  -2.357   0.737  1.00  0.00     0.303 C 
ATOM      3  O   UNL     1       8.733  -3.286   0.761  1.00  0.00    -0.252 OA
BRANCH   2   4
ATOM      4  O   UNL     1       6.741  -2.503   1.500  1.00  0.00    -0.481 OA
ATOM      5  H   UNL     1       6.147  -1.687   1.672  1.00  0.00     0.296 HD
ENDBRANCH   2   4
ENDBRANCH   1   2
BRANCH   1   6
ATOM      6  C   UNL     1       6.770  -0.566  -0.436  1.00  0.00     0.047 C 
BRANCH   6   7
ATOM      7  C   UNL     1       6.617   0.845  -0.082  1.00  0.00    -0.047 A 
ATOM      8  C   UNL     1       7.662   1.549   0.468  1.00  0.00     0.004 A 
ATOM      9  C   UNL     1       5.411   1.467  -0.309  1.00  0.00     0.004 A 
ATOM     10  C   UNL     1       7.446   2.893   0.780  1.00  0.00     0.000 A 
ATOM     11  C   UNL     1       5.198   2.795   0.001  1.00  0.00     0.000 A 
ATOM     12  C   UNL     1       6.240   3.508   0.553  1.00  0.00     0.000 A 
ENDBRANCH   6   7
ENDBRANCH   1   6
TORSDOF 4
ENDMDL
