@<TRIPOS>MOLECULE
/home/cewinharhar/GITHUB/reincatalyze/data/processed/docking_pred/2023-Apr-26-1657_maxeplen10_maxtrainstep1000_exh32_gamma099_lrac9e-4_lrcr1e-3/08e84468c81f1cd513554bb3b422d21af10d92b8_ligand_2.pdbqt
 12 12 0 0 0
SMALL
GASTEIGER

@<TRIPOS>ATOM
      1  C          8.4110   -0.6310   -2.1200 C.3     1  UNL1        0.1270
      2  C          8.3740   -1.9000   -2.8860 C.2     1  UNL1        0.3030
      3  O          7.2850   -2.4100   -3.2480 O.2     1  UNL1       -0.2520
      4  O          9.5450   -2.5590   -3.2250 O.3     1  UNL1       -0.4810
      5  H         10.4440   -2.1620   -2.9400 H       1  UNL1        0.2960
      6  C          7.0280   -0.0570   -2.0930 C.3     1  UNL1        0.0470
      7  C          6.4660    0.0800   -0.7510 C.2     1  UNL1       -0.0470
      8  C          6.5920   -0.9340    0.1710 C.2     1  UNL1        0.0040
      9  C          5.8090    1.2400   -0.4130 C.2     1  UNL1        0.0040
     10  C          6.0320   -0.7350    1.4340 C.2     1  UNL1        0.0000
     11  C          5.2560    1.4350    0.8370 C.2     1  UNL1        0.0000
     12  C          5.3760    0.4240    1.7660 C.2     1  UNL1        0.0000
@<TRIPOS>BOND
     1     3     2    2
     2     4     5    1
     3     4     2    1
     4     2     1    1
     5     1     6    1
     6     6     7    1
     7     7     9    2
     8     7     8    1
     9     9    11    1
    10     8    10    2
    11    11    12    2
    12    10    12    1
