@<TRIPOS>MOLECULE
/home/cewinharhar/GITHUB/reincatalyze/data/processed/docking_pred/2023-Apr-26-1657_maxeplen10_maxtrainstep1000_exh32_gamma099_lrac9e-4_lrcr1e-3/08e84468c81f1cd513554bb3b422d21af10d92b8_ligand_2.pdbqt
 12 12 0 0 0
SMALL
GASTEIGER

@<TRIPOS>ATOM
      1  C          8.4100   -0.7120   -2.0190 C.3     1  UNL1        0.1270
      2  C          8.4580   -1.9280   -2.8650 C.2     1  UNL1        0.3030
      3  O          9.5450   -2.5080   -3.1100 O.2     1  UNL1       -0.2520
      4  O          7.3010   -2.4590   -3.4110 O.3     1  UNL1       -0.4810
      5  H          6.5160   -2.6900   -2.7940 H       1  UNL1        0.2960
      6  C          7.0120   -0.1740   -2.0470 C.3     1  UNL1        0.0470
      7  C          6.4350    0.0500   -0.7230 C.2     1  UNL1       -0.0470
      8  C          5.7950    1.2310   -0.4260 C.2     1  UNL1        0.0040
      9  C          6.5350   -0.9370    0.2290 C.2     1  UNL1        0.0040
     10  C          5.2660    1.3760    0.8590 C.2     1  UNL1        0.0000
     11  C          6.0120   -0.7920    1.4990 C.2     1  UNL1        0.0000
     12  C          5.3700    0.3880    1.8050 C.2     1  UNL1        0.0000
@<TRIPOS>BOND
     1     4     2    1
     2     4     5    1
     3     3     2    2
     4     2     1    1
     5     6     1    1
     6     6     7    1
     7     7     8    2
     8     7     9    1
     9     8    10    1
    10     9    11    2
    11    10    12    2
    12    11    12    1
