@<TRIPOS>MOLECULE
/home/cewinharhar/GITHUB/reincatalyze/data/processed/docking_pred/2023-Apr-26-1657_maxeplen10_maxtrainstep1000_exh32_gamma099_lrac9e-4_lrcr1e-3/090474ec6ad34f6c7e6271970b3dfdf762d08d64_ligand_2.pdbqt
 12 12 0 0 0
SMALL
GASTEIGER

@<TRIPOS>ATOM
      1  C          8.2740   -0.4960   -2.3350 C.3     1  UNL1        0.1270
      2  C          8.3850   -1.8330   -2.9630 C.2     1  UNL1        0.3030
      3  O          9.4940   -2.4110   -3.0730 O.2     1  UNL1       -0.2520
      4  O          7.2620   -2.4850   -3.4470 O.3     1  UNL1       -0.4810
      5  H          6.3350   -2.0890   -3.2650 H       1  UNL1        0.2960
      6  C          6.9910   -0.4420   -1.5640 C.3     1  UNL1        0.0470
      7  C          6.8270    0.7720   -0.7660 C.2     1  UNL1       -0.0470
      8  C          7.9050    1.3520   -0.1380 C.2     1  UNL1        0.0040
      9  C          5.5770    1.3350   -0.6490 C.2     1  UNL1        0.0040
     10  C          7.6750    2.5110    0.6070 C.2     1  UNL1        0.0000
     11  C          5.3520    2.4810    0.0880 C.2     1  UNL1        0.0000
     12  C          6.4270    3.0670    0.7210 C.2     1  UNL1        0.0000
@<TRIPOS>BOND
     1     4     5    1
     2     4     2    1
     3     3     2    2
     4     2     1    1
     5     1     6    1
     6     6     7    1
     7     7     9    2
     8     7     8    1
     9     9    11    1
    10     8    10    2
    11    11    12    2
    12    10    12    1
