@<TRIPOS>MOLECULE
/home/cewinharhar/GITHUB/reincatalyze/data/processed/docking_pred/2023-Apr-26-1657_maxeplen10_maxtrainstep1000_exh32_gamma099_lrac9e-4_lrcr1e-3/090474ec6ad34f6c7e6271970b3dfdf762d08d64_ligand_2.pdbqt
 12 12 0 0 0
SMALL
GASTEIGER

@<TRIPOS>ATOM
      1  C          7.4880   -0.2080    1.0240 C.3     1  UNL1        0.1270
      2  C          6.4980   -1.0120    1.7800 C.2     1  UNL1        0.3030
      3  O          5.6180   -0.4620    2.4880 O.2     1  UNL1       -0.2520
      4  O          6.5170   -2.3960    1.7260 O.3     1  UNL1       -0.4810
      5  H          5.6330   -2.9070    1.6500 H       1  UNL1        0.2960
      6  C          7.9300    0.9310    1.8920 C.3     1  UNL1        0.0470
      7  C          9.3650    0.9450    2.1690 C.2     1  UNL1       -0.0470
      8  C         10.2100    0.0520    1.5510 C.2     1  UNL1        0.0040
      9  C          9.8680    1.8660    3.0580 C.2     1  UNL1        0.0040
     10  C         11.5700    0.1240    1.8620 C.2     1  UNL1        0.0000
     11  C         11.2130    1.9360    3.3650 C.2     1  UNL1        0.0000
     12  C         12.0660    1.0440    2.7500 C.2     1  UNL1        0.0000
@<TRIPOS>BOND
     1     1     2    1
     2     1     6    1
     3     8    10    1
     4     8     7    2
     5     5     4    1
     6     4     2    1
     7     2     3    2
     8    10    12    2
     9     6     7    1
    10     7     9    1
    11    12    11    1
    12     9    11    2
