@<TRIPOS>MOLECULE
/home/cewinharhar/GITHUB/reincatalyze/data/processed/docking_pred/2023-Apr-26-1657_maxeplen10_maxtrainstep1000_exh32_gamma099_lrac9e-4_lrcr1e-3/090474ec6ad34f6c7e6271970b3dfdf762d08d64_ligand_2.pdbqt
 12 12 0 0 0
SMALL
GASTEIGER

@<TRIPOS>ATOM
      1  C          8.3970   -0.5990   -2.1520 C.3     1  UNL1        0.1270
      2  C          8.3840   -1.8800   -2.8970 C.2     1  UNL1        0.3030
      3  O          7.3040   -2.4280   -3.2280 O.2     1  UNL1       -0.2520
      4  O          9.5670   -2.5090   -3.2480 O.3     1  UNL1       -0.4810
      5  H          9.5310   -3.3960   -3.7580 H       1  UNL1        0.2960
      6  C          7.0000   -0.0590   -2.1190 C.3     1  UNL1        0.0470
      7  C          6.4540    0.0950   -0.7710 C.2     1  UNL1       -0.0470
      8  C          5.8110    1.2540   -0.4010 C.2     1  UNL1        0.0040
      9  C          6.5880   -0.9360    0.1290 C.2     1  UNL1        0.0040
     10  C          5.3140    1.3310    0.9020 C.2     1  UNL1        0.0000
     11  C          6.0960   -0.8570    1.4170 C.2     1  UNL1        0.0000
     12  C          5.4510    0.3000    1.7960 C.2     1  UNL1        0.0000
@<TRIPOS>BOND
     1     5     4    1
     2     4     2    1
     3     3     2    2
     4     2     1    1
     5     1     6    1
     6     6     7    1
     7     7     8    2
     8     7     9    1
     9     8    10    1
    10     9    11    2
    11    10    12    2
    12    11    12    1
