MODEL 1
REMARK VINA RESULT:      -7.1      0.000      0.000
REMARK SMILES O=C(O)CCc1ccccc1
REMARK SMILES IDX 4 1 2 2 1 3 3 4 5 6 6 7 7 8 11 9 8 10 10 11 9 12
REMARK H PARENT 3 5
REMARK Flexibility Score: inf
ROOT
ATOM      1  C   UNL     1       8.430  -0.563  -2.230  1.00  0.00     0.127 C 
ENDROOT
BRANCH   1   2
ATOM      2  C   UNL     1       8.482  -1.872  -2.924  1.00  0.00     0.303 C 
ATOM      3  O   UNL     1       9.569  -2.478  -3.088  1.00  0.00    -0.252 OA
BRANCH   2   4
ATOM      4  O   UNL     1       7.328  -2.464  -3.411  1.00  0.00    -0.481 OA
ATOM      5  H   UNL     1       7.404  -3.233  -4.082  1.00  0.00     0.296 HD
ENDBRANCH   2   4
ENDBRANCH   1   2
BRANCH   1   6
ATOM      6  C   UNL     1       7.000  -0.118  -2.172  1.00  0.00     0.047 C 
BRANCH   6   7
ATOM      7  C   UNL     1       6.478   0.030  -0.815  1.00  0.00    -0.047 A 
ATOM      8  C   UNL     1       6.607  -0.987   0.103  1.00  0.00     0.004 A 
ATOM      9  C   UNL     1       5.854   1.203  -0.459  1.00  0.00     0.004 A 
ATOM     10  C   UNL     1       6.086  -0.777   1.381  1.00  0.00     0.000 A 
ATOM     11  C   UNL     1       5.339   1.409   0.805  1.00  0.00     0.000 A 
ATOM     12  C   UNL     1       5.464   0.395   1.730  1.00  0.00     0.000 A 
ENDBRANCH   6   7
ENDBRANCH   1   6
TORSDOF 4
ENDMDL
MODEL 2
REMARK VINA RESULT:      -7.0      0.114      1.731
REMARK SMILES O=C(O)CCc1ccccc1
REMARK SMILES IDX 4 1 2 2 1 3 3 4 5 6 6 7 7 8 11 9 8 10 10 11 9 12
REMARK H PARENT 3 5
REMARK Flexibility Score: inf
ROOT
ATOM      1  C   UNL     1       8.397  -0.599  -2.152  1.00  0.00     0.127 C 
ENDROOT
BRANCH   1   2
ATOM      2  C   UNL     1       8.384  -1.880  -2.897  1.00  0.00     0.303 C 
ATOM      3  O   UNL     1       7.304  -2.428  -3.228  1.00  0.00    -0.252 OA
BRANCH   2   4
ATOM      4  O   UNL     1       9.567  -2.509  -3.248  1.00  0.00    -0.481 OA
ATOM      5  H   UNL     1       9.531  -3.396  -3.758  1.00  0.00     0.296 HD
ENDBRANCH   2   4
ENDBRANCH   1   2
BRANCH   1   6
ATOM      6  C   UNL     1       7.000  -0.059  -2.119  1.00  0.00     0.047 C 
BRANCH   6   7
ATOM      7  C   UNL     1       6.454   0.095  -0.771  1.00  0.00    -0.047 A 
ATOM      8  C   UNL     1       5.811   1.254  -0.401  1.00  0.00     0.004 A 
ATOM      9  C   UNL     1       6.588  -0.936   0.129  1.00  0.00     0.004 A 
ATOM     10  C   UNL     1       5.314   1.331   0.902  1.00  0.00     0.000 A 
ATOM     11  C   UNL     1       6.096  -0.857   1.417  1.00  0.00     0.000 A 
ATOM     12  C   UNL     1       5.451   0.300   1.796  1.00  0.00     0.000 A 
ENDBRANCH   6   7
ENDBRANCH   1   6
TORSDOF 4
ENDMDL
MODEL 3
REMARK VINA RESULT:      -6.8      1.360      1.738
REMARK SMILES O=C(O)CCc1ccccc1
REMARK SMILES IDX 4 1 2 2 1 3 3 4 5 6 6 7 7 8 11 9 8 10 10 11 9 12
REMARK H PARENT 3 5
REMARK Flexibility Score: inf
ROOT
ATOM      1  C   UNL     1       8.274  -0.496  -2.335  1.00  0.00     0.127 C 
ENDROOT
BRANCH   1   2
ATOM      2  C   UNL     1       8.385  -1.833  -2.963  1.00  0.00     0.303 C 
ATOM      3  O   UNL     1       9.494  -2.411  -3.073  1.00  0.00    -0.252 OA
BRANCH   2   4
ATOM      4  O   UNL     1       7.262  -2.485  -3.447  1.00  0.00    -0.481 OA
ATOM      5  H   UNL     1       6.335  -2.089  -3.265  1.00  0.00     0.296 HD
ENDBRANCH   2   4
ENDBRANCH   1   2
BRANCH   1   6
ATOM      6  C   UNL     1       6.991  -0.442  -1.564  1.00  0.00     0.047 C 
BRANCH   6   7
ATOM      7  C   UNL     1       6.827   0.772  -0.766  1.00  0.00    -0.047 A 
ATOM      8  C   UNL     1       7.905   1.352  -0.138  1.00  0.00     0.004 A 
ATOM      9  C   UNL     1       5.577   1.335  -0.649  1.00  0.00     0.004 A 
ATOM     10  C   UNL     1       7.675   2.511   0.607  1.00  0.00     0.000 A 
ATOM     11  C   UNL     1       5.352   2.481   0.088  1.00  0.00     0.000 A 
ATOM     12  C   UNL     1       6.427   3.067   0.721  1.00  0.00     0.000 A 
ENDBRANCH   6   7
ENDBRANCH   1   6
TORSDOF 4
ENDMDL
MODEL 4
REMARK VINA RESULT:      -6.4      2.485      3.180
REMARK SMILES O=C(O)CCc1ccccc1
REMARK SMILES IDX 4 1 2 2 1 3 3 4 5 6 6 7 7 8 11 9 8 10 10 11 9 12
REMARK H PARENT 3 5
REMARK Flexibility Score: inf
ROOT
ATOM      1  C   UNL     1       8.205  -1.032   0.159  1.00  0.00     0.127 C 
ENDROOT
BRANCH   1   2
ATOM      2  C   UNL     1       7.901  -2.332   0.802  1.00  0.00     0.303 C 
ATOM      3  O   UNL     1       8.702  -3.297   0.730  1.00  0.00    -0.252 OA
BRANCH   2   4
ATOM      4  O   UNL     1       6.720  -2.519   1.502  1.00  0.00    -0.481 OA
ATOM      5  H   UNL     1       5.827  -2.335   1.036  1.00  0.00     0.296 HD
ENDBRANCH   2   4
ENDBRANCH   1   2
BRANCH   1   6
ATOM      6  C   UNL     1       6.942  -0.498  -0.444  1.00  0.00     0.047 C 
BRANCH   6   7
ATOM      7  C   UNL     1       6.662   0.895  -0.103  1.00  0.00    -0.047 A 
ATOM      8  C   UNL     1       5.427   1.447  -0.354  1.00  0.00     0.004 A 
ATOM      9  C   UNL     1       7.651   1.656   0.477  1.00  0.00     0.004 A 
ATOM     10  C   UNL     1       5.230   2.784  -0.001  1.00  0.00     0.000 A 
ATOM     11  C   UNL     1       7.455   2.977   0.825  1.00  0.00     0.000 A 
ATOM     12  C   UNL     1       6.221   3.538   0.577  1.00  0.00     0.000 A 
ENDBRANCH   6   7
ENDBRANCH   1   6
TORSDOF 4
ENDMDL
MODEL 5
REMARK VINA RESULT:      -6.4      4.640      5.354
REMARK SMILES O=C(O)CCc1ccccc1
REMARK SMILES IDX 4 1 2 2 1 3 3 4 5 6 6 7 7 8 11 9 8 10 10 11 9 12
REMARK H PARENT 3 5
REMARK Flexibility Score: inf
ROOT
ATOM      1  C   UNL     1       7.488  -0.208   1.024  1.00  0.00     0.127 C 
ENDROOT
BRANCH   1   2
ATOM      2  C   UNL     1       6.498  -1.012   1.780  1.00  0.00     0.303 C 
ATOM      3  O   UNL     1       5.618  -0.462   2.488  1.00  0.00    -0.252 OA
BRANCH   2   4
ATOM      4  O   UNL     1       6.517  -2.396   1.726  1.00  0.00    -0.481 OA
ATOM      5  H   UNL     1       5.633  -2.907   1.650  1.00  0.00     0.296 HD
ENDBRANCH   2   4
ENDBRANCH   1   2
BRANCH   1   6
ATOM      6  C   UNL     1       7.930   0.931   1.892  1.00  0.00     0.047 C 
BRANCH   6   7
ATOM      7  C   UNL     1       9.365   0.945   2.169  1.00  0.00    -0.047 A 
ATOM      8  C   UNL     1      10.210   0.052   1.551  1.00  0.00     0.004 A 
ATOM      9  C   UNL     1       9.868   1.866   3.058  1.00  0.00     0.004 A 
ATOM     10  C   UNL     1      11.570   0.124   1.862  1.00  0.00     0.000 A 
ATOM     11  C   UNL     1      11.213   1.936   3.365  1.00  0.00     0.000 A 
ATOM     12  C   UNL     1      12.066   1.044   2.750  1.00  0.00     0.000 A 
ENDBRANCH   6   7
ENDBRANCH   1   6
TORSDOF 4
ENDMDL
