@<TRIPOS>MOLECULE
/home/cewinharhar/GITHUB/reincatalyze/data/processed/docking_pred/2023-Apr-26-1657_maxeplen10_maxtrainstep1000_exh32_gamma099_lrac9e-4_lrcr1e-3/090474ec6ad34f6c7e6271970b3dfdf762d08d64_ligand_2.pdbqt
 12 12 0 0 0
SMALL
GASTEIGER

@<TRIPOS>ATOM
      1  C          8.4300   -0.5630   -2.2300 C.3     1  UNL1        0.1270
      2  C          8.4820   -1.8720   -2.9240 C.2     1  UNL1        0.3030
      3  O          9.5690   -2.4780   -3.0880 O.2     1  UNL1       -0.2520
      4  O          7.3280   -2.4640   -3.4110 O.3     1  UNL1       -0.4810
      5  H          7.4040   -3.2330   -4.0820 H       1  UNL1        0.2960
      6  C          7.0000   -0.1180   -2.1720 C.3     1  UNL1        0.0470
      7  C          6.4780    0.0300   -0.8150 C.2     1  UNL1       -0.0470
      8  C          6.6070   -0.9870    0.1030 C.2     1  UNL1        0.0040
      9  C          5.8540    1.2030   -0.4590 C.2     1  UNL1        0.0040
     10  C          6.0860   -0.7770    1.3810 C.2     1  UNL1        0.0000
     11  C          5.3390    1.4090    0.8050 C.2     1  UNL1        0.0000
     12  C          5.4640    0.3950    1.7300 C.2     1  UNL1        0.0000
@<TRIPOS>BOND
     1     5     4    1
     2     4     2    1
     3     3     2    2
     4     2     1    1
     5     1     6    1
     6     6     7    1
     7     7     9    2
     8     7     8    1
     9     9    11    1
    10     8    10    2
    11    11    12    2
    12    10    12    1
