@<TRIPOS>MOLECULE
/home/cewinharhar/GITHUB/reincatalyze/data/processed/docking_pred/2023-Apr-26-1657_maxeplen10_maxtrainstep1000_exh32_gamma099_lrac9e-4_lrcr1e-3/090474ec6ad34f6c7e6271970b3dfdf762d08d64_ligand_2.pdbqt
 12 12 0 0 0
SMALL
GASTEIGER

@<TRIPOS>ATOM
      1  C          8.2050   -1.0320    0.1590 C.3     1  UNL1        0.1270
      2  C          7.9010   -2.3320    0.8020 C.2     1  UNL1        0.3030
      3  O          8.7020   -3.2970    0.7300 O.2     1  UNL1       -0.2520
      4  O          6.7200   -2.5190    1.5020 O.3     1  UNL1       -0.4810
      5  H          5.8270   -2.3350    1.0360 H       1  UNL1        0.2960
      6  C          6.9420   -0.4980   -0.4440 C.3     1  UNL1        0.0470
      7  C          6.6620    0.8950   -0.1030 C.2     1  UNL1       -0.0470
      8  C          5.4270    1.4470   -0.3540 C.2     1  UNL1        0.0040
      9  C          7.6510    1.6560    0.4770 C.2     1  UNL1        0.0040
     10  C          5.2300    2.7840   -0.0010 C.2     1  UNL1        0.0000
     11  C          7.4550    2.9770    0.8250 C.2     1  UNL1        0.0000
     12  C          6.2210    3.5380    0.5770 C.2     1  UNL1        0.0000
@<TRIPOS>BOND
     1     6     7    1
     2     6     1    1
     3     8     7    2
     4     8    10    1
     5     7     9    1
     6    10    12    2
     7     1     2    1
     8     9    11    2
     9    12    11    1
    10     3     2    2
    11     2     4    1
    12     5     4    1
