MODEL 1
REMARK VINA RESULT:      -6.3      0.000      0.000
REMARK SMILES O=C(O)CCc1ccccc1
REMARK SMILES IDX 4 1 2 2 1 3 3 4 5 6 6 7 7 8 11 9 8 10 10 11 9 12
REMARK H PARENT 3 5
REMARK Flexibility Score: inf
ROOT
ATOM      1  C   UNL     1       5.269  -0.252   1.927  1.00  0.00     0.127 C 
ENDROOT
BRANCH   1   2
ATOM      2  C   UNL     1       4.588   1.063   1.975  1.00  0.00     0.303 C 
ATOM      3  O   UNL     1       5.109   2.085   1.464  1.00  0.00    -0.252 OA
BRANCH   2   4
ATOM      4  O   UNL     1       3.354   1.201   2.589  1.00  0.00    -0.481 OA
ATOM      5  H   UNL     1       3.307   1.577   3.540  1.00  0.00     0.296 HD
ENDBRANCH   2   4
ENDBRANCH   1   2
BRANCH   1   6
ATOM      6  C   UNL     1       6.748  -0.015   1.882  1.00  0.00     0.047 C 
BRANCH   6   7
ATOM      7  C   UNL     1       7.416  -0.635   0.739  1.00  0.00    -0.047 A 
ATOM      8  C   UNL     1       6.721  -0.914  -0.415  1.00  0.00     0.004 A 
ATOM      9  C   UNL     1       8.755  -0.938   0.827  1.00  0.00     0.004 A 
ATOM     10  C   UNL     1       7.423  -1.506  -1.467  1.00  0.00     0.000 A 
ATOM     11  C   UNL     1       9.447  -1.524  -0.214  1.00  0.00     0.000 A 
ATOM     12  C   UNL     1       8.758  -1.807  -1.373  1.00  0.00     0.000 A 
ENDBRANCH   6   7
ENDBRANCH   1   6
TORSDOF 4
ENDMDL
MODEL 2
REMARK VINA RESULT:      -6.2      0.905      1.983
REMARK SMILES O=C(O)CCc1ccccc1
REMARK SMILES IDX 4 1 2 2 1 3 3 4 5 6 6 7 7 8 11 9 8 10 10 11 9 12
REMARK H PARENT 3 5
REMARK Flexibility Score: inf
ROOT
ATOM      1  C   UNL     1       5.938  -0.752   1.557  1.00  0.00     0.127 C 
ENDROOT
BRANCH   1   2
ATOM      2  C   UNL     1       5.299   0.517   1.978  1.00  0.00     0.303 C 
ATOM      3  O   UNL     1       4.148   0.531   2.479  1.00  0.00    -0.252 OA
BRANCH   2   4
ATOM      4  O   UNL     1       5.958   1.727   1.830  1.00  0.00    -0.481 OA
ATOM      5  H   UNL     1       6.176   2.067   0.889  1.00  0.00     0.296 HD
ENDBRANCH   2   4
ENDBRANCH   1   2
BRANCH   1   6
ATOM      6  C   UNL     1       7.404  -0.502   1.370  1.00  0.00     0.047 C 
BRANCH   6   7
ATOM      7  C   UNL     1       7.892  -0.805   0.026  1.00  0.00    -0.047 A 
ATOM      8  C   UNL     1       9.241  -0.863  -0.237  1.00  0.00     0.004 A 
ATOM      9  C   UNL     1       6.984  -1.038  -0.981  1.00  0.00     0.004 A 
ATOM     10  C   UNL     1       9.635  -1.159  -1.543  1.00  0.00     0.000 A 
ATOM     11  C   UNL     1       7.375  -1.330  -2.273  1.00  0.00     0.000 A 
ATOM     12  C   UNL     1       8.725  -1.389  -2.544  1.00  0.00     0.000 A 
ENDBRANCH   6   7
ENDBRANCH   1   6
TORSDOF 4
ENDMDL
MODEL 3
REMARK VINA RESULT:      -6.2      1.421      2.373
REMARK SMILES O=C(O)CCc1ccccc1
REMARK SMILES IDX 4 1 2 2 1 3 3 4 5 6 6 7 7 8 11 9 8 10 10 11 9 12
REMARK H PARENT 3 5
REMARK Flexibility Score: inf
ROOT
ATOM      1  C   UNL     1       6.379  -0.961   1.633  1.00  0.00     0.127 C 
ENDROOT
BRANCH   1   2
ATOM      2  C   UNL     1       5.712   0.310   2.000  1.00  0.00     0.303 C 
ATOM      3  O   UNL     1       4.527   0.327   2.414  1.00  0.00    -0.252 OA
BRANCH   2   4
ATOM      4  O   UNL     1       6.381   1.519   1.894  1.00  0.00    -0.481 OA
ATOM      5  H   UNL     1       6.066   2.317   2.453  1.00  0.00     0.296 HD
ENDBRANCH   2   4
ENDBRANCH   1   2
BRANCH   1   6
ATOM      6  C   UNL     1       6.857  -0.851   0.218  1.00  0.00     0.047 C 
BRANCH   6   7
ATOM      7  C   UNL     1       8.305  -0.700   0.089  1.00  0.00    -0.047 A 
ATOM      8  C   UNL     1       9.162  -1.490   0.819  1.00  0.00     0.004 A 
ATOM      9  C   UNL     1       8.807   0.244  -0.777  1.00  0.00     0.004 A 
ATOM     10  C   UNL     1      10.534  -1.292   0.645  1.00  0.00     0.000 A 
ATOM     11  C   UNL     1      10.163   0.439  -0.948  1.00  0.00     0.000 A 
ATOM     12  C   UNL     1      11.029  -0.348  -0.220  1.00  0.00     0.000 A 
ENDBRANCH   6   7
ENDBRANCH   1   6
TORSDOF 4
ENDMDL
MODEL 4
REMARK VINA RESULT:      -6.1      1.414      2.139
REMARK SMILES O=C(O)CCc1ccccc1
REMARK SMILES IDX 4 1 2 2 1 3 3 4 5 6 6 7 7 8 11 9 8 10 10 11 9 12
REMARK H PARENT 3 5
REMARK Flexibility Score: inf
ROOT
ATOM      1  C   UNL     1       6.341  -0.955   1.555  1.00  0.00     0.127 C 
ENDROOT
BRANCH   1   2
ATOM      2  C   UNL     1       5.696   0.311   1.976  1.00  0.00     0.303 C 
ATOM      3  O   UNL     1       4.520   0.327   2.417  1.00  0.00    -0.252 OA
BRANCH   2   4
ATOM      4  O   UNL     1       6.376   1.516   1.894  1.00  0.00    -0.481 OA
ATOM      5  H   UNL     1       6.010   2.257   1.289  1.00  0.00     0.296 HD
ENDBRANCH   2   4
ENDBRANCH   1   2
BRANCH   1   6
ATOM      6  C   UNL     1       6.805  -0.799   0.139  1.00  0.00     0.047 C 
BRANCH   6   7
ATOM      7  C   UNL     1       8.251  -0.637   0.002  1.00  0.00    -0.047 A 
ATOM      8  C   UNL     1       8.776   0.264  -0.896  1.00  0.00     0.004 A 
ATOM      9  C   UNL     1       9.089  -1.398   0.784  1.00  0.00     0.004 A 
ATOM     10  C   UNL     1      10.167   0.366  -0.973  1.00  0.00     0.000 A 
ATOM     11  C   UNL     1      10.464  -1.296   0.706  1.00  0.00     0.000 A 
ATOM     12  C   UNL     1      10.998  -0.396  -0.191  1.00  0.00     0.000 A 
ENDBRANCH   6   7
ENDBRANCH   1   6
TORSDOF 4
ENDMDL
MODEL 5
REMARK VINA RESULT:      -6.0      0.993      1.479
REMARK SMILES O=C(O)CCc1ccccc1
REMARK SMILES IDX 4 1 2 2 1 3 3 4 5 6 6 7 7 8 11 9 8 10 10 11 9 12
REMARK H PARENT 3 5
REMARK Flexibility Score: inf
ROOT
ATOM      1  C   UNL     1       6.235  -0.826   1.656  1.00  0.00     0.127 C 
ENDROOT
BRANCH   1   2
ATOM      2  C   UNL     1       5.606   0.473   1.990  1.00  0.00     0.303 C 
ATOM      3  O   UNL     1       6.235   1.553   1.863  1.00  0.00    -0.252 OA
BRANCH   2   4
ATOM      4  O   UNL     1       4.301   0.532   2.453  1.00  0.00    -0.481 OA
ATOM      5  H   UNL     1       3.963  -0.192   3.093  1.00  0.00     0.296 HD
ENDBRANCH   2   4
ENDBRANCH   1   2
BRANCH   1   6
ATOM      6  C   UNL     1       6.470  -0.870   0.177  1.00  0.00     0.047 C 
BRANCH   6   7
ATOM      7  C   UNL     1       7.873  -1.044  -0.197  1.00  0.00    -0.047 A 
ATOM      8  C   UNL     1       8.234  -1.206  -1.514  1.00  0.00     0.004 A 
ATOM      9  C   UNL     1       8.835  -1.042   0.786  1.00  0.00     0.004 A 
ATOM     10  C   UNL     1       9.592  -1.366  -1.799  1.00  0.00     0.000 A 
ATOM     11  C   UNL     1      10.177  -1.201   0.503  1.00  0.00     0.000 A 
ATOM     12  C   UNL     1      10.548  -1.365  -0.814  1.00  0.00     0.000 A 
ENDBRANCH   6   7
ENDBRANCH   1   6
TORSDOF 4
ENDMDL
