@<TRIPOS>MOLECULE
/home/cewinharhar/GITHUB/reincatalyze/data/processed/docking_pred/2023-Apr-26-1657_maxeplen10_maxtrainstep1000_exh32_gamma099_lrac9e-4_lrcr1e-3/09c0e00cbaa22f287e1ef7d21129eabb08ea3244_ligand_2.pdbqt
 12 12 0 0 0
SMALL
GASTEIGER

@<TRIPOS>ATOM
      1  C          6.3410   -0.9550    1.5550 C.3     1  UNL1        0.1270
      2  C          5.6960    0.3110    1.9760 C.2     1  UNL1        0.3030
      3  O          4.5200    0.3270    2.4170 O.2     1  UNL1       -0.2520
      4  O          6.3760    1.5160    1.8940 O.3     1  UNL1       -0.4810
      5  H          6.0100    2.2570    1.2890 H       1  UNL1        0.2960
      6  C          6.8050   -0.7990    0.1390 C.3     1  UNL1        0.0470
      7  C          8.2510   -0.6370    0.0020 C.2     1  UNL1       -0.0470
      8  C          8.7760    0.2640   -0.8960 C.2     1  UNL1        0.0040
      9  C          9.0890   -1.3980    0.7840 C.2     1  UNL1        0.0040
     10  C         10.1670    0.3660   -0.9730 C.2     1  UNL1        0.0000
     11  C         10.4640   -1.2960    0.7060 C.2     1  UNL1        0.0000
     12  C         10.9980   -0.3960   -0.1910 C.2     1  UNL1        0.0000
@<TRIPOS>BOND
     1    10     8    1
     2    10    12    2
     3     8     7    2
     4    12    11    1
     5     7     6    1
     6     7     9    1
     7     6     1    1
     8    11     9    2
     9     5     4    1
    10     1     2    1
    11     4     2    1
    12     2     3    2
