@<TRIPOS>MOLECULE
/home/cewinharhar/GITHUB/reincatalyze/data/processed/docking_pred/2023-Apr-26-1657_maxeplen10_maxtrainstep1000_exh32_gamma099_lrac9e-4_lrcr1e-3/09c0e00cbaa22f287e1ef7d21129eabb08ea3244_ligand_2.pdbqt
 12 12 0 0 0
SMALL
GASTEIGER

@<TRIPOS>ATOM
      1  C          5.2690   -0.2520    1.9270 C.3     1  UNL1        0.1270
      2  C          4.5880    1.0630    1.9750 C.2     1  UNL1        0.3030
      3  O          5.1090    2.0850    1.4640 O.2     1  UNL1       -0.2520
      4  O          3.3540    1.2010    2.5890 O.3     1  UNL1       -0.4810
      5  H          3.3070    1.5770    3.5400 H       1  UNL1        0.2960
      6  C          6.7480   -0.0150    1.8820 C.3     1  UNL1        0.0470
      7  C          7.4160   -0.6350    0.7390 C.2     1  UNL1       -0.0470
      8  C          6.7210   -0.9140   -0.4150 C.2     1  UNL1        0.0040
      9  C          8.7550   -0.9380    0.8270 C.2     1  UNL1        0.0040
     10  C          7.4230   -1.5060   -1.4670 C.2     1  UNL1        0.0000
     11  C          9.4470   -1.5240   -0.2140 C.2     1  UNL1        0.0000
     12  C          8.7580   -1.8070   -1.3730 C.2     1  UNL1        0.0000
@<TRIPOS>BOND
     1    10    12    2
     2    10     8    1
     3    12    11    1
     4     8     7    2
     5    11     9    2
     6     7     9    1
     7     7     6    1
     8     3     2    2
     9     6     1    1
    10     1     2    1
    11     2     4    1
    12     4     5    1
