@<TRIPOS>MOLECULE
/home/cewinharhar/GITHUB/reincatalyze/data/processed/docking_pred/2023-Apr-26-1657_maxeplen10_maxtrainstep1000_exh32_gamma099_lrac9e-4_lrcr1e-3/09c0e00cbaa22f287e1ef7d21129eabb08ea3244_ligand_2.pdbqt
 12 12 0 0 0
SMALL
GASTEIGER

@<TRIPOS>ATOM
      1  C          6.3790   -0.9610    1.6330 C.3     1  UNL1        0.1270
      2  C          5.7120    0.3100    2.0000 C.2     1  UNL1        0.3030
      3  O          4.5270    0.3270    2.4140 O.2     1  UNL1       -0.2520
      4  O          6.3810    1.5190    1.8940 O.3     1  UNL1       -0.4810
      5  H          6.0660    2.3170    2.4530 H       1  UNL1        0.2960
      6  C          6.8570   -0.8510    0.2180 C.3     1  UNL1        0.0470
      7  C          8.3050   -0.7000    0.0890 C.2     1  UNL1       -0.0470
      8  C          9.1620   -1.4900    0.8190 C.2     1  UNL1        0.0040
      9  C          8.8070    0.2440   -0.7770 C.2     1  UNL1        0.0040
     10  C         10.5340   -1.2920    0.6450 C.2     1  UNL1        0.0000
     11  C         10.1630    0.4390   -0.9480 C.2     1  UNL1        0.0000
     12  C         11.0290   -0.3480   -0.2200 C.2     1  UNL1        0.0000
@<TRIPOS>BOND
     1    11     9    1
     2    11    12    2
     3     9     7    2
     4    12    10    1
     5     7     6    1
     6     7     8    1
     7     6     1    1
     8    10     8    2
     9     1     2    1
    10     4     2    1
    11     4     5    1
    12     2     3    2
