@<TRIPOS>MOLECULE
/home/cewinharhar/GITHUB/reincatalyze/data/processed/docking_pred/2023-Apr-26-1657_maxeplen10_maxtrainstep1000_exh32_gamma099_lrac9e-4_lrcr1e-3/09c0e00cbaa22f287e1ef7d21129eabb08ea3244_ligand_2.pdbqt
 12 12 0 0 0
SMALL
GASTEIGER

@<TRIPOS>ATOM
      1  C          5.9380   -0.7520    1.5570 C.3     1  UNL1        0.1270
      2  C          5.2990    0.5170    1.9780 C.2     1  UNL1        0.3030
      3  O          4.1480    0.5310    2.4790 O.2     1  UNL1       -0.2520
      4  O          5.9580    1.7270    1.8300 O.3     1  UNL1       -0.4810
      5  H          6.1760    2.0670    0.8890 H       1  UNL1        0.2960
      6  C          7.4040   -0.5020    1.3700 C.3     1  UNL1        0.0470
      7  C          7.8920   -0.8050    0.0260 C.2     1  UNL1       -0.0470
      8  C          9.2410   -0.8630   -0.2370 C.2     1  UNL1        0.0040
      9  C          6.9840   -1.0380   -0.9810 C.2     1  UNL1        0.0040
     10  C          9.6350   -1.1590   -1.5430 C.2     1  UNL1        0.0000
     11  C          7.3750   -1.3300   -2.2730 C.2     1  UNL1        0.0000
     12  C          8.7250   -1.3890   -2.5440 C.2     1  UNL1        0.0000
@<TRIPOS>BOND
     1    12    11    2
     2    12    10    1
     3    11     9    1
     4    10     8    2
     5     9     7    2
     6     8     7    1
     7     7     6    1
     8     5     4    1
     9     6     1    1
    10     1     2    1
    11     4     2    1
    12     2     3    2
