@<TRIPOS>MOLECULE
/home/cewinharhar/GITHUB/reincatalyze/data/processed/docking_pred/2023-Apr-26-1657_maxeplen10_maxtrainstep1000_exh32_gamma099_lrac9e-4_lrcr1e-3/09c0e00cbaa22f287e1ef7d21129eabb08ea3244_ligand_2.pdbqt
 12 12 0 0 0
SMALL
GASTEIGER

@<TRIPOS>ATOM
      1  C          6.2350   -0.8260    1.6560 C.3     1  UNL1        0.1270
      2  C          5.6060    0.4730    1.9900 C.2     1  UNL1        0.3030
      3  O          6.2350    1.5530    1.8630 O.2     1  UNL1       -0.2520
      4  O          4.3010    0.5320    2.4530 O.3     1  UNL1       -0.4810
      5  H          3.9630   -0.1920    3.0930 H       1  UNL1        0.2960
      6  C          6.4700   -0.8700    0.1770 C.3     1  UNL1        0.0470
      7  C          7.8730   -1.0440   -0.1970 C.2     1  UNL1       -0.0470
      8  C          8.2340   -1.2060   -1.5140 C.2     1  UNL1        0.0040
      9  C          8.8350   -1.0420    0.7860 C.2     1  UNL1        0.0040
     10  C          9.5920   -1.3660   -1.7990 C.2     1  UNL1        0.0000
     11  C         10.1770   -1.2010    0.5030 C.2     1  UNL1        0.0000
     12  C         10.5480   -1.3650   -0.8140 C.2     1  UNL1        0.0000
@<TRIPOS>BOND
     1    10     8    1
     2    10    12    2
     3     8     7    2
     4    12    11    1
     5     7     6    1
     6     7     9    1
     7     6     1    1
     8    11     9    2
     9     1     2    1
    10     3     2    2
    11     2     4    1
    12     4     5    1
