@<TRIPOS>MOLECULE
/home/cewinharhar/GITHUB/reincatalyze/data/processed/docking_pred/2023-Apr-26-1657_maxeplen10_maxtrainstep1000_exh32_gamma099_lrac9e-4_lrcr1e-3/0bc78f1071f374665515956646110ea4a2a90639_ligand_2.pdbqt
 12 12 0 0 0
SMALL
GASTEIGER

@<TRIPOS>ATOM
      1  C          8.4370   -0.6470   -2.0900 C.3     1  UNL1        0.1270
      2  C          8.3950   -1.8990   -2.8810 C.2     1  UNL1        0.3030
      3  O          7.3020   -2.4120   -3.2290 O.2     1  UNL1       -0.2520
      4  O          9.5630   -2.5400   -3.2610 O.3     1  UNL1       -0.4810
      5  H         10.3270   -2.6310   -2.5850 H       1  UNL1        0.2960
      6  C          7.0680   -0.0390   -2.0960 C.3     1  UNL1        0.0470
      7  C          6.4810    0.1170   -0.7660 C.2     1  UNL1       -0.0470
      8  C          6.6220   -0.8660    0.1850 C.2     1  UNL1        0.0040
      9  C          5.7830    1.2650   -0.4720 C.2     1  UNL1        0.0040
     10  C          6.0360   -0.6490    1.4340 C.2     1  UNL1        0.0000
     11  C          5.2030    1.4780    0.7630 C.2     1  UNL1        0.0000
     12  C          5.3390    0.4980    1.7220 C.2     1  UNL1        0.0000
@<TRIPOS>BOND
     1     4     2    1
     2     4     5    1
     3     3     2    2
     4     2     1    1
     5     6     1    1
     6     6     7    1
     7     7     9    2
     8     7     8    1
     9     9    11    1
    10     8    10    2
    11    11    12    2
    12    10    12    1
