MODEL 1
REMARK VINA RESULT:      -7.4      0.000      0.000
REMARK SMILES O=C(O)CCc1ccccc1
REMARK SMILES IDX 4 1 2 2 1 3 3 4 5 6 6 7 7 8 11 9 8 10 10 11 9 12
REMARK H PARENT 3 5
REMARK Flexibility Score: inf
ROOT
ATOM      1  C   UNL     1       8.445  -0.668  -2.078  1.00  0.00     0.127 C 
ENDROOT
BRANCH   1   2
ATOM      2  C   UNL     1       8.474  -1.914  -2.881  1.00  0.00     0.303 C 
ATOM      3  O   UNL     1       9.549  -2.527  -3.093  1.00  0.00    -0.252 OA
BRANCH   2   4
ATOM      4  O   UNL     1       7.310  -2.437  -3.422  1.00  0.00    -0.481 OA
ATOM      5  H   UNL     1       6.630  -1.805  -3.854  1.00  0.00     0.296 HD
ENDBRANCH   2   4
ENDBRANCH   1   2
BRANCH   1   6
ATOM      6  C   UNL     1       7.047  -0.128  -2.099  1.00  0.00     0.047 C 
BRANCH   6   7
ATOM      7  C   UNL     1       6.470   0.077  -0.772  1.00  0.00    -0.047 A 
ATOM      8  C   UNL     1       5.820   1.249  -0.461  1.00  0.00     0.004 A 
ATOM      9  C   UNL     1       6.580  -0.920   0.170  1.00  0.00     0.004 A 
ATOM     10  C   UNL     1       5.292   1.376   0.826  1.00  0.00     0.000 A 
ATOM     11  C   UNL     1       6.058  -0.793   1.442  1.00  0.00     0.000 A 
ATOM     12  C   UNL     1       5.406   0.379   1.761  1.00  0.00     0.000 A 
ENDBRANCH   6   7
ENDBRANCH   1   6
TORSDOF 4
ENDMDL
MODEL 2
REMARK VINA RESULT:      -7.3      0.118      1.731
REMARK SMILES O=C(O)CCc1ccccc1
REMARK SMILES IDX 4 1 2 2 1 3 3 4 5 6 6 7 7 8 11 9 8 10 10 11 9 12
REMARK H PARENT 3 5
REMARK Flexibility Score: inf
ROOT
ATOM      1  C   UNL     1       8.437  -0.647  -2.090  1.00  0.00     0.127 C 
ENDROOT
BRANCH   1   2
ATOM      2  C   UNL     1       8.395  -1.899  -2.881  1.00  0.00     0.303 C 
ATOM      3  O   UNL     1       7.302  -2.412  -3.229  1.00  0.00    -0.252 OA
BRANCH   2   4
ATOM      4  O   UNL     1       9.563  -2.540  -3.261  1.00  0.00    -0.481 OA
ATOM      5  H   UNL     1      10.327  -2.631  -2.585  1.00  0.00     0.296 HD
ENDBRANCH   2   4
ENDBRANCH   1   2
BRANCH   1   6
ATOM      6  C   UNL     1       7.068  -0.039  -2.096  1.00  0.00     0.047 C 
BRANCH   6   7
ATOM      7  C   UNL     1       6.481   0.117  -0.766  1.00  0.00    -0.047 A 
ATOM      8  C   UNL     1       6.622  -0.866   0.185  1.00  0.00     0.004 A 
ATOM      9  C   UNL     1       5.783   1.265  -0.472  1.00  0.00     0.004 A 
ATOM     10  C   UNL     1       6.036  -0.649   1.434  1.00  0.00     0.000 A 
ATOM     11  C   UNL     1       5.203   1.478   0.763  1.00  0.00     0.000 A 
ATOM     12  C   UNL     1       5.339   0.498   1.722  1.00  0.00     0.000 A 
ENDBRANCH   6   7
ENDBRANCH   1   6
TORSDOF 4
ENDMDL
MODEL 3
REMARK VINA RESULT:      -6.8      3.371      5.053
REMARK SMILES O=C(O)CCc1ccccc1
REMARK SMILES IDX 4 1 2 2 1 3 3 4 5 6 6 7 7 8 11 9 8 10 10 11 9 12
REMARK H PARENT 3 5
REMARK Flexibility Score: inf
ROOT
ATOM      1  C   UNL     1       5.001   1.709   0.656  1.00  0.00     0.127 C 
ENDROOT
BRANCH   1   2
ATOM      2  C   UNL     1       4.493   1.085   1.900  1.00  0.00     0.303 C 
ATOM      3  O   UNL     1       5.151   0.199   2.499  1.00  0.00    -0.252 OA
BRANCH   2   4
ATOM      4  O   UNL     1       3.274   1.464   2.438  1.00  0.00    -0.481 OA
ATOM      5  H   UNL     1       2.578   0.745   2.656  1.00  0.00     0.296 HD
ENDBRANCH   2   4
ENDBRANCH   1   2
BRANCH   1   6
ATOM      6  C   UNL     1       6.497   1.743   0.722  1.00  0.00     0.047 C 
BRANCH   6   7
ATOM      7  C   UNL     1       7.157   1.008  -0.355  1.00  0.00    -0.047 A 
ATOM      8  C   UNL     1       8.482   1.231  -0.650  1.00  0.00     0.004 A 
ATOM      9  C   UNL     1       6.438   0.082  -1.075  1.00  0.00     0.004 A 
ATOM     10  C   UNL     1       9.048   0.492  -1.691  1.00  0.00     0.000 A 
ATOM     11  C   UNL     1       6.999  -0.648  -2.104  1.00  0.00     0.000 A 
ATOM     12  C   UNL     1       8.325  -0.429  -2.407  1.00  0.00     0.000 A 
ENDBRANCH   6   7
ENDBRANCH   1   6
TORSDOF 4
ENDMDL
MODEL 4
REMARK VINA RESULT:      -6.5      2.094      2.755
REMARK SMILES O=C(O)CCc1ccccc1
REMARK SMILES IDX 4 1 2 2 1 3 3 4 5 6 6 7 7 8 11 9 8 10 10 11 9 12
REMARK H PARENT 3 5
REMARK Flexibility Score: inf
ROOT
ATOM      1  C   UNL     1       8.500   0.683  -1.638  1.00  0.00     0.127 C 
ENDROOT
BRANCH   1   2
ATOM      2  C   UNL     1       9.659   0.291  -0.801  1.00  0.00     0.303 C 
ATOM      3  O   UNL     1       9.525  -0.499   0.166  1.00  0.00    -0.252 OA
BRANCH   2   4
ATOM      4  O   UNL     1      10.925   0.787  -1.065  1.00  0.00    -0.481 OA
ATOM      5  H   UNL     1      11.191   1.704  -0.696  1.00  0.00     0.296 HD
ENDBRANCH   2   4
ENDBRANCH   1   2
BRANCH   1   6
ATOM      6  C   UNL     1       7.353  -0.222  -1.308  1.00  0.00     0.047 C 
BRANCH   6   7
ATOM      7  C   UNL     1       6.442   0.315  -0.300  1.00  0.00    -0.047 A 
ATOM      8  C   UNL     1       6.195  -0.375   0.864  1.00  0.00     0.004 A 
ATOM      9  C   UNL     1       5.831   1.527  -0.524  1.00  0.00     0.004 A 
ATOM     10  C   UNL     1       5.314   0.199   1.784  1.00  0.00     0.000 A 
ATOM     11  C   UNL     1       4.960   2.093   0.386  1.00  0.00     0.000 A 
ATOM     12  C   UNL     1       4.707   1.407   1.554  1.00  0.00     0.000 A 
ENDBRANCH   6   7
ENDBRANCH   1   6
TORSDOF 4
ENDMDL
MODEL 5
REMARK VINA RESULT:      -6.5      1.886      2.830
REMARK SMILES O=C(O)CCc1ccccc1
REMARK SMILES IDX 4 1 2 2 1 3 3 4 5 6 6 7 7 8 11 9 8 10 10 11 9 12
REMARK H PARENT 3 5
REMARK Flexibility Score: inf
ROOT
ATOM      1  C   UNL     1       8.146  -1.616   1.205  1.00  0.00     0.127 C 
ENDROOT
BRANCH   1   2
ATOM      2  C   UNL     1       8.489  -2.798   0.379  1.00  0.00     0.303 C 
ATOM      3  O   UNL     1       9.171  -3.743   0.846  1.00  0.00    -0.252 OA
BRANCH   2   4
ATOM      4  O   UNL     1       8.063  -2.891  -0.936  1.00  0.00    -0.481 OA
ATOM      5  H   UNL     1       7.835  -3.811  -1.325  1.00  0.00     0.296 HD
ENDBRANCH   2   4
ENDBRANCH   1   2
BRANCH   1   6
ATOM      6  C   UNL     1       6.654  -1.506   1.274  1.00  0.00     0.047 C 
BRANCH   6   7
ATOM      7  C   UNL     1       6.128  -0.230   0.792  1.00  0.00    -0.047 A 
ATOM      8  C   UNL     1       5.383   0.580   1.616  1.00  0.00     0.004 A 
ATOM      9  C   UNL     1       6.390   0.157  -0.502  1.00  0.00     0.004 A 
ATOM     10  C   UNL     1       4.914   1.786   1.088  1.00  0.00     0.000 A 
ATOM     11  C   UNL     1       5.925   1.349  -1.023  1.00  0.00     0.000 A 
ATOM     12  C   UNL     1       5.177   2.166  -0.204  1.00  0.00     0.000 A 
ENDBRANCH   6   7
ENDBRANCH   1   6
TORSDOF 4
ENDMDL
