@<TRIPOS>MOLECULE
/home/cewinharhar/GITHUB/reincatalyze/data/processed/docking_pred/2023-Apr-26-1657_maxeplen10_maxtrainstep1000_exh32_gamma099_lrac9e-4_lrcr1e-3/0bc78f1071f374665515956646110ea4a2a90639_ligand_2.pdbqt
 12 12 0 0 0
SMALL
GASTEIGER

@<TRIPOS>ATOM
      1  C          8.4450   -0.6680   -2.0780 C.3     1  UNL1        0.1270
      2  C          8.4740   -1.9140   -2.8810 C.2     1  UNL1        0.3030
      3  O          9.5490   -2.5270   -3.0930 O.2     1  UNL1       -0.2520
      4  O          7.3100   -2.4370   -3.4220 O.3     1  UNL1       -0.4810
      5  H          6.6300   -1.8050   -3.8540 H       1  UNL1        0.2960
      6  C          7.0470   -0.1280   -2.0990 C.3     1  UNL1        0.0470
      7  C          6.4700    0.0770   -0.7720 C.2     1  UNL1       -0.0470
      8  C          5.8200    1.2490   -0.4610 C.2     1  UNL1        0.0040
      9  C          6.5800   -0.9200    0.1700 C.2     1  UNL1        0.0040
     10  C          5.2920    1.3760    0.8260 C.2     1  UNL1        0.0000
     11  C          6.0580   -0.7930    1.4420 C.2     1  UNL1        0.0000
     12  C          5.4060    0.3790    1.7610 C.2     1  UNL1        0.0000
@<TRIPOS>BOND
     1     5     4    1
     2     4     2    1
     3     3     2    2
     4     2     1    1
     5     6     1    1
     6     6     7    1
     7     7     8    2
     8     7     9    1
     9     8    10    1
    10     9    11    2
    11    10    12    2
    12    11    12    1
