@<TRIPOS>MOLECULE
/home/cewinharhar/GITHUB/reincatalyze/data/processed/docking_pred/2023-Apr-26-1657_maxeplen10_maxtrainstep1000_exh32_gamma099_lrac9e-4_lrcr1e-3/0bc78f1071f374665515956646110ea4a2a90639_ligand_2.pdbqt
 12 12 0 0 0
SMALL
GASTEIGER

@<TRIPOS>ATOM
      1  C          8.1460   -1.6160    1.2050 C.3     1  UNL1        0.1270
      2  C          8.4890   -2.7980    0.3790 C.2     1  UNL1        0.3030
      3  O          9.1710   -3.7430    0.8460 O.2     1  UNL1       -0.2520
      4  O          8.0630   -2.8910   -0.9360 O.3     1  UNL1       -0.4810
      5  H          7.8350   -3.8110   -1.3250 H       1  UNL1        0.2960
      6  C          6.6540   -1.5060    1.2740 C.3     1  UNL1        0.0470
      7  C          6.1280   -0.2300    0.7920 C.2     1  UNL1       -0.0470
      8  C          5.3830    0.5800    1.6160 C.2     1  UNL1        0.0040
      9  C          6.3900    0.1570   -0.5020 C.2     1  UNL1        0.0040
     10  C          4.9140    1.7860    1.0880 C.2     1  UNL1        0.0000
     11  C          5.9250    1.3490   -1.0230 C.2     1  UNL1        0.0000
     12  C          5.1770    2.1660   -0.2040 C.2     1  UNL1        0.0000
@<TRIPOS>BOND
     1     5     4    1
     2    11     9    1
     3    11    12    2
     4     4     2    1
     5     9     7    2
     6    12    10    1
     7     2     3    2
     8     2     1    1
     9     7     6    1
    10     7     8    1
    11    10     8    2
    12     1     6    1
