@<TRIPOS>MOLECULE
/home/cewinharhar/GITHUB/reincatalyze/data/processed/docking_pred/2023-Apr-26-1657_maxeplen10_maxtrainstep1000_exh32_gamma099_lrac9e-4_lrcr1e-3/0bc78f1071f374665515956646110ea4a2a90639_ligand_2.pdbqt
 12 12 0 0 0
SMALL
GASTEIGER

@<TRIPOS>ATOM
      1  C          5.0010    1.7090    0.6560 C.3     1  UNL1        0.1270
      2  C          4.4930    1.0850    1.9000 C.2     1  UNL1        0.3030
      3  O          5.1510    0.1990    2.4990 O.2     1  UNL1       -0.2520
      4  O          3.2740    1.4640    2.4380 O.3     1  UNL1       -0.4810
      5  H          2.5780    0.7450    2.6560 H       1  UNL1        0.2960
      6  C          6.4970    1.7430    0.7220 C.3     1  UNL1        0.0470
      7  C          7.1570    1.0080   -0.3550 C.2     1  UNL1       -0.0470
      8  C          8.4820    1.2310   -0.6500 C.2     1  UNL1        0.0040
      9  C          6.4380    0.0820   -1.0750 C.2     1  UNL1        0.0040
     10  C          9.0480    0.4920   -1.6910 C.2     1  UNL1        0.0000
     11  C          6.9990   -0.6480   -2.1040 C.2     1  UNL1        0.0000
     12  C          8.3250   -0.4290   -2.4070 C.2     1  UNL1        0.0000
@<TRIPOS>BOND
     1    12    11    2
     2    12    10    1
     3    11     9    1
     4    10     8    2
     5     9     7    2
     6     8     7    1
     7     7     6    1
     8     1     6    1
     9     1     2    1
    10     2     4    1
    11     2     3    2
    12     4     5    1
