@<TRIPOS>MOLECULE
/home/cewinharhar/GITHUB/reincatalyze/data/processed/docking_pred/2023-Apr-26-1657_maxeplen10_maxtrainstep1000_exh32_gamma099_lrac9e-4_lrcr1e-3/0bc78f1071f374665515956646110ea4a2a90639_ligand_2.pdbqt
 12 12 0 0 0
SMALL
GASTEIGER

@<TRIPOS>ATOM
      1  C          8.5000    0.6830   -1.6380 C.3     1  UNL1        0.1270
      2  C          9.6590    0.2910   -0.8010 C.2     1  UNL1        0.3030
      3  O          9.5250   -0.4990    0.1660 O.2     1  UNL1       -0.2520
      4  O         10.9250    0.7870   -1.0650 O.3     1  UNL1       -0.4810
      5  H         11.1910    1.7040   -0.6960 H       1  UNL1        0.2960
      6  C          7.3530   -0.2220   -1.3080 C.3     1  UNL1        0.0470
      7  C          6.4420    0.3150   -0.3000 C.2     1  UNL1       -0.0470
      8  C          6.1950   -0.3750    0.8640 C.2     1  UNL1        0.0040
      9  C          5.8310    1.5270   -0.5240 C.2     1  UNL1        0.0040
     10  C          5.3140    0.1990    1.7840 C.2     1  UNL1        0.0000
     11  C          4.9600    2.0930    0.3860 C.2     1  UNL1        0.0000
     12  C          4.7070    1.4070    1.5540 C.2     1  UNL1        0.0000
@<TRIPOS>BOND
     1     1     6    1
     2     1     2    1
     3     6     7    1
     4     4     2    1
     5     4     5    1
     6     2     3    2
     7     9     7    2
     8     9    11    1
     9     7     8    1
    10    11    12    2
    11     8    10    2
    12    12    10    1
