@<TRIPOS>MOLECULE
/home/cewinharhar/GITHUB/reincatalyze/data/processed/docking_pred/2023-Apr-26-1657_maxeplen10_maxtrainstep1000_exh32_gamma099_lrac9e-4_lrcr1e-3/0c0669ff2f8dcec30d9aff9f411b757c1c1ac29f_ligand_2.pdbqt
 12 12 0 0 0
SMALL
GASTEIGER

@<TRIPOS>ATOM
      1  C          8.3800   -0.5890   -2.1570 C.3     1  UNL1        0.1270
      2  C          8.3550   -1.8670   -2.9080 C.2     1  UNL1        0.3030
      3  O          7.2710   -2.3950   -3.2580 O.2     1  UNL1       -0.2520
      4  O          9.5320   -2.5150   -3.2450 O.3     1  UNL1       -0.4810
      5  H         10.4270   -2.0430   -3.0890 H       1  UNL1        0.2960
      6  C          6.9840   -0.0470   -2.1040 C.3     1  UNL1        0.0470
      7  C          6.4510    0.0900   -0.7490 C.2     1  UNL1       -0.0470
      8  C          5.8180    1.2460   -0.3560 C.2     1  UNL1        0.0040
      9  C          6.5860   -0.9560    0.1340 C.2     1  UNL1        0.0040
     10  C          5.3330    1.3070    0.9520 C.2     1  UNL1        0.0000
     11  C          6.1060   -0.8940    1.4270 C.2     1  UNL1        0.0000
     12  C          5.4710    0.2610    1.8290 C.2     1  UNL1        0.0000
@<TRIPOS>BOND
     1     3     2    2
     2     4     5    1
     3     4     2    1
     4     2     1    1
     5     1     6    1
     6     6     7    1
     7     7     8    2
     8     7     9    1
     9     8    10    1
    10     9    11    2
    11    10    12    2
    12    11    12    1
