@<TRIPOS>MOLECULE
/home/cewinharhar/GITHUB/reincatalyze/data/processed/docking_pred/2023-Apr-26-1657_maxeplen10_maxtrainstep1000_exh32_gamma099_lrac9e-4_lrcr1e-3/0c0669ff2f8dcec30d9aff9f411b757c1c1ac29f_ligand_2.pdbqt
 12 12 0 0 0
SMALL
GASTEIGER

@<TRIPOS>ATOM
      1  C          5.0410    1.7310    0.6710 C.3     1  UNL1        0.1270
      2  C          4.6040    1.0470    1.9110 C.2     1  UNL1        0.3030
      3  O          5.3380    0.2020    2.4820 O.2     1  UNL1       -0.2520
      4  O          3.3690    1.3220    2.4770 O.3     1  UNL1       -0.4810
      5  H          2.5210    0.9730    2.0220 H       1  UNL1        0.2960
      6  C          6.5370    1.8100    0.6790 C.3     1  UNL1        0.0470
      7  C          7.1790    1.0360   -0.3810 C.2     1  UNL1       -0.0470
      8  C          8.5170    1.1960   -0.6580 C.2     1  UNL1        0.0040
      9  C          6.4290    0.1370   -1.1040 C.2     1  UNL1        0.0040
     10  C          9.0640    0.4220   -1.6840 C.2     1  UNL1        0.0000
     11  C          6.9710   -0.6270   -2.1180 C.2     1  UNL1        0.0000
     12  C          8.3110   -0.4720   -2.4020 C.2     1  UNL1        0.0000
@<TRIPOS>BOND
     1    12    11    2
     2    12    10    1
     3    11     9    1
     4    10     8    2
     5     9     7    2
     6     8     7    1
     7     7     6    1
     8     1     6    1
     9     1     2    1
    10     2     4    1
    11     2     3    2
    12     5     4    1
