@<TRIPOS>MOLECULE
/home/cewinharhar/GITHUB/reincatalyze/data/processed/docking_pred/2023-Apr-26-1657_maxeplen10_maxtrainstep1000_exh32_gamma099_lrac9e-4_lrcr1e-3/0c0669ff2f8dcec30d9aff9f411b757c1c1ac29f_ligand_2.pdbqt
 12 12 0 0 0
SMALL
GASTEIGER

@<TRIPOS>ATOM
      1  C          8.2380    0.1890   -2.2000 C.3     1  UNL1        0.1270
      2  C          9.3600    0.3400   -1.2440 C.2     1  UNL1        0.3030
      3  O          9.4580   -0.3990   -0.2330 O.2     1  UNL1       -0.2520
      4  O         10.3360    1.3040   -1.4410 O.3     1  UNL1       -0.4810
      5  H         11.2090    1.0460   -1.9090 H       1  UNL1        0.2960
      6  C          7.1310   -0.5500   -1.5120 C.3     1  UNL1        0.0470
      7  C          6.3430    0.2750   -0.5980 C.2     1  UNL1       -0.0470
      8  C          5.8280    1.4830   -1.0070 C.2     1  UNL1        0.0040
      9  C          6.1180   -0.1710    0.6840 C.2     1  UNL1        0.0040
     10  C          5.0850    2.2180   -0.0800 C.2     1  UNL1        0.0000
     11  C          5.3840    0.5570    1.5990 C.2     1  UNL1        0.0000
     12  C          4.8650    1.7690    1.1970 C.2     1  UNL1        0.0000
@<TRIPOS>BOND
     1     1     6    1
     2     1     2    1
     3     5     4    1
     4     6     7    1
     5     4     2    1
     6     2     3    2
     7     8     7    2
     8     8    10    1
     9     7     9    1
    10    10    12    2
    11     9    11    2
    12    12    11    1
