@<TRIPOS>MOLECULE
/home/cewinharhar/GITHUB/reincatalyze/data/processed/docking_pred/2023-Apr-26-1657_maxeplen10_maxtrainstep1000_exh32_gamma099_lrac9e-4_lrcr1e-3/0c0669ff2f8dcec30d9aff9f411b757c1c1ac29f_ligand_2.pdbqt
 12 12 0 0 0
SMALL
GASTEIGER

@<TRIPOS>ATOM
      1  C          8.4810   -0.6810   -2.0160 C.3     1  UNL1        0.1270
      2  C          8.4020   -1.9070   -2.8450 C.2     1  UNL1        0.3030
      3  O          7.2940   -2.3900   -3.1870 O.2     1  UNL1       -0.2520
      4  O          9.5520   -2.5540   -3.2660 O.3     1  UNL1       -0.4810
      5  H          9.4730   -3.4630   -3.7320 H       1  UNL1        0.2960
      6  C          7.1410   -0.0120   -2.0350 C.3     1  UNL1        0.0470
      7  C          6.5220    0.1180   -0.7170 C.2     1  UNL1       -0.0470
      8  C          6.6220   -0.8940    0.2100 C.2     1  UNL1        0.0040
      9  C          5.8360    1.2700   -0.4080 C.2     1  UNL1        0.0040
     10  C          6.0070   -0.7010    1.4490 C.2     1  UNL1        0.0000
     11  C          5.2290    1.4590    0.8180 C.2     1  UNL1        0.0000
     12  C          5.3230    0.4500    1.7510 C.2     1  UNL1        0.0000
@<TRIPOS>BOND
     1     5     4    1
     2     4     2    1
     3     3     2    2
     4     2     1    1
     5     6     1    1
     6     6     7    1
     7     7     9    2
     8     7     8    1
     9     9    11    1
    10     8    10    2
    11    11    12    2
    12    10    12    1
