MODEL 1
REMARK VINA RESULT:      -7.3      0.000      0.000
REMARK SMILES O=C(O)CCc1ccccc1
REMARK SMILES IDX 4 1 2 2 1 3 3 4 5 6 6 7 7 8 11 9 8 10 10 11 9 12
REMARK H PARENT 3 5
REMARK Flexibility Score: inf
ROOT
ATOM      1  C   UNL     1       8.481  -0.681  -2.016  1.00  0.00     0.127 C 
ENDROOT
BRANCH   1   2
ATOM      2  C   UNL     1       8.402  -1.907  -2.845  1.00  0.00     0.303 C 
ATOM      3  O   UNL     1       7.294  -2.390  -3.187  1.00  0.00    -0.252 OA
BRANCH   2   4
ATOM      4  O   UNL     1       9.552  -2.554  -3.266  1.00  0.00    -0.481 OA
ATOM      5  H   UNL     1       9.473  -3.463  -3.732  1.00  0.00     0.296 HD
ENDBRANCH   2   4
ENDBRANCH   1   2
BRANCH   1   6
ATOM      6  C   UNL     1       7.141  -0.012  -2.035  1.00  0.00     0.047 C 
BRANCH   6   7
ATOM      7  C   UNL     1       6.522   0.118  -0.717  1.00  0.00    -0.047 A 
ATOM      8  C   UNL     1       6.622  -0.894   0.210  1.00  0.00     0.004 A 
ATOM      9  C   UNL     1       5.836   1.270  -0.408  1.00  0.00     0.004 A 
ATOM     10  C   UNL     1       6.007  -0.701   1.449  1.00  0.00     0.000 A 
ATOM     11  C   UNL     1       5.229   1.459   0.818  1.00  0.00     0.000 A 
ATOM     12  C   UNL     1       5.323   0.450   1.751  1.00  0.00     0.000 A 
ENDBRANCH   6   7
ENDBRANCH   1   6
TORSDOF 4
ENDMDL
MODEL 2
REMARK VINA RESULT:      -7.2      0.156      1.443
REMARK SMILES O=C(O)CCc1ccccc1
REMARK SMILES IDX 4 1 2 2 1 3 3 4 5 6 6 7 7 8 11 9 8 10 10 11 9 12
REMARK H PARENT 3 5
REMARK Flexibility Score: inf
ROOT
ATOM      1  C   UNL     1       8.380  -0.589  -2.157  1.00  0.00     0.127 C 
ENDROOT
BRANCH   1   2
ATOM      2  C   UNL     1       8.355  -1.867  -2.908  1.00  0.00     0.303 C 
ATOM      3  O   UNL     1       7.271  -2.395  -3.258  1.00  0.00    -0.252 OA
BRANCH   2   4
ATOM      4  O   UNL     1       9.532  -2.515  -3.245  1.00  0.00    -0.481 OA
ATOM      5  H   UNL     1      10.427  -2.043  -3.089  1.00  0.00     0.296 HD
ENDBRANCH   2   4
ENDBRANCH   1   2
BRANCH   1   6
ATOM      6  C   UNL     1       6.984  -0.047  -2.104  1.00  0.00     0.047 C 
BRANCH   6   7
ATOM      7  C   UNL     1       6.451   0.090  -0.749  1.00  0.00    -0.047 A 
ATOM      8  C   UNL     1       5.818   1.246  -0.356  1.00  0.00     0.004 A 
ATOM      9  C   UNL     1       6.586  -0.956   0.134  1.00  0.00     0.004 A 
ATOM     10  C   UNL     1       5.333   1.307   0.952  1.00  0.00     0.000 A 
ATOM     11  C   UNL     1       6.106  -0.894   1.427  1.00  0.00     0.000 A 
ATOM     12  C   UNL     1       5.471   0.261   1.829  1.00  0.00     0.000 A 
ENDBRANCH   6   7
ENDBRANCH   1   6
TORSDOF 4
ENDMDL
MODEL 3
REMARK VINA RESULT:      -6.7      3.245      5.102
REMARK SMILES O=C(O)CCc1ccccc1
REMARK SMILES IDX 4 1 2 2 1 3 3 4 5 6 6 7 7 8 11 9 8 10 10 11 9 12
REMARK H PARENT 3 5
REMARK Flexibility Score: inf
ROOT
ATOM      1  C   UNL     1       5.041   1.731   0.671  1.00  0.00     0.127 C 
ENDROOT
BRANCH   1   2
ATOM      2  C   UNL     1       4.604   1.047   1.911  1.00  0.00     0.303 C 
ATOM      3  O   UNL     1       5.338   0.202   2.482  1.00  0.00    -0.252 OA
BRANCH   2   4
ATOM      4  O   UNL     1       3.369   1.322   2.477  1.00  0.00    -0.481 OA
ATOM      5  H   UNL     1       2.521   0.973   2.022  1.00  0.00     0.296 HD
ENDBRANCH   2   4
ENDBRANCH   1   2
BRANCH   1   6
ATOM      6  C   UNL     1       6.537   1.810   0.679  1.00  0.00     0.047 C 
BRANCH   6   7
ATOM      7  C   UNL     1       7.179   1.036  -0.381  1.00  0.00    -0.047 A 
ATOM      8  C   UNL     1       8.517   1.196  -0.658  1.00  0.00     0.004 A 
ATOM      9  C   UNL     1       6.429   0.137  -1.104  1.00  0.00     0.004 A 
ATOM     10  C   UNL     1       9.064   0.422  -1.684  1.00  0.00     0.000 A 
ATOM     11  C   UNL     1       6.971  -0.627  -2.118  1.00  0.00     0.000 A 
ATOM     12  C   UNL     1       8.311  -0.472  -2.402  1.00  0.00     0.000 A 
ENDBRANCH   6   7
ENDBRANCH   1   6
TORSDOF 4
ENDMDL
MODEL 4
REMARK VINA RESULT:      -6.7      3.776      5.028
REMARK SMILES O=C(O)CCc1ccccc1
REMARK SMILES IDX 4 1 2 2 1 3 3 4 5 6 6 7 7 8 11 9 8 10 10 11 9 12
REMARK H PARENT 3 5
REMARK Flexibility Score: inf
ROOT
ATOM      1  C   UNL     1       5.417   2.880   0.030  1.00  0.00     0.127 C 
ENDROOT
BRANCH   1   2
ATOM      2  C   UNL     1       6.198   3.859   0.824  1.00  0.00     0.303 C 
ATOM      3  O   UNL     1       6.863   4.767   0.266  1.00  0.00    -0.252 OA
BRANCH   2   4
ATOM      4  O   UNL     1       6.215   3.798   2.208  1.00  0.00    -0.481 OA
ATOM      5  H   UNL     1       5.968   4.631   2.749  1.00  0.00     0.296 HD
ENDBRANCH   2   4
ENDBRANCH   1   2
BRANCH   1   6
ATOM      6  C   UNL     1       4.989   1.771   0.941  1.00  0.00     0.047 C 
BRANCH   6   7
ATOM      7  C   UNL     1       5.813   0.568   0.841  1.00  0.00    -0.047 A 
ATOM      8  C   UNL     1       6.490   0.273  -0.320  1.00  0.00     0.004 A 
ATOM      9  C   UNL     1       5.910  -0.272   1.927  1.00  0.00     0.004 A 
ATOM     10  C   UNL     1       7.260  -0.892  -0.343  1.00  0.00     0.000 A 
ATOM     11  C   UNL     1       6.671  -1.424   1.902  1.00  0.00     0.000 A 
ATOM     12  C   UNL     1       7.351  -1.727   0.742  1.00  0.00     0.000 A 
ENDBRANCH   6   7
ENDBRANCH   1   6
TORSDOF 4
ENDMDL
MODEL 5
REMARK VINA RESULT:      -6.6      1.913      2.572
REMARK SMILES O=C(O)CCc1ccccc1
REMARK SMILES IDX 4 1 2 2 1 3 3 4 5 6 6 7 7 8 11 9 8 10 10 11 9 12
REMARK H PARENT 3 5
REMARK Flexibility Score: inf
ROOT
ATOM      1  C   UNL     1       8.238   0.189  -2.200  1.00  0.00     0.127 C 
ENDROOT
BRANCH   1   2
ATOM      2  C   UNL     1       9.360   0.340  -1.244  1.00  0.00     0.303 C 
ATOM      3  O   UNL     1       9.458  -0.399  -0.233  1.00  0.00    -0.252 OA
BRANCH   2   4
ATOM      4  O   UNL     1      10.336   1.304  -1.441  1.00  0.00    -0.481 OA
ATOM      5  H   UNL     1      11.209   1.046  -1.909  1.00  0.00     0.296 HD
ENDBRANCH   2   4
ENDBRANCH   1   2
BRANCH   1   6
ATOM      6  C   UNL     1       7.131  -0.550  -1.512  1.00  0.00     0.047 C 
BRANCH   6   7
ATOM      7  C   UNL     1       6.343   0.275  -0.598  1.00  0.00    -0.047 A 
ATOM      8  C   UNL     1       5.828   1.483  -1.007  1.00  0.00     0.004 A 
ATOM      9  C   UNL     1       6.118  -0.171   0.684  1.00  0.00     0.004 A 
ATOM     10  C   UNL     1       5.085   2.218  -0.080  1.00  0.00     0.000 A 
ATOM     11  C   UNL     1       5.384   0.557   1.599  1.00  0.00     0.000 A 
ATOM     12  C   UNL     1       4.865   1.769   1.197  1.00  0.00     0.000 A 
ENDBRANCH   6   7
ENDBRANCH   1   6
TORSDOF 4
ENDMDL
