@<TRIPOS>MOLECULE
/home/cewinharhar/GITHUB/reincatalyze/data/processed/docking_pred/2023-Apr-26-1657_maxeplen10_maxtrainstep1000_exh32_gamma099_lrac9e-4_lrcr1e-3/0c0669ff2f8dcec30d9aff9f411b757c1c1ac29f_ligand_2.pdbqt
 12 12 0 0 0
SMALL
GASTEIGER

@<TRIPOS>ATOM
      1  C          5.4170    2.8800    0.0300 C.3     1  UNL1        0.1270
      2  C          6.1980    3.8590    0.8240 C.2     1  UNL1        0.3030
      3  O          6.8630    4.7670    0.2660 O.2     1  UNL1       -0.2520
      4  O          6.2150    3.7980    2.2080 O.3     1  UNL1       -0.4810
      5  H          5.9680    4.6310    2.7490 H       1  UNL1        0.2960
      6  C          4.9890    1.7710    0.9410 C.3     1  UNL1        0.0470
      7  C          5.8130    0.5680    0.8410 C.2     1  UNL1       -0.0470
      8  C          6.4900    0.2730   -0.3200 C.2     1  UNL1        0.0040
      9  C          5.9100   -0.2720    1.9270 C.2     1  UNL1        0.0040
     10  C          7.2600   -0.8920   -0.3430 C.2     1  UNL1        0.0000
     11  C          6.6710   -1.4240    1.9020 C.2     1  UNL1        0.0000
     12  C          7.3510   -1.7270    0.7420 C.2     1  UNL1        0.0000
@<TRIPOS>BOND
     1    10     8    1
     2    10    12    2
     3     8     7    2
     4     1     2    1
     5     1     6    1
     6     3     2    2
     7    12    11    1
     8     2     4    1
     9     7     6    1
    10     7     9    1
    11    11     9    2
    12     4     5    1
