MODEL 1
REMARK VINA RESULT:      -7.4      0.000      0.000
REMARK SMILES O=C(O)CCc1ccccc1
REMARK SMILES IDX 4 1 2 2 1 3 3 4 5 6 6 7 7 8 11 9 8 10 10 11 9 12
REMARK H PARENT 3 5
REMARK Flexibility Score: inf
ROOT
ATOM      1  C   UNL     1       8.452  -0.647  -2.098  1.00  0.00     0.127 C 
ENDROOT
BRANCH   1   2
ATOM      2  C   UNL     1       8.483  -1.897  -2.894  1.00  0.00     0.303 C 
ATOM      3  O   UNL     1       9.562  -2.500  -3.116  1.00  0.00    -0.252 OA
BRANCH   2   4
ATOM      4  O   UNL     1       7.319  -2.435  -3.417  1.00  0.00    -0.481 OA
ATOM      5  H   UNL     1       6.449  -1.899  -3.358  1.00  0.00     0.296 HD
ENDBRANCH   2   4
ENDBRANCH   1   2
BRANCH   1   6
ATOM      6  C   UNL     1       7.053  -0.112  -2.117  1.00  0.00     0.047 C 
BRANCH   6   7
ATOM      7  C   UNL     1       6.476   0.092  -0.789  1.00  0.00    -0.047 A 
ATOM      8  C   UNL     1       5.822   1.262  -0.478  1.00  0.00     0.004 A 
ATOM      9  C   UNL     1       6.593  -0.903   0.154  1.00  0.00     0.004 A 
ATOM     10  C   UNL     1       5.295   1.388   0.809  1.00  0.00     0.000 A 
ATOM     11  C   UNL     1       6.073  -0.776   1.427  1.00  0.00     0.000 A 
ATOM     12  C   UNL     1       5.416   0.392   1.746  1.00  0.00     0.000 A 
ENDBRANCH   6   7
ENDBRANCH   1   6
TORSDOF 4
ENDMDL
MODEL 2
REMARK VINA RESULT:      -7.3      0.053      1.437
REMARK SMILES O=C(O)CCc1ccccc1
REMARK SMILES IDX 4 1 2 2 1 3 3 4 5 6 6 7 7 8 11 9 8 10 10 11 9 12
REMARK H PARENT 3 5
REMARK Flexibility Score: inf
ROOT
ATOM      1  C   UNL     1       8.473  -0.674  -2.079  1.00  0.00     0.127 C 
ENDROOT
BRANCH   1   2
ATOM      2  C   UNL     1       8.487  -1.922  -2.879  1.00  0.00     0.303 C 
ATOM      3  O   UNL     1       9.556  -2.544  -3.096  1.00  0.00    -0.252 OA
BRANCH   2   4
ATOM      4  O   UNL     1       7.316  -2.437  -3.411  1.00  0.00    -0.481 OA
ATOM      5  H   UNL     1       6.468  -1.863  -3.406  1.00  0.00     0.296 HD
ENDBRANCH   2   4
ENDBRANCH   1   2
BRANCH   1   6
ATOM      6  C   UNL     1       7.078  -0.128  -2.083  1.00  0.00     0.047 C 
BRANCH   6   7
ATOM      7  C   UNL     1       6.500   0.037  -0.751  1.00  0.00    -0.047 A 
ATOM      8  C   UNL     1       6.605  -0.961   0.190  1.00  0.00     0.004 A 
ATOM      9  C   UNL     1       5.846   1.208  -0.443  1.00  0.00     0.004 A 
ATOM     10  C   UNL     1       6.030  -0.735   1.442  1.00  0.00     0.000 A 
ATOM     11  C   UNL     1       5.278   1.430   0.796  1.00  0.00     0.000 A 
ATOM     12  C   UNL     1       5.379   0.435   1.744  1.00  0.00     0.000 A 
ENDBRANCH   6   7
ENDBRANCH   1   6
TORSDOF 4
ENDMDL
MODEL 3
REMARK VINA RESULT:      -7.2      0.629      1.055
REMARK SMILES O=C(O)CCc1ccccc1
REMARK SMILES IDX 4 1 2 2 1 3 3 4 5 6 6 7 7 8 11 9 8 10 10 11 9 12
REMARK H PARENT 3 5
REMARK Flexibility Score: inf
ROOT
ATOM      1  C   UNL     1       8.285  -0.937  -1.853  1.00  0.00     0.127 C 
ENDROOT
BRANCH   1   2
ATOM      2  C   UNL     1       8.435  -2.025  -2.848  1.00  0.00     0.303 C 
ATOM      3  O   UNL     1       9.560  -2.520  -3.105  1.00  0.00    -0.252 OA
BRANCH   2   4
ATOM      4  O   UNL     1       7.334  -2.525  -3.524  1.00  0.00    -0.481 OA
ATOM      5  H   UNL     1       6.907  -3.400  -3.207  1.00  0.00     0.296 HD
ENDBRANCH   2   4
ENDBRANCH   1   2
BRANCH   1   6
ATOM      6  C   UNL     1       7.326  -1.395  -0.796  1.00  0.00     0.047 C 
BRANCH   6   7
ATOM      7  C   UNL     1       6.534  -0.317  -0.205  1.00  0.00    -0.047 A 
ATOM      8  C   UNL     1       6.211   0.802  -0.937  1.00  0.00     0.004 A 
ATOM      9  C   UNL     1       6.110  -0.433   1.098  1.00  0.00     0.004 A 
ATOM     10  C   UNL     1       5.451   1.791  -0.309  1.00  0.00     0.000 A 
ATOM     11  C   UNL     1       5.359   0.546   1.719  1.00  0.00     0.000 A 
ATOM     12  C   UNL     1       5.032   1.670   0.992  1.00  0.00     0.000 A 
ENDBRANCH   6   7
ENDBRANCH   1   6
TORSDOF 4
ENDMDL
MODEL 4
REMARK VINA RESULT:      -6.8      3.374      5.084
REMARK SMILES O=C(O)CCc1ccccc1
REMARK SMILES IDX 4 1 2 2 1 3 3 4 5 6 6 7 7 8 11 9 8 10 10 11 9 12
REMARK H PARENT 3 5
REMARK Flexibility Score: inf
ROOT
ATOM      1  C   UNL     1       4.998   1.795   0.705  1.00  0.00     0.127 C 
ENDROOT
BRANCH   1   2
ATOM      2  C   UNL     1       4.483   1.115   1.917  1.00  0.00     0.303 C 
ATOM      3  O   UNL     1       5.142   0.209   2.485  1.00  0.00    -0.252 OA
BRANCH   2   4
ATOM      4  O   UNL     1       3.255   1.462   2.457  1.00  0.00    -0.481 OA
ATOM      5  H   UNL     1       2.443   1.551   1.840  1.00  0.00     0.296 HD
ENDBRANCH   2   4
ENDBRANCH   1   2
BRANCH   1   6
ATOM      6  C   UNL     1       6.495   1.774   0.755  1.00  0.00     0.047 C 
BRANCH   6   7
ATOM      7  C   UNL     1       7.115   1.021  -0.334  1.00  0.00    -0.047 A 
ATOM      8  C   UNL     1       6.383   0.123  -1.075  1.00  0.00     0.004 A 
ATOM      9  C   UNL     1       8.447   1.221  -0.616  1.00  0.00     0.004 A 
ATOM     10  C   UNL     1       7.040  -0.560  -2.101  1.00  0.00     0.000 A 
ATOM     11  C   UNL     1       9.095   0.544  -1.630  1.00  0.00     0.000 A 
ATOM     12  C   UNL     1       8.368  -0.357  -2.376  1.00  0.00     0.000 A 
ENDBRANCH   6   7
ENDBRANCH   1   6
TORSDOF 4
ENDMDL
MODEL 5
REMARK VINA RESULT:      -6.6      1.920      2.627
REMARK SMILES O=C(O)CCc1ccccc1
REMARK SMILES IDX 4 1 2 2 1 3 3 4 5 6 6 7 7 8 11 9 8 10 10 11 9 12
REMARK H PARENT 3 5
REMARK Flexibility Score: inf
ROOT
ATOM      1  C   UNL     1       8.175   0.252  -2.156  1.00  0.00     0.127 C 
ENDROOT
BRANCH   1   2
ATOM      2  C   UNL     1       9.339   0.372  -1.248  1.00  0.00     0.303 C 
ATOM      3  O   UNL     1       9.470  -0.385  -0.254  1.00  0.00    -0.252 OA
BRANCH   2   4
ATOM      4  O   UNL     1      10.318   1.327  -1.471  1.00  0.00    -0.481 OA
ATOM      5  H   UNL     1      10.058   2.317  -1.486  1.00  0.00     0.296 HD
ENDBRANCH   2   4
ENDBRANCH   1   2
BRANCH   1   6
ATOM      6  C   UNL     1       7.126  -0.570  -1.471  1.00  0.00     0.047 C 
BRANCH   6   7
ATOM      7  C   UNL     1       6.353   0.165  -0.472  1.00  0.00    -0.047 A 
ATOM      8  C   UNL     1       6.156  -0.354   0.787  1.00  0.00     0.004 A 
ATOM      9  C   UNL     1       5.822   1.391  -0.802  1.00  0.00     0.004 A 
ATOM     10  C   UNL     1       5.408   0.404   1.691  1.00  0.00     0.000 A 
ATOM     11  C   UNL     1       5.082   2.138   0.092  1.00  0.00     0.000 A 
ATOM     12  C   UNL     1       4.880   1.625   1.355  1.00  0.00     0.000 A 
ENDBRANCH   6   7
ENDBRANCH   1   6
TORSDOF 4
ENDMDL
