@<TRIPOS>MOLECULE
/home/cewinharhar/GITHUB/reincatalyze/data/processed/docking_pred/2023-Apr-26-1657_maxeplen10_maxtrainstep1000_exh32_gamma099_lrac9e-4_lrcr1e-3/0df60b8790b800bbceb9ee276e91b409308b6f54_ligand_2.pdbqt
 12 12 0 0 0
SMALL
GASTEIGER

@<TRIPOS>ATOM
      1  C          8.1750    0.2520   -2.1560 C.3     1  UNL1        0.1270
      2  C          9.3390    0.3720   -1.2480 C.2     1  UNL1        0.3030
      3  O          9.4700   -0.3850   -0.2540 O.2     1  UNL1       -0.2520
      4  O         10.3180    1.3270   -1.4710 O.3     1  UNL1       -0.4810
      5  H         10.0580    2.3170   -1.4860 H       1  UNL1        0.2960
      6  C          7.1260   -0.5700   -1.4710 C.3     1  UNL1        0.0470
      7  C          6.3530    0.1650   -0.4720 C.2     1  UNL1       -0.0470
      8  C          6.1560   -0.3540    0.7870 C.2     1  UNL1        0.0040
      9  C          5.8220    1.3910   -0.8020 C.2     1  UNL1        0.0040
     10  C          5.4080    0.4040    1.6910 C.2     1  UNL1        0.0000
     11  C          5.0820    2.1380    0.0920 C.2     1  UNL1        0.0000
     12  C          4.8800    1.6250    1.3550 C.2     1  UNL1        0.0000
@<TRIPOS>BOND
     1     1     6    1
     2     1     2    1
     3     5     4    1
     4     4     2    1
     5     6     7    1
     6     2     3    2
     7     9     7    2
     8     9    11    1
     9     7     8    1
    10    11    12    2
    11     8    10    2
    12    12    10    1
