@<TRIPOS>MOLECULE
/home/cewinharhar/GITHUB/reincatalyze/data/processed/docking_pred/2023-Apr-26-1657_maxeplen10_maxtrainstep1000_exh32_gamma099_lrac9e-4_lrcr1e-3/0df60b8790b800bbceb9ee276e91b409308b6f54_ligand_2.pdbqt
 12 12 0 0 0
SMALL
GASTEIGER

@<TRIPOS>ATOM
      1  C          8.4730   -0.6740   -2.0790 C.3     1  UNL1        0.1270
      2  C          8.4870   -1.9220   -2.8790 C.2     1  UNL1        0.3030
      3  O          9.5560   -2.5440   -3.0960 O.2     1  UNL1       -0.2520
      4  O          7.3160   -2.4370   -3.4110 O.3     1  UNL1       -0.4810
      5  H          6.4680   -1.8630   -3.4060 H       1  UNL1        0.2960
      6  C          7.0780   -0.1280   -2.0830 C.3     1  UNL1        0.0470
      7  C          6.5000    0.0370   -0.7510 C.2     1  UNL1       -0.0470
      8  C          6.6050   -0.9610    0.1900 C.2     1  UNL1        0.0040
      9  C          5.8460    1.2080   -0.4430 C.2     1  UNL1        0.0040
     10  C          6.0300   -0.7350    1.4420 C.2     1  UNL1        0.0000
     11  C          5.2780    1.4300    0.7960 C.2     1  UNL1        0.0000
     12  C          5.3790    0.4350    1.7440 C.2     1  UNL1        0.0000
@<TRIPOS>BOND
     1     4     5    1
     2     4     2    1
     3     3     2    2
     4     2     1    1
     5     6     1    1
     6     6     7    1
     7     7     9    2
     8     7     8    1
     9     9    11    1
    10     8    10    2
    11    11    12    2
    12    10    12    1
