@<TRIPOS>MOLECULE
/home/cewinharhar/GITHUB/reincatalyze/data/processed/docking_pred/2023-Apr-26-1657_maxeplen10_maxtrainstep1000_exh32_gamma099_lrac9e-4_lrcr1e-3/0df60b8790b800bbceb9ee276e91b409308b6f54_ligand_2.pdbqt
 12 12 0 0 0
SMALL
GASTEIGER

@<TRIPOS>ATOM
      1  C          4.9980    1.7950    0.7050 C.3     1  UNL1        0.1270
      2  C          4.4830    1.1150    1.9170 C.2     1  UNL1        0.3030
      3  O          5.1420    0.2090    2.4850 O.2     1  UNL1       -0.2520
      4  O          3.2550    1.4620    2.4570 O.3     1  UNL1       -0.4810
      5  H          2.4430    1.5510    1.8400 H       1  UNL1        0.2960
      6  C          6.4950    1.7740    0.7550 C.3     1  UNL1        0.0470
      7  C          7.1150    1.0210   -0.3340 C.2     1  UNL1       -0.0470
      8  C          6.3830    0.1230   -1.0750 C.2     1  UNL1        0.0040
      9  C          8.4470    1.2210   -0.6160 C.2     1  UNL1        0.0040
     10  C          7.0400   -0.5600   -2.1010 C.2     1  UNL1        0.0000
     11  C          9.0950    0.5440   -1.6300 C.2     1  UNL1        0.0000
     12  C          8.3680   -0.3570   -2.3760 C.2     1  UNL1        0.0000
@<TRIPOS>BOND
     1    12    10    2
     2    12    11    1
     3    10     8    1
     4    11     9    2
     5     8     7    2
     6     9     7    1
     7     7     6    1
     8     1     6    1
     9     1     2    1
    10     5     4    1
    11     2     4    1
    12     2     3    2
