@<TRIPOS>MOLECULE
/home/cewinharhar/GITHUB/reincatalyze/data/processed/docking_pred/2023-Apr-26-1657_maxeplen10_maxtrainstep1000_exh32_gamma099_lrac9e-4_lrcr1e-3/0df60b8790b800bbceb9ee276e91b409308b6f54_ligand_2.pdbqt
 12 12 0 0 0
SMALL
GASTEIGER

@<TRIPOS>ATOM
      1  C          8.4520   -0.6470   -2.0980 C.3     1  UNL1        0.1270
      2  C          8.4830   -1.8970   -2.8940 C.2     1  UNL1        0.3030
      3  O          9.5620   -2.5000   -3.1160 O.2     1  UNL1       -0.2520
      4  O          7.3190   -2.4350   -3.4170 O.3     1  UNL1       -0.4810
      5  H          6.4490   -1.8990   -3.3580 H       1  UNL1        0.2960
      6  C          7.0530   -0.1120   -2.1170 C.3     1  UNL1        0.0470
      7  C          6.4760    0.0920   -0.7890 C.2     1  UNL1       -0.0470
      8  C          5.8220    1.2620   -0.4780 C.2     1  UNL1        0.0040
      9  C          6.5930   -0.9030    0.1540 C.2     1  UNL1        0.0040
     10  C          5.2950    1.3880    0.8090 C.2     1  UNL1        0.0000
     11  C          6.0730   -0.7760    1.4270 C.2     1  UNL1        0.0000
     12  C          5.4160    0.3920    1.7460 C.2     1  UNL1        0.0000
@<TRIPOS>BOND
     1     4     5    1
     2     4     2    1
     3     3     2    2
     4     2     1    1
     5     6     1    1
     6     6     7    1
     7     7     8    2
     8     7     9    1
     9     8    10    1
    10     9    11    2
    11    10    12    2
    12    11    12    1
