@<TRIPOS>MOLECULE
/home/cewinharhar/GITHUB/reincatalyze/data/processed/docking_pred/2023-Apr-26-1657_maxeplen10_maxtrainstep1000_exh32_gamma099_lrac9e-4_lrcr1e-3/0df60b8790b800bbceb9ee276e91b409308b6f54_ligand_2.pdbqt
 12 12 0 0 0
SMALL
GASTEIGER

@<TRIPOS>ATOM
      1  C          8.2850   -0.9370   -1.8530 C.3     1  UNL1        0.1270
      2  C          8.4350   -2.0250   -2.8480 C.2     1  UNL1        0.3030
      3  O          9.5600   -2.5200   -3.1050 O.2     1  UNL1       -0.2520
      4  O          7.3340   -2.5250   -3.5240 O.3     1  UNL1       -0.4810
      5  H          6.9070   -3.4000   -3.2070 H       1  UNL1        0.2960
      6  C          7.3260   -1.3950   -0.7960 C.3     1  UNL1        0.0470
      7  C          6.5340   -0.3170   -0.2050 C.2     1  UNL1       -0.0470
      8  C          6.2110    0.8020   -0.9370 C.2     1  UNL1        0.0040
      9  C          6.1100   -0.4330    1.0980 C.2     1  UNL1        0.0040
     10  C          5.4510    1.7910   -0.3090 C.2     1  UNL1        0.0000
     11  C          5.3590    0.5460    1.7190 C.2     1  UNL1        0.0000
     12  C          5.0320    1.6700    0.9920 C.2     1  UNL1        0.0000
@<TRIPOS>BOND
     1     4     5    1
     2     4     2    1
     3     3     2    2
     4     2     1    1
     5     1     6    1
     6     8    10    1
     7     8     7    2
     8     6     7    1
     9    10    12    2
    10     7     9    1
    11    12    11    1
    12     9    11    2
