@<TRIPOS>MOLECULE
/home/cewinharhar/GITHUB/reincatalyze/data/processed/docking_pred/2023-Apr-26-1657_maxeplen10_maxtrainstep1000_exh32_gamma099_lrac9e-4_lrcr1e-3/104e94148118840ff9051874ebdd157f969f5898_ligand_2.pdbqt
 12 12 0 0 0
SMALL
GASTEIGER

@<TRIPOS>ATOM
      1  C          8.4490   -0.6000   -2.1790 C.3     1  UNL1        0.1270
      2  C          8.4880   -1.8850   -2.9150 C.2     1  UNL1        0.3030
      3  O          9.5690   -2.4990   -3.0970 O.2     1  UNL1       -0.2520
      4  O          7.3280   -2.4470   -3.4240 O.3     1  UNL1       -0.4810
      5  H          6.4310   -2.2320   -2.9810 H       1  UNL1        0.2960
      6  C          7.0300   -0.1210   -2.1420 C.3     1  UNL1        0.0470
      7  C          6.4910    0.0380   -0.7930 C.2     1  UNL1       -0.0470
      8  C          6.6160   -0.9670    0.1380 C.2     1  UNL1        0.0040
      9  C          5.8540    1.2110   -0.4580 C.2     1  UNL1        0.0040
     10  C          6.0790   -0.7450    1.4080 C.2     1  UNL1        0.0000
     11  C          5.3230    1.4280    0.7980 C.2     1  UNL1        0.0000
     12  C          5.4440    0.4260    1.7360 C.2     1  UNL1        0.0000
@<TRIPOS>BOND
     1     4     5    1
     2     4     2    1
     3     3     2    2
     4     2     1    1
     5     1     6    1
     6     6     7    1
     7     7     9    2
     8     7     8    1
     9     9    11    1
    10     8    10    2
    11    11    12    2
    12    10    12    1
