@<TRIPOS>MOLECULE
/home/cewinharhar/GITHUB/reincatalyze/data/processed/docking_pred/2023-Apr-26-1657_maxeplen10_maxtrainstep1000_exh32_gamma099_lrac9e-4_lrcr1e-3/104e94148118840ff9051874ebdd157f969f5898_ligand_2.pdbqt
 12 12 0 0 0
SMALL
GASTEIGER

@<TRIPOS>ATOM
      1  C          8.2320   -0.8950   -1.9090 C.3     1  UNL1        0.1270
      2  C          8.3910   -2.0130   -2.8690 C.2     1  UNL1        0.3030
      3  O          9.5200   -2.5050   -3.1130 O.2     1  UNL1       -0.2520
      4  O          7.2930   -2.5480   -3.5240 O.3     1  UNL1       -0.4810
      5  H          7.2680   -3.5520   -3.7220 H       1  UNL1        0.2960
      6  C          7.3450   -1.3550   -0.7930 C.3     1  UNL1        0.0470
      7  C          6.5360   -0.2920   -0.2000 C.2     1  UNL1       -0.0470
      8  C          6.1990    0.8260   -0.9280 C.2     1  UNL1        0.0040
      9  C          6.1080   -0.4200    1.1020 C.2     1  UNL1        0.0040
     10  C          5.4230    1.8010   -0.2980 C.2     1  UNL1        0.0000
     11  C          5.3410    0.5450    1.7230 C.2     1  UNL1        0.0000
     12  C          5.0000    1.6680    1.0010 C.2     1  UNL1        0.0000
@<TRIPOS>BOND
     1     5     4    1
     2     4     2    1
     3     3     2    2
     4     2     1    1
     5     1     6    1
     6     8    10    1
     7     8     7    2
     8     6     7    1
     9    10    12    2
    10     7     9    1
    11    12    11    1
    12     9    11    2
