@<TRIPOS>MOLECULE
/home/cewinharhar/GITHUB/reincatalyze/data/processed/docking_pred/2023-Apr-26-1657_maxeplen10_maxtrainstep1000_exh32_gamma099_lrac9e-4_lrcr1e-3/104e94148118840ff9051874ebdd157f969f5898_ligand_2.pdbqt
 12 12 0 0 0
SMALL
GASTEIGER

@<TRIPOS>ATOM
      1  C          8.1710   -0.8600   -1.9100 C.3     1  UNL1        0.1270
      2  C          8.2840   -1.9630   -2.8930 C.2     1  UNL1        0.3030
      3  O          7.2630   -2.4780   -3.4130 O.2     1  UNL1       -0.2520
      4  O          9.5230   -2.4590   -3.2650 O.3     1  UNL1       -0.4810
      5  H         10.0170   -2.0330   -4.0540 H       1  UNL1        0.2960
      6  C          7.3420   -1.3380   -0.7580 C.3     1  UNL1        0.0470
      7  C          6.5330   -0.2930   -0.1340 C.2     1  UNL1       -0.0470
      8  C          6.1110   -0.4150    1.1700 C.2     1  UNL1        0.0040
      9  C          6.1950    0.8220   -0.8660 C.2     1  UNL1        0.0040
     10  C          5.3410    0.6220    1.7020 C.2     1  UNL1        0.0000
     11  C          5.4340    1.8460   -0.3390 C.2     1  UNL1        0.0000
     12  C          5.0070    1.7320    0.9660 C.2     1  UNL1        0.0000
@<TRIPOS>BOND
     1     5     4    1
     2     3     2    2
     3     4     2    1
     4     2     1    1
     5     1     6    1
     6     9    11    1
     7     9     7    2
     8     6     7    1
     9    11    12    2
    10     7     8    1
    11    12    10    1
    12     8    10    2
