MODEL 1
REMARK VINA RESULT:      -7.3      0.000      0.000
REMARK SMILES O=C(O)CCc1ccccc1
REMARK SMILES IDX 4 1 2 2 1 3 3 4 5 6 6 7 7 8 11 9 8 10 10 11 9 12
REMARK H PARENT 3 5
REMARK Flexibility Score: inf
ROOT
ATOM      1  C   UNL     1       8.449  -0.600  -2.179  1.00  0.00     0.127 C 
ENDROOT
BRANCH   1   2
ATOM      2  C   UNL     1       8.488  -1.885  -2.915  1.00  0.00     0.303 C 
ATOM      3  O   UNL     1       9.569  -2.499  -3.097  1.00  0.00    -0.252 OA
BRANCH   2   4
ATOM      4  O   UNL     1       7.328  -2.447  -3.424  1.00  0.00    -0.481 OA
ATOM      5  H   UNL     1       6.431  -2.232  -2.981  1.00  0.00     0.296 HD
ENDBRANCH   2   4
ENDBRANCH   1   2
BRANCH   1   6
ATOM      6  C   UNL     1       7.030  -0.121  -2.142  1.00  0.00     0.047 C 
BRANCH   6   7
ATOM      7  C   UNL     1       6.491   0.038  -0.793  1.00  0.00    -0.047 A 
ATOM      8  C   UNL     1       6.616  -0.967   0.138  1.00  0.00     0.004 A 
ATOM      9  C   UNL     1       5.854   1.211  -0.458  1.00  0.00     0.004 A 
ATOM     10  C   UNL     1       6.079  -0.745   1.408  1.00  0.00     0.000 A 
ATOM     11  C   UNL     1       5.323   1.428   0.798  1.00  0.00     0.000 A 
ATOM     12  C   UNL     1       5.444   0.426   1.736  1.00  0.00     0.000 A 
ENDBRANCH   6   7
ENDBRANCH   1   6
TORSDOF 4
ENDMDL
MODEL 2
REMARK VINA RESULT:      -7.2      0.126      1.732
REMARK SMILES O=C(O)CCc1ccccc1
REMARK SMILES IDX 4 1 2 2 1 3 3 4 5 6 6 7 7 8 11 9 8 10 10 11 9 12
REMARK H PARENT 3 5
REMARK Flexibility Score: inf
ROOT
ATOM      1  C   UNL     1       8.409  -0.616  -2.127  1.00  0.00     0.127 C 
ENDROOT
BRANCH   1   2
ATOM      2  C   UNL     1       8.378  -1.882  -2.895  1.00  0.00     0.303 C 
ATOM      3  O   UNL     1       7.291  -2.412  -3.234  1.00  0.00    -0.252 OA
BRANCH   2   4
ATOM      4  O   UNL     1       9.553  -2.519  -3.262  1.00  0.00    -0.481 OA
ATOM      5  H   UNL     1       9.689  -2.796  -4.238  1.00  0.00     0.296 HD
ENDBRANCH   2   4
ENDBRANCH   1   2
BRANCH   1   6
ATOM      6  C   UNL     1       7.022  -0.050  -2.096  1.00  0.00     0.047 C 
BRANCH   6   7
ATOM      7  C   UNL     1       6.470   0.097  -0.751  1.00  0.00    -0.047 A 
ATOM      8  C   UNL     1       5.817   1.250  -0.380  1.00  0.00     0.004 A 
ATOM      9  C   UNL     1       6.607  -0.936   0.148  1.00  0.00     0.004 A 
ATOM     10  C   UNL     1       5.314   1.321   0.921  1.00  0.00     0.000 A 
ATOM     11  C   UNL     1       6.109  -0.864   1.434  1.00  0.00     0.000 A 
ATOM     12  C   UNL     1       5.454   0.288   1.813  1.00  0.00     0.000 A 
ENDBRANCH   6   7
ENDBRANCH   1   6
TORSDOF 4
ENDMDL
MODEL 3
REMARK VINA RESULT:      -7.2      0.626      1.584
REMARK SMILES O=C(O)CCc1ccccc1
REMARK SMILES IDX 4 1 2 2 1 3 3 4 5 6 6 7 7 8 11 9 8 10 10 11 9 12
REMARK H PARENT 3 5
REMARK Flexibility Score: inf
ROOT
ATOM      1  C   UNL     1       8.232  -0.895  -1.909  1.00  0.00     0.127 C 
ENDROOT
BRANCH   1   2
ATOM      2  C   UNL     1       8.391  -2.013  -2.869  1.00  0.00     0.303 C 
ATOM      3  O   UNL     1       9.520  -2.505  -3.113  1.00  0.00    -0.252 OA
BRANCH   2   4
ATOM      4  O   UNL     1       7.293  -2.548  -3.524  1.00  0.00    -0.481 OA
ATOM      5  H   UNL     1       7.268  -3.552  -3.722  1.00  0.00     0.296 HD
ENDBRANCH   2   4
ENDBRANCH   1   2
BRANCH   1   6
ATOM      6  C   UNL     1       7.345  -1.355  -0.793  1.00  0.00     0.047 C 
BRANCH   6   7
ATOM      7  C   UNL     1       6.536  -0.292  -0.200  1.00  0.00    -0.047 A 
ATOM      8  C   UNL     1       6.199   0.826  -0.928  1.00  0.00     0.004 A 
ATOM      9  C   UNL     1       6.108  -0.420   1.102  1.00  0.00     0.004 A 
ATOM     10  C   UNL     1       5.423   1.801  -0.298  1.00  0.00     0.000 A 
ATOM     11  C   UNL     1       5.341   0.545   1.723  1.00  0.00     0.000 A 
ATOM     12  C   UNL     1       5.000   1.668   1.001  1.00  0.00     0.000 A 
ENDBRANCH   6   7
ENDBRANCH   1   6
TORSDOF 4
ENDMDL
MODEL 4
REMARK VINA RESULT:      -7.1      0.615      1.449
REMARK SMILES O=C(O)CCc1ccccc1
REMARK SMILES IDX 4 1 2 2 1 3 3 4 5 6 6 7 7 8 11 9 8 10 10 11 9 12
REMARK H PARENT 3 5
REMARK Flexibility Score: inf
ROOT
ATOM      1  C   UNL     1       8.171  -0.860  -1.910  1.00  0.00     0.127 C 
ENDROOT
BRANCH   1   2
ATOM      2  C   UNL     1       8.284  -1.963  -2.893  1.00  0.00     0.303 C 
ATOM      3  O   UNL     1       7.263  -2.478  -3.413  1.00  0.00    -0.252 OA
BRANCH   2   4
ATOM      4  O   UNL     1       9.523  -2.459  -3.265  1.00  0.00    -0.481 OA
ATOM      5  H   UNL     1      10.017  -2.033  -4.054  1.00  0.00     0.296 HD
ENDBRANCH   2   4
ENDBRANCH   1   2
BRANCH   1   6
ATOM      6  C   UNL     1       7.342  -1.338  -0.758  1.00  0.00     0.047 C 
BRANCH   6   7
ATOM      7  C   UNL     1       6.533  -0.293  -0.134  1.00  0.00    -0.047 A 
ATOM      8  C   UNL     1       6.111  -0.415   1.170  1.00  0.00     0.004 A 
ATOM      9  C   UNL     1       6.195   0.822  -0.866  1.00  0.00     0.004 A 
ATOM     10  C   UNL     1       5.341   0.622   1.702  1.00  0.00     0.000 A 
ATOM     11  C   UNL     1       5.434   1.846  -0.339  1.00  0.00     0.000 A 
ATOM     12  C   UNL     1       5.007   1.732   0.966  1.00  0.00     0.000 A 
ENDBRANCH   6   7
ENDBRANCH   1   6
TORSDOF 4
ENDMDL
MODEL 5
REMARK VINA RESULT:      -6.8      3.379      5.066
REMARK SMILES O=C(O)CCc1ccccc1
REMARK SMILES IDX 4 1 2 2 1 3 3 4 5 6 6 7 7 8 11 9 8 10 10 11 9 12
REMARK H PARENT 3 5
REMARK Flexibility Score: inf
ROOT
ATOM      1  C   UNL     1       5.020   1.814   0.735  1.00  0.00     0.127 C 
ENDROOT
BRANCH   1   2
ATOM      2  C   UNL     1       4.487   1.112   1.926  1.00  0.00     0.303 C 
ATOM      3  O   UNL     1       5.134   0.190   2.483  1.00  0.00    -0.252 OA
BRANCH   2   4
ATOM      4  O   UNL     1       3.254   1.454   2.460  1.00  0.00    -0.481 OA
ATOM      5  H   UNL     1       2.404   1.250   1.927  1.00  0.00     0.296 HD
ENDBRANCH   2   4
ENDBRANCH   1   2
BRANCH   1   6
ATOM      6  C   UNL     1       6.517   1.756   0.786  1.00  0.00     0.047 C 
BRANCH   6   7
ATOM      7  C   UNL     1       7.121   1.014  -0.320  1.00  0.00    -0.047 A 
ATOM      8  C   UNL     1       6.385   0.103  -1.041  1.00  0.00     0.004 A 
ATOM      9  C   UNL     1       8.441   1.239  -0.636  1.00  0.00     0.004 A 
ATOM     10  C   UNL     1       7.026  -0.568  -2.084  1.00  0.00     0.000 A 
ATOM     11  C   UNL     1       9.074   0.574  -1.668  1.00  0.00     0.000 A 
ATOM     12  C   UNL     1       8.343  -0.341  -2.395  1.00  0.00     0.000 A 
ENDBRANCH   6   7
ENDBRANCH   1   6
TORSDOF 4
ENDMDL
