@<TRIPOS>MOLECULE
/home/cewinharhar/GITHUB/reincatalyze/data/processed/docking_pred/2023-Apr-26-1657_maxeplen10_maxtrainstep1000_exh32_gamma099_lrac9e-4_lrcr1e-3/104e94148118840ff9051874ebdd157f969f5898_ligand_2.pdbqt
 12 12 0 0 0
SMALL
GASTEIGER

@<TRIPOS>ATOM
      1  C          8.4090   -0.6160   -2.1270 C.3     1  UNL1        0.1270
      2  C          8.3780   -1.8820   -2.8950 C.2     1  UNL1        0.3030
      3  O          7.2910   -2.4120   -3.2340 O.2     1  UNL1       -0.2520
      4  O          9.5530   -2.5190   -3.2620 O.3     1  UNL1       -0.4810
      5  H          9.6890   -2.7960   -4.2380 H       1  UNL1        0.2960
      6  C          7.0220   -0.0500   -2.0960 C.3     1  UNL1        0.0470
      7  C          6.4700    0.0970   -0.7510 C.2     1  UNL1       -0.0470
      8  C          5.8170    1.2500   -0.3800 C.2     1  UNL1        0.0040
      9  C          6.6070   -0.9360    0.1480 C.2     1  UNL1        0.0040
     10  C          5.3140    1.3210    0.9210 C.2     1  UNL1        0.0000
     11  C          6.1090   -0.8640    1.4340 C.2     1  UNL1        0.0000
     12  C          5.4540    0.2880    1.8130 C.2     1  UNL1        0.0000
@<TRIPOS>BOND
     1     5     4    1
     2     4     2    1
     3     3     2    2
     4     2     1    1
     5     1     6    1
     6     6     7    1
     7     7     8    2
     8     7     9    1
     9     8    10    1
    10     9    11    2
    11    10    12    2
    12    11    12    1
