@<TRIPOS>MOLECULE
/home/cewinharhar/GITHUB/reincatalyze/data/processed/docking_pred/2023-Apr-26-1657_maxeplen10_maxtrainstep1000_exh32_gamma099_lrac9e-4_lrcr1e-3/10ef791c1764d6d7d99274693c0e95c254b80295_ligand_2.pdbqt
 12 12 0 0 0
SMALL
GASTEIGER

@<TRIPOS>ATOM
      1  C          5.0410    1.7510    0.6510 C.3     1  UNL1        0.1270
      2  C          4.6090    1.0770    1.8990 C.2     1  UNL1        0.3030
      3  O          5.3490    0.2460    2.4790 O.2     1  UNL1       -0.2520
      4  O          3.3710    1.3480    2.4590 O.3     1  UNL1       -0.4810
      5  H          2.9040    0.6260    3.0150 H       1  UNL1        0.2960
      6  C          6.5370    1.8360    0.6560 C.3     1  UNL1        0.0470
      7  C          7.1800    1.0500   -0.3960 C.2     1  UNL1       -0.0470
      8  C          8.5190    1.2050   -0.6690 C.2     1  UNL1        0.0040
      9  C          6.4310    0.1470   -1.1130 C.2     1  UNL1        0.0040
     10  C          9.0680    0.4210   -1.6870 C.2     1  UNL1        0.0000
     11  C          6.9740   -0.6270   -2.1180 C.2     1  UNL1        0.0000
     12  C          8.3150   -0.4780   -2.3990 C.2     1  UNL1        0.0000
@<TRIPOS>BOND
     1    12    11    2
     2    12    10    1
     3    11     9    1
     4    10     8    2
     5     9     7    2
     6     8     7    1
     7     7     6    1
     8     1     6    1
     9     1     2    1
    10     2     4    1
    11     2     3    2
    12     4     5    1
