@<TRIPOS>MOLECULE
/home/cewinharhar/GITHUB/reincatalyze/data/processed/docking_pred/2023-Apr-26-1657_maxeplen10_maxtrainstep1000_exh32_gamma099_lrac9e-4_lrcr1e-3/10ef791c1764d6d7d99274693c0e95c254b80295_ligand_2.pdbqt
 12 12 0 0 0
SMALL
GASTEIGER

@<TRIPOS>ATOM
      1  C          5.5810    2.9170   -0.0320 C.3     1  UNL1        0.1270
      2  C          6.3040    3.8490    0.8640 C.2     1  UNL1        0.3030
      3  O          6.1250    3.8270    2.1070 O.2     1  UNL1       -0.2520
      4  O          7.2010    4.7740    0.3530 O.3     1  UNL1       -0.4810
      5  H          7.3410    4.8280   -0.6590 H       1  UNL1        0.2960
      6  C          4.9620    1.8410    0.8070 C.3     1  UNL1        0.0470
      7  C          5.7340    0.6010    0.8470 C.2     1  UNL1       -0.0470
      8  C          6.3750    0.1340   -0.2780 C.2     1  UNL1        0.0040
      9  C          5.8180   -0.1010    2.0270 C.2     1  UNL1        0.0040
     10  C          7.0950   -1.0570   -0.1670 C.2     1  UNL1        0.0000
     11  C          6.5300   -1.2790    2.1350 C.2     1  UNL1        0.0000
     12  C          7.1740   -1.7530    1.0130 C.2     1  UNL1        0.0000
@<TRIPOS>BOND
     1     5     4    1
     2     8    10    1
     3     8     7    2
     4    10    12    2
     5     1     6    1
     6     1     2    1
     7     4     2    1
     8     6     7    1
     9     7     9    1
    10     2     3    2
    11    12    11    1
    12     9    11    2
