@<TRIPOS>MOLECULE
/home/cewinharhar/GITHUB/reincatalyze/data/processed/docking_pred/2023-Apr-26-1657_maxeplen10_maxtrainstep1000_exh32_gamma099_lrac9e-4_lrcr1e-3/10ef791c1764d6d7d99274693c0e95c254b80295_ligand_2.pdbqt
 12 12 0 0 0
SMALL
GASTEIGER

@<TRIPOS>ATOM
      1  C          8.4130   -0.5960   -2.1710 C.3     1  UNL1        0.1270
      2  C          8.3920   -1.8820   -2.9070 C.2     1  UNL1        0.3030
      3  O          7.3090   -2.4290   -3.2330 O.2     1  UNL1       -0.2520
      4  O          9.5720   -2.5190   -3.2570 O.3     1  UNL1       -0.4810
      5  H         10.1810   -2.0940   -3.9620 H       1  UNL1        0.2960
      6  C          7.0160   -0.0560   -2.1290 C.3     1  UNL1        0.0470
      7  C          6.4740    0.0850   -0.7780 C.2     1  UNL1       -0.0470
      8  C          6.6010   -0.9310    0.1400 C.2     1  UNL1        0.0040
      9  C          5.8330    1.2520   -0.4310 C.2     1  UNL1        0.0040
     10  C          6.0600   -0.7270    1.4120 C.2     1  UNL1        0.0000
     11  C          5.2980    1.4520    0.8270 C.2     1  UNL1        0.0000
     12  C          5.4210    0.4390    1.7530 C.2     1  UNL1        0.0000
@<TRIPOS>BOND
     1     5     4    1
     2     4     2    1
     3     3     2    2
     4     2     1    1
     5     1     6    1
     6     6     7    1
     7     7     9    2
     8     7     8    1
     9     9    11    1
    10     8    10    2
    11    11    12    2
    12    10    12    1
