@<TRIPOS>MOLECULE
/home/cewinharhar/GITHUB/reincatalyze/data/processed/docking_pred/2023-Apr-26-1657_maxeplen10_maxtrainstep1000_exh32_gamma099_lrac9e-4_lrcr1e-3/10ef791c1764d6d7d99274693c0e95c254b80295_ligand_2.pdbqt
 12 12 0 0 0
SMALL
GASTEIGER

@<TRIPOS>ATOM
      1  C          8.2280    0.2100   -2.2110 C.3     1  UNL1        0.1270
      2  C          9.3560    0.3570   -1.2610 C.2     1  UNL1        0.3030
      3  O          9.4640   -0.3900   -0.2580 O.2     1  UNL1       -0.2520
      4  O         10.3250    1.3290   -1.4550 O.3     1  UNL1       -0.4810
      5  H         10.9290    1.5970   -0.6740 H       1  UNL1        0.2960
      6  C          7.1340   -0.5520   -1.5280 C.3     1  UNL1        0.0470
      7  C          6.3510    0.2470   -0.5860 C.2     1  UNL1       -0.0470
      8  C          6.1340   -0.1920    0.6990 C.2     1  UNL1        0.0040
      9  C          5.8320    1.4530   -0.9990 C.2     1  UNL1        0.0040
     10  C          5.3780    0.6230    1.5440 C.2     1  UNL1        0.0000
     11  C          5.0850    2.2580   -0.1620 C.2     1  UNL1        0.0000
     12  C          4.8620    1.8240    1.1270 C.2     1  UNL1        0.0000
@<TRIPOS>BOND
     1     1     6    1
     2     1     2    1
     3     6     7    1
     4     4     2    1
     5     4     5    1
     6     2     3    2
     7     9     7    2
     8     9    11    1
     9     7     8    1
    10    11    12    2
    11     8    10    2
    12    12    10    1
