MODEL 1
REMARK VINA RESULT:      -7.3      0.000      0.000
REMARK SMILES O=C(O)CCc1ccccc1
REMARK SMILES IDX 4 1 2 2 1 3 3 4 5 6 6 7 7 8 11 9 8 10 10 11 9 12
REMARK H PARENT 3 5
REMARK Flexibility Score: inf
ROOT
ATOM      1  C   UNL     1       8.437  -0.648  -2.124  1.00  0.00     0.127 C 
ENDROOT
BRANCH   1   2
ATOM      2  C   UNL     1       8.474  -1.906  -2.907  1.00  0.00     0.303 C 
ATOM      3  O   UNL     1       9.551  -2.525  -3.094  1.00  0.00    -0.252 OA
BRANCH   2   4
ATOM      4  O   UNL     1       7.316  -2.435  -3.454  1.00  0.00    -0.481 OA
ATOM      5  H   UNL     1       7.297  -2.673  -4.450  1.00  0.00     0.296 HD
ENDBRANCH   2   4
ENDBRANCH   1   2
BRANCH   1   6
ATOM      6  C   UNL     1       7.028  -0.139  -2.117  1.00  0.00     0.047 C 
BRANCH   6   7
ATOM      7  C   UNL     1       6.473   0.055  -0.778  1.00  0.00    -0.047 A 
ATOM      8  C   UNL     1       5.833   1.226  -0.445  1.00  0.00     0.004 A 
ATOM      9  C   UNL     1       6.596  -0.951   0.152  1.00  0.00     0.004 A 
ATOM     10  C   UNL     1       5.326   1.342   0.851  1.00  0.00     0.000 A 
ATOM     11  C   UNL     1       6.096  -0.834   1.434  1.00  0.00     0.000 A 
ATOM     12  C   UNL     1       5.453   0.336   1.775  1.00  0.00     0.000 A 
ENDBRANCH   6   7
ENDBRANCH   1   6
TORSDOF 4
ENDMDL
MODEL 2
REMARK VINA RESULT:      -7.3      0.112      1.731
REMARK SMILES O=C(O)CCc1ccccc1
REMARK SMILES IDX 4 1 2 2 1 3 3 4 5 6 6 7 7 8 11 9 8 10 10 11 9 12
REMARK H PARENT 3 5
REMARK Flexibility Score: inf
ROOT
ATOM      1  C   UNL     1       8.413  -0.596  -2.171  1.00  0.00     0.127 C 
ENDROOT
BRANCH   1   2
ATOM      2  C   UNL     1       8.392  -1.882  -2.907  1.00  0.00     0.303 C 
ATOM      3  O   UNL     1       7.309  -2.429  -3.233  1.00  0.00    -0.252 OA
BRANCH   2   4
ATOM      4  O   UNL     1       9.572  -2.519  -3.257  1.00  0.00    -0.481 OA
ATOM      5  H   UNL     1      10.181  -2.094  -3.962  1.00  0.00     0.296 HD
ENDBRANCH   2   4
ENDBRANCH   1   2
BRANCH   1   6
ATOM      6  C   UNL     1       7.016  -0.056  -2.129  1.00  0.00     0.047 C 
BRANCH   6   7
ATOM      7  C   UNL     1       6.474   0.085  -0.778  1.00  0.00    -0.047 A 
ATOM      8  C   UNL     1       6.601  -0.931   0.140  1.00  0.00     0.004 A 
ATOM      9  C   UNL     1       5.833   1.252  -0.431  1.00  0.00     0.004 A 
ATOM     10  C   UNL     1       6.060  -0.727   1.412  1.00  0.00     0.000 A 
ATOM     11  C   UNL     1       5.298   1.452   0.827  1.00  0.00     0.000 A 
ATOM     12  C   UNL     1       5.421   0.439   1.753  1.00  0.00     0.000 A 
ENDBRANCH   6   7
ENDBRANCH   1   6
TORSDOF 4
ENDMDL
MODEL 3
REMARK VINA RESULT:      -6.7      3.355      5.025
REMARK SMILES O=C(O)CCc1ccccc1
REMARK SMILES IDX 4 1 2 2 1 3 3 4 5 6 6 7 7 8 11 9 8 10 10 11 9 12
REMARK H PARENT 3 5
REMARK Flexibility Score: inf
ROOT
ATOM      1  C   UNL     1       5.041   1.751   0.651  1.00  0.00     0.127 C 
ENDROOT
BRANCH   1   2
ATOM      2  C   UNL     1       4.609   1.077   1.899  1.00  0.00     0.303 C 
ATOM      3  O   UNL     1       5.349   0.246   2.479  1.00  0.00    -0.252 OA
BRANCH   2   4
ATOM      4  O   UNL     1       3.371   1.348   2.459  1.00  0.00    -0.481 OA
ATOM      5  H   UNL     1       2.904   0.626   3.015  1.00  0.00     0.296 HD
ENDBRANCH   2   4
ENDBRANCH   1   2
BRANCH   1   6
ATOM      6  C   UNL     1       6.537   1.836   0.656  1.00  0.00     0.047 C 
BRANCH   6   7
ATOM      7  C   UNL     1       7.180   1.050  -0.396  1.00  0.00    -0.047 A 
ATOM      8  C   UNL     1       8.519   1.205  -0.669  1.00  0.00     0.004 A 
ATOM      9  C   UNL     1       6.431   0.147  -1.113  1.00  0.00     0.004 A 
ATOM     10  C   UNL     1       9.068   0.421  -1.687  1.00  0.00     0.000 A 
ATOM     11  C   UNL     1       6.974  -0.627  -2.118  1.00  0.00     0.000 A 
ATOM     12  C   UNL     1       8.315  -0.478  -2.399  1.00  0.00     0.000 A 
ENDBRANCH   6   7
ENDBRANCH   1   6
TORSDOF 4
ENDMDL
MODEL 4
REMARK VINA RESULT:      -6.7      1.933      2.664
REMARK SMILES O=C(O)CCc1ccccc1
REMARK SMILES IDX 4 1 2 2 1 3 3 4 5 6 6 7 7 8 11 9 8 10 10 11 9 12
REMARK H PARENT 3 5
REMARK Flexibility Score: inf
ROOT
ATOM      1  C   UNL     1       8.228   0.210  -2.211  1.00  0.00     0.127 C 
ENDROOT
BRANCH   1   2
ATOM      2  C   UNL     1       9.356   0.357  -1.261  1.00  0.00     0.303 C 
ATOM      3  O   UNL     1       9.464  -0.390  -0.258  1.00  0.00    -0.252 OA
BRANCH   2   4
ATOM      4  O   UNL     1      10.325   1.329  -1.455  1.00  0.00    -0.481 OA
ATOM      5  H   UNL     1      10.929   1.597  -0.674  1.00  0.00     0.296 HD
ENDBRANCH   2   4
ENDBRANCH   1   2
BRANCH   1   6
ATOM      6  C   UNL     1       7.134  -0.552  -1.528  1.00  0.00     0.047 C 
BRANCH   6   7
ATOM      7  C   UNL     1       6.351   0.247  -0.586  1.00  0.00    -0.047 A 
ATOM      8  C   UNL     1       6.134  -0.192   0.699  1.00  0.00     0.004 A 
ATOM      9  C   UNL     1       5.832   1.453  -0.999  1.00  0.00     0.004 A 
ATOM     10  C   UNL     1       5.378   0.623   1.544  1.00  0.00     0.000 A 
ATOM     11  C   UNL     1       5.085   2.258  -0.162  1.00  0.00     0.000 A 
ATOM     12  C   UNL     1       4.862   1.824   1.127  1.00  0.00     0.000 A 
ENDBRANCH   6   7
ENDBRANCH   1   6
TORSDOF 4
ENDMDL
MODEL 5
REMARK VINA RESULT:      -6.6      3.823      4.938
REMARK SMILES O=C(O)CCc1ccccc1
REMARK SMILES IDX 4 1 2 2 1 3 3 4 5 6 6 7 7 8 11 9 8 10 10 11 9 12
REMARK H PARENT 3 5
REMARK Flexibility Score: inf
ROOT
ATOM      1  C   UNL     1       5.581   2.917  -0.032  1.00  0.00     0.127 C 
ENDROOT
BRANCH   1   2
ATOM      2  C   UNL     1       6.304   3.849   0.864  1.00  0.00     0.303 C 
ATOM      3  O   UNL     1       6.125   3.827   2.107  1.00  0.00    -0.252 OA
BRANCH   2   4
ATOM      4  O   UNL     1       7.201   4.774   0.353  1.00  0.00    -0.481 OA
ATOM      5  H   UNL     1       7.341   4.828  -0.659  1.00  0.00     0.296 HD
ENDBRANCH   2   4
ENDBRANCH   1   2
BRANCH   1   6
ATOM      6  C   UNL     1       4.962   1.841   0.807  1.00  0.00     0.047 C 
BRANCH   6   7
ATOM      7  C   UNL     1       5.734   0.601   0.847  1.00  0.00    -0.047 A 
ATOM      8  C   UNL     1       6.375   0.134  -0.278  1.00  0.00     0.004 A 
ATOM      9  C   UNL     1       5.818  -0.101   2.027  1.00  0.00     0.004 A 
ATOM     10  C   UNL     1       7.095  -1.057  -0.167  1.00  0.00     0.000 A 
ATOM     11  C   UNL     1       6.530  -1.279   2.135  1.00  0.00     0.000 A 
ATOM     12  C   UNL     1       7.174  -1.753   1.013  1.00  0.00     0.000 A 
ENDBRANCH   6   7
ENDBRANCH   1   6
TORSDOF 4
ENDMDL
