@<TRIPOS>MOLECULE
/home/cewinharhar/GITHUB/reincatalyze/data/processed/docking_pred/2023-Apr-26-1657_maxeplen10_maxtrainstep1000_exh32_gamma099_lrac9e-4_lrcr1e-3/10ef791c1764d6d7d99274693c0e95c254b80295_ligand_2.pdbqt
 12 12 0 0 0
SMALL
GASTEIGER

@<TRIPOS>ATOM
      1  C          8.4370   -0.6480   -2.1240 C.3     1  UNL1        0.1270
      2  C          8.4740   -1.9060   -2.9070 C.2     1  UNL1        0.3030
      3  O          9.5510   -2.5250   -3.0940 O.2     1  UNL1       -0.2520
      4  O          7.3160   -2.4350   -3.4540 O.3     1  UNL1       -0.4810
      5  H          7.2970   -2.6730   -4.4500 H       1  UNL1        0.2960
      6  C          7.0280   -0.1390   -2.1170 C.3     1  UNL1        0.0470
      7  C          6.4730    0.0550   -0.7780 C.2     1  UNL1       -0.0470
      8  C          5.8330    1.2260   -0.4450 C.2     1  UNL1        0.0040
      9  C          6.5960   -0.9510    0.1520 C.2     1  UNL1        0.0040
     10  C          5.3260    1.3420    0.8510 C.2     1  UNL1        0.0000
     11  C          6.0960   -0.8340    1.4340 C.2     1  UNL1        0.0000
     12  C          5.4530    0.3360    1.7750 C.2     1  UNL1        0.0000
@<TRIPOS>BOND
     1     5     4    1
     2     4     2    1
     3     3     2    2
     4     2     1    1
     5     1     6    1
     6     6     7    1
     7     7     8    2
     8     7     9    1
     9     8    10    1
    10     9    11    2
    11    10    12    2
    12    11    12    1
