@<TRIPOS>MOLECULE
/home/cewinharhar/GITHUB/reincatalyze/data/processed/docking_pred/2023-Apr-26-1657_maxeplen10_maxtrainstep1000_exh32_gamma099_lrac9e-4_lrcr1e-3/12e5788d749ca0b681d4f032b25b6d257325d045_ligand_2.pdbqt
 12 12 0 0 0
SMALL
GASTEIGER

@<TRIPOS>ATOM
      1  C          5.0550    1.7440    0.6690 C.3     1  UNL1        0.1270
      2  C          4.6040    1.0580    1.9020 C.2     1  UNL1        0.3030
      3  O          5.3260    0.2040    2.4730 O.2     1  UNL1       -0.2520
      4  O          3.3680    1.3420    2.4610 O.3     1  UNL1       -0.4810
      5  H          3.2280    1.2020    3.4660 H       1  UNL1        0.2960
      6  C          6.5520    1.8020    0.6830 C.3     1  UNL1        0.0470
      7  C          7.1880    1.0290   -0.3820 C.2     1  UNL1       -0.0470
      8  C          8.5210    1.1980   -0.6750 C.2     1  UNL1        0.0040
      9  C          6.4360    0.1220   -1.0940 C.2     1  UNL1        0.0040
     10  C          9.0620    0.4250   -1.7050 C.2     1  UNL1        0.0000
     11  C          6.9720   -0.6410   -2.1120 C.2     1  UNL1        0.0000
     12  C          8.3070   -0.4770   -2.4120 C.2     1  UNL1        0.0000
@<TRIPOS>BOND
     1    12    11    2
     2    12    10    1
     3    11     9    1
     4    10     8    2
     5     9     7    2
     6     8     7    1
     7     7     6    1
     8     1     6    1
     9     1     2    1
    10     2     4    1
    11     2     3    2
    12     4     5    1
