@<TRIPOS>MOLECULE
/home/cewinharhar/GITHUB/reincatalyze/data/processed/docking_pred/2023-Apr-26-1657_maxeplen10_maxtrainstep1000_exh32_gamma099_lrac9e-4_lrcr1e-3/12e5788d749ca0b681d4f032b25b6d257325d045_ligand_2.pdbqt
 12 12 0 0 0
SMALL
GASTEIGER

@<TRIPOS>ATOM
      1  C          8.4200   -0.5420   -2.2450 C.3     1  UNL1        0.1270
      2  C          8.4700   -1.8590   -2.9230 C.2     1  UNL1        0.3030
      3  O          9.5550   -2.4740   -3.0730 O.2     1  UNL1       -0.2520
      4  O          7.3150   -2.4500   -3.4110 O.3     1  UNL1       -0.4810
      5  H          6.6800   -1.9000   -3.9950 H       1  UNL1        0.2960
      6  C          6.9910   -0.0950   -2.1890 C.3     1  UNL1        0.0470
      7  C          6.4710    0.0630   -0.8320 C.2     1  UNL1       -0.0470
      8  C          6.5910   -0.9500    0.0910 C.2     1  UNL1        0.0040
      9  C          5.8590    1.2440   -0.4810 C.2     1  UNL1        0.0040
     10  C          6.0730   -0.7290    1.3680 C.2     1  UNL1        0.0000
     11  C          5.3460    1.4610    0.7820 C.2     1  UNL1        0.0000
     12  C          5.4610    0.4500    1.7120 C.2     1  UNL1        0.0000
@<TRIPOS>BOND
     1     5     4    1
     2     4     2    1
     3     3     2    2
     4     2     1    1
     5     1     6    1
     6     6     7    1
     7     7     9    2
     8     7     8    1
     9     9    11    1
    10     8    10    2
    11    11    12    2
    12    10    12    1
