@<TRIPOS>MOLECULE
/home/cewinharhar/GITHUB/reincatalyze/data/processed/docking_pred/2023-Apr-26-1657_maxeplen10_maxtrainstep1000_exh32_gamma099_lrac9e-4_lrcr1e-3/12e5788d749ca0b681d4f032b25b6d257325d045_ligand_2.pdbqt
 12 12 0 0 0
SMALL
GASTEIGER

@<TRIPOS>ATOM
      1  C          8.2720   -1.6180    1.0810 C.3     1  UNL1        0.1270
      2  C          8.5530   -2.8600    0.3230 C.2     1  UNL1        0.3030
      3  O          9.1950   -3.8070    0.8410 O.2     1  UNL1       -0.2520
      4  O          8.1150   -3.0090   -0.9830 O.3     1  UNL1       -0.4810
      5  H          8.5850   -2.4940   -1.7320 H       1  UNL1        0.2960
      6  C          6.7890   -1.5070    1.2700 C.3     1  UNL1        0.0470
      7  C          6.2210   -0.2500    0.7870 C.2     1  UNL1       -0.0470
      8  C          5.4530    0.5380    1.6130 C.2     1  UNL1        0.0040
      9  C          6.4620    0.1420   -0.5090 C.2     1  UNL1        0.0040
     10  C          4.9430    1.7260    1.0850 C.2     1  UNL1        0.0000
     11  C          5.9570    1.3160   -1.0300 C.2     1  UNL1        0.0000
     12  C          5.1870    2.1120   -0.2090 C.2     1  UNL1        0.0000
@<TRIPOS>BOND
     1     5     4    1
     2    11     9    1
     3    11    12    2
     4     4     2    1
     5     9     7    2
     6    12    10    1
     7     2     3    2
     8     2     1    1
     9     7     6    1
    10     7     8    1
    11     1     6    1
    12    10     8    2
