@<TRIPOS>MOLECULE
/home/cewinharhar/GITHUB/reincatalyze/data/processed/docking_pred/2023-Apr-26-1657_maxeplen10_maxtrainstep1000_exh32_gamma099_lrac9e-4_lrcr1e-3/12e5788d749ca0b681d4f032b25b6d257325d045_ligand_2.pdbqt
 12 12 0 0 0
SMALL
GASTEIGER

@<TRIPOS>ATOM
      1  C          5.7110    2.9970   -0.1230 C.3     1  UNL1        0.1270
      2  C          6.4050    3.9430    0.7820 C.2     1  UNL1        0.3030
      3  O          7.2370    4.7750    0.3400 O.2     1  UNL1       -0.2520
      4  O          6.1550    3.9360    2.1450 O.3     1  UNL1       -0.4810
      5  H          6.9420    3.9000    2.7980 H       1  UNL1        0.2960
      6  C          5.0100    1.9720    0.7160 C.3     1  UNL1        0.0470
      7  C          5.7350    0.7080    0.8390 C.2     1  UNL1       -0.0470
      8  C          5.7710    0.0320    2.0360 C.2     1  UNL1        0.0040
      9  C          6.3840    0.1960   -0.2610 C.2     1  UNL1        0.0040
     10  C          6.4820   -1.1700    2.0810 C.2     1  UNL1        0.0000
     11  C          7.0860   -0.9920   -0.2150 C.2     1  UNL1        0.0000
     12  C          7.1270   -1.6750    0.9810 C.2     1  UNL1        0.0000
@<TRIPOS>BOND
     1     9    11    1
     2     9     7    2
     3    11    12    2
     4     1     6    1
     5     1     2    1
     6     3     2    2
     7     6     7    1
     8     2     4    1
     9     7     8    1
    10    12    10    1
    11     8    10    2
    12     4     5    1
