MODEL 1
REMARK VINA RESULT:      -7.3      0.000      0.000
REMARK SMILES O=C(O)CCc1ccccc1
REMARK SMILES IDX 4 1 2 2 1 3 3 4 5 6 6 7 7 8 11 9 8 10 10 11 9 12
REMARK H PARENT 3 5
REMARK Flexibility Score: inf
ROOT
ATOM      1  C   UNL     1       8.435  -0.596  -2.158  1.00  0.00     0.127 C 
ENDROOT
BRANCH   1   2
ATOM      2  C   UNL     1       8.490  -1.878  -2.900  1.00  0.00     0.303 C 
ATOM      3  O   UNL     1       9.579  -2.476  -3.085  1.00  0.00    -0.252 OA
BRANCH   2   4
ATOM      4  O   UNL     1       7.338  -2.452  -3.412  1.00  0.00    -0.481 OA
ATOM      5  H   UNL     1       6.690  -2.927  -2.776  1.00  0.00     0.296 HD
ENDBRANCH   2   4
ENDBRANCH   1   2
BRANCH   1   6
ATOM      6  C   UNL     1       7.012  -0.126  -2.136  1.00  0.00     0.047 C 
BRANCH   6   7
ATOM      7  C   UNL     1       6.470   0.066  -0.792  1.00  0.00    -0.047 A 
ATOM      8  C   UNL     1       5.839   1.239  -0.449  1.00  0.00     0.004 A 
ATOM      9  C   UNL     1       6.596  -0.944   0.133  1.00  0.00     0.004 A 
ATOM     10  C   UNL     1       5.344   1.353   0.852  1.00  0.00     0.000 A 
ATOM     11  C   UNL     1       6.106  -0.830   1.419  1.00  0.00     0.000 A 
ATOM     12  C   UNL     1       5.473   0.342   1.771  1.00  0.00     0.000 A 
ENDBRANCH   6   7
ENDBRANCH   1   6
TORSDOF 4
ENDMDL
MODEL 2
REMARK VINA RESULT:      -7.3      0.079      1.438
REMARK SMILES O=C(O)CCc1ccccc1
REMARK SMILES IDX 4 1 2 2 1 3 3 4 5 6 6 7 7 8 11 9 8 10 10 11 9 12
REMARK H PARENT 3 5
REMARK Flexibility Score: inf
ROOT
ATOM      1  C   UNL     1       8.420  -0.542  -2.245  1.00  0.00     0.127 C 
ENDROOT
BRANCH   1   2
ATOM      2  C   UNL     1       8.470  -1.859  -2.923  1.00  0.00     0.303 C 
ATOM      3  O   UNL     1       9.555  -2.474  -3.073  1.00  0.00    -0.252 OA
BRANCH   2   4
ATOM      4  O   UNL     1       7.315  -2.450  -3.411  1.00  0.00    -0.481 OA
ATOM      5  H   UNL     1       6.680  -1.900  -3.995  1.00  0.00     0.296 HD
ENDBRANCH   2   4
ENDBRANCH   1   2
BRANCH   1   6
ATOM      6  C   UNL     1       6.991  -0.095  -2.189  1.00  0.00     0.047 C 
BRANCH   6   7
ATOM      7  C   UNL     1       6.471   0.063  -0.832  1.00  0.00    -0.047 A 
ATOM      8  C   UNL     1       6.591  -0.950   0.091  1.00  0.00     0.004 A 
ATOM      9  C   UNL     1       5.859   1.244  -0.481  1.00  0.00     0.004 A 
ATOM     10  C   UNL     1       6.073  -0.729   1.368  1.00  0.00     0.000 A 
ATOM     11  C   UNL     1       5.346   1.461   0.782  1.00  0.00     0.000 A 
ATOM     12  C   UNL     1       5.461   0.450   1.712  1.00  0.00     0.000 A 
ENDBRANCH   6   7
ENDBRANCH   1   6
TORSDOF 4
ENDMDL
MODEL 3
REMARK VINA RESULT:      -6.7      3.340      5.014
REMARK SMILES O=C(O)CCc1ccccc1
REMARK SMILES IDX 4 1 2 2 1 3 3 4 5 6 6 7 7 8 11 9 8 10 10 11 9 12
REMARK H PARENT 3 5
REMARK Flexibility Score: inf
ROOT
ATOM      1  C   UNL     1       5.055   1.744   0.669  1.00  0.00     0.127 C 
ENDROOT
BRANCH   1   2
ATOM      2  C   UNL     1       4.604   1.058   1.902  1.00  0.00     0.303 C 
ATOM      3  O   UNL     1       5.326   0.204   2.473  1.00  0.00    -0.252 OA
BRANCH   2   4
ATOM      4  O   UNL     1       3.368   1.342   2.461  1.00  0.00    -0.481 OA
ATOM      5  H   UNL     1       3.228   1.202   3.466  1.00  0.00     0.296 HD
ENDBRANCH   2   4
ENDBRANCH   1   2
BRANCH   1   6
ATOM      6  C   UNL     1       6.552   1.802   0.683  1.00  0.00     0.047 C 
BRANCH   6   7
ATOM      7  C   UNL     1       7.188   1.029  -0.382  1.00  0.00    -0.047 A 
ATOM      8  C   UNL     1       8.521   1.198  -0.675  1.00  0.00     0.004 A 
ATOM      9  C   UNL     1       6.436   0.122  -1.094  1.00  0.00     0.004 A 
ATOM     10  C   UNL     1       9.062   0.425  -1.705  1.00  0.00     0.000 A 
ATOM     11  C   UNL     1       6.972  -0.641  -2.112  1.00  0.00     0.000 A 
ATOM     12  C   UNL     1       8.307  -0.477  -2.412  1.00  0.00     0.000 A 
ENDBRANCH   6   7
ENDBRANCH   1   6
TORSDOF 4
ENDMDL
MODEL 4
REMARK VINA RESULT:      -6.5      3.806      4.942
REMARK SMILES O=C(O)CCc1ccccc1
REMARK SMILES IDX 4 1 2 2 1 3 3 4 5 6 6 7 7 8 11 9 8 10 10 11 9 12
REMARK H PARENT 3 5
REMARK Flexibility Score: inf
ROOT
ATOM      1  C   UNL     1       5.711   2.997  -0.123  1.00  0.00     0.127 C 
ENDROOT
BRANCH   1   2
ATOM      2  C   UNL     1       6.405   3.943   0.782  1.00  0.00     0.303 C 
ATOM      3  O   UNL     1       7.237   4.775   0.340  1.00  0.00    -0.252 OA
BRANCH   2   4
ATOM      4  O   UNL     1       6.155   3.936   2.145  1.00  0.00    -0.481 OA
ATOM      5  H   UNL     1       6.942   3.900   2.798  1.00  0.00     0.296 HD
ENDBRANCH   2   4
ENDBRANCH   1   2
BRANCH   1   6
ATOM      6  C   UNL     1       5.010   1.972   0.716  1.00  0.00     0.047 C 
BRANCH   6   7
ATOM      7  C   UNL     1       5.735   0.708   0.839  1.00  0.00    -0.047 A 
ATOM      8  C   UNL     1       5.771   0.032   2.036  1.00  0.00     0.004 A 
ATOM      9  C   UNL     1       6.384   0.196  -0.261  1.00  0.00     0.004 A 
ATOM     10  C   UNL     1       6.482  -1.170   2.081  1.00  0.00     0.000 A 
ATOM     11  C   UNL     1       7.086  -0.992  -0.215  1.00  0.00     0.000 A 
ATOM     12  C   UNL     1       7.127  -1.675   0.981  1.00  0.00     0.000 A 
ENDBRANCH   6   7
ENDBRANCH   1   6
TORSDOF 4
ENDMDL
MODEL 5
REMARK VINA RESULT:      -6.5      1.898      2.827
REMARK SMILES O=C(O)CCc1ccccc1
REMARK SMILES IDX 4 1 2 2 1 3 3 4 5 6 6 7 7 8 11 9 8 10 10 11 9 12
REMARK H PARENT 3 5
REMARK Flexibility Score: inf
ROOT
ATOM      1  C   UNL     1       8.272  -1.618   1.081  1.00  0.00     0.127 C 
ENDROOT
BRANCH   1   2
ATOM      2  C   UNL     1       8.553  -2.860   0.323  1.00  0.00     0.303 C 
ATOM      3  O   UNL     1       9.195  -3.807   0.841  1.00  0.00    -0.252 OA
BRANCH   2   4
ATOM      4  O   UNL     1       8.115  -3.009  -0.983  1.00  0.00    -0.481 OA
ATOM      5  H   UNL     1       8.585  -2.494  -1.732  1.00  0.00     0.296 HD
ENDBRANCH   2   4
ENDBRANCH   1   2
BRANCH   1   6
ATOM      6  C   UNL     1       6.789  -1.507   1.270  1.00  0.00     0.047 C 
BRANCH   6   7
ATOM      7  C   UNL     1       6.221  -0.250   0.787  1.00  0.00    -0.047 A 
ATOM      8  C   UNL     1       5.453   0.538   1.613  1.00  0.00     0.004 A 
ATOM      9  C   UNL     1       6.462   0.142  -0.509  1.00  0.00     0.004 A 
ATOM     10  C   UNL     1       4.943   1.726   1.085  1.00  0.00     0.000 A 
ATOM     11  C   UNL     1       5.957   1.316  -1.030  1.00  0.00     0.000 A 
ATOM     12  C   UNL     1       5.187   2.112  -0.209  1.00  0.00     0.000 A 
ENDBRANCH   6   7
ENDBRANCH   1   6
TORSDOF 4
ENDMDL
