@<TRIPOS>MOLECULE
/home/cewinharhar/GITHUB/reincatalyze/data/processed/docking_pred/2023-Apr-26-1657_maxeplen10_maxtrainstep1000_exh32_gamma099_lrac9e-4_lrcr1e-3/12e5788d749ca0b681d4f032b25b6d257325d045_ligand_2.pdbqt
 12 12 0 0 0
SMALL
GASTEIGER

@<TRIPOS>ATOM
      1  C          8.4350   -0.5960   -2.1580 C.3     1  UNL1        0.1270
      2  C          8.4900   -1.8780   -2.9000 C.2     1  UNL1        0.3030
      3  O          9.5790   -2.4760   -3.0850 O.2     1  UNL1       -0.2520
      4  O          7.3380   -2.4520   -3.4120 O.3     1  UNL1       -0.4810
      5  H          6.6900   -2.9270   -2.7760 H       1  UNL1        0.2960
      6  C          7.0120   -0.1260   -2.1360 C.3     1  UNL1        0.0470
      7  C          6.4700    0.0660   -0.7920 C.2     1  UNL1       -0.0470
      8  C          5.8390    1.2390   -0.4490 C.2     1  UNL1        0.0040
      9  C          6.5960   -0.9440    0.1330 C.2     1  UNL1        0.0040
     10  C          5.3440    1.3530    0.8520 C.2     1  UNL1        0.0000
     11  C          6.1060   -0.8300    1.4190 C.2     1  UNL1        0.0000
     12  C          5.4730    0.3420    1.7710 C.2     1  UNL1        0.0000
@<TRIPOS>BOND
     1     4     2    1
     2     4     5    1
     3     3     2    2
     4     2     1    1
     5     1     6    1
     6     6     7    1
     7     7     8    2
     8     7     9    1
     9     8    10    1
    10     9    11    2
    11    10    12    2
    12    11    12    1
