MODEL 1
REMARK VINA RESULT:      -7.3      0.000      0.000
REMARK SMILES O=C(O)CCc1ccccc1
REMARK SMILES IDX 4 1 2 2 1 3 3 4 5 6 6 7 7 8 11 9 8 10 10 11 9 12
REMARK H PARENT 3 5
REMARK Flexibility Score: inf
ROOT
ATOM      1  C   UNL     1       8.436  -0.611  -2.157  1.00  0.00     0.127 C 
ENDROOT
BRANCH   1   2
ATOM      2  C   UNL     1       8.475  -1.892  -2.902  1.00  0.00     0.303 C 
ATOM      3  O   UNL     1       9.557  -2.500  -3.093  1.00  0.00    -0.252 OA
BRANCH   2   4
ATOM      4  O   UNL     1       7.315  -2.454  -3.410  1.00  0.00    -0.481 OA
ATOM      5  H   UNL     1       7.307  -3.447  -3.657  1.00  0.00     0.296 HD
ENDBRANCH   2   4
ENDBRANCH   1   2
BRANCH   1   6
ATOM      6  C   UNL     1       7.018  -0.125  -2.132  1.00  0.00     0.047 C 
BRANCH   6   7
ATOM      7  C   UNL     1       6.476   0.054  -0.786  1.00  0.00    -0.047 A 
ATOM      8  C   UNL     1       5.836   1.221  -0.436  1.00  0.00     0.004 A 
ATOM      9  C   UNL     1       6.609  -0.961   0.132  1.00  0.00     0.004 A 
ATOM     10  C   UNL     1       5.341   1.323   0.866  1.00  0.00     0.000 A 
ATOM     11  C   UNL     1       6.120  -0.858   1.420  1.00  0.00     0.000 A 
ATOM     12  C   UNL     1       5.478   0.307   1.779  1.00  0.00     0.000 A 
ENDBRANCH   6   7
ENDBRANCH   1   6
TORSDOF 4
ENDMDL
MODEL 2
REMARK VINA RESULT:      -7.3      0.076      1.438
REMARK SMILES O=C(O)CCc1ccccc1
REMARK SMILES IDX 4 1 2 2 1 3 3 4 5 6 6 7 7 8 11 9 8 10 10 11 9 12
REMARK H PARENT 3 5
REMARK Flexibility Score: inf
ROOT
ATOM      1  C   UNL     1       8.428  -0.576  -2.225  1.00  0.00     0.127 C 
ENDROOT
BRANCH   1   2
ATOM      2  C   UNL     1       8.475  -1.876  -2.935  1.00  0.00     0.303 C 
ATOM      3  O   UNL     1       9.558  -2.493  -3.090  1.00  0.00    -0.252 OA
BRANCH   2   4
ATOM      4  O   UNL     1       7.322  -2.446  -3.448  1.00  0.00    -0.481 OA
ATOM      5  H   UNL     1       7.245  -2.599  -4.458  1.00  0.00     0.296 HD
ENDBRANCH   2   4
ENDBRANCH   1   2
BRANCH   1   6
ATOM      6  C   UNL     1       7.001  -0.122  -2.168  1.00  0.00     0.047 C 
BRANCH   6   7
ATOM      7  C   UNL     1       6.482   0.040  -0.811  1.00  0.00    -0.047 A 
ATOM      8  C   UNL     1       6.632  -0.959   0.123  1.00  0.00     0.004 A 
ATOM      9  C   UNL     1       5.839   1.208  -0.473  1.00  0.00     0.004 A 
ATOM     10  C   UNL     1       6.112  -0.736   1.400  1.00  0.00     0.000 A 
ATOM     11  C   UNL     1       5.325   1.427   0.790  1.00  0.00     0.000 A 
ATOM     12  C   UNL     1       5.471   0.431   1.731  1.00  0.00     0.000 A 
ENDBRANCH   6   7
ENDBRANCH   1   6
TORSDOF 4
ENDMDL
MODEL 3
REMARK VINA RESULT:      -6.8      3.377      5.081
REMARK SMILES O=C(O)CCc1ccccc1
REMARK SMILES IDX 4 1 2 2 1 3 3 4 5 6 6 7 7 8 11 9 8 10 10 11 9 12
REMARK H PARENT 3 5
REMARK Flexibility Score: inf
ROOT
ATOM      1  C   UNL     1       5.001   1.761   0.701  1.00  0.00     0.127 C 
ENDROOT
BRANCH   1   2
ATOM      2  C   UNL     1       4.485   1.096   1.921  1.00  0.00     0.303 C 
ATOM      3  O   UNL     1       5.143   0.197   2.500  1.00  0.00    -0.252 OA
BRANCH   2   4
ATOM      4  O   UNL     1       3.258   1.451   2.458  1.00  0.00    -0.481 OA
ATOM      5  H   UNL     1       3.209   1.768   3.430  1.00  0.00     0.296 HD
ENDBRANCH   2   4
ENDBRANCH   1   2
BRANCH   1   6
ATOM      6  C   UNL     1       6.498   1.740   0.751  1.00  0.00     0.047 C 
BRANCH   6   7
ATOM      7  C   UNL     1       7.119   0.990  -0.340  1.00  0.00    -0.047 A 
ATOM      8  C   UNL     1       6.394   0.076  -1.067  1.00  0.00     0.004 A 
ATOM      9  C   UNL     1       8.445   1.211  -0.636  1.00  0.00     0.004 A 
ATOM     10  C   UNL     1       7.051  -0.603  -2.095  1.00  0.00     0.000 A 
ATOM     11  C   UNL     1       9.093   0.538  -1.653  1.00  0.00     0.000 A 
ATOM     12  C   UNL     1       8.374  -0.380  -2.386  1.00  0.00     0.000 A 
ENDBRANCH   6   7
ENDBRANCH   1   6
TORSDOF 4
ENDMDL
MODEL 4
REMARK VINA RESULT:      -6.6      1.946      2.245
REMARK SMILES O=C(O)CCc1ccccc1
REMARK SMILES IDX 4 1 2 2 1 3 3 4 5 6 6 7 7 8 11 9 8 10 10 11 9 12
REMARK H PARENT 3 5
REMARK Flexibility Score: inf
ROOT
ATOM      1  C   UNL     1       8.161   0.263  -2.075  1.00  0.00     0.127 C 
ENDROOT
BRANCH   1   2
ATOM      2  C   UNL     1       9.348   0.365  -1.193  1.00  0.00     0.303 C 
ATOM      3  O   UNL     1       9.484  -0.386  -0.195  1.00  0.00    -0.252 OA
BRANCH   2   4
ATOM      4  O   UNL     1      10.342   1.297  -1.445  1.00  0.00    -0.481 OA
ATOM      5  H   UNL     1      10.101   2.169  -1.924  1.00  0.00     0.296 HD
ENDBRANCH   2   4
ENDBRANCH   1   2
BRANCH   1   6
ATOM      6  C   UNL     1       7.140  -0.596  -1.393  1.00  0.00     0.047 C 
BRANCH   6   7
ATOM      7  C   UNL     1       6.353   0.107  -0.381  1.00  0.00    -0.047 A 
ATOM      8  C   UNL     1       5.806   1.341  -0.647  1.00  0.00     0.004 A 
ATOM      9  C   UNL     1       6.159  -0.482   0.847  1.00  0.00     0.004 A 
ATOM     10  C   UNL     1       5.065   1.954   0.366  1.00  0.00     0.000 A 
ATOM     11  C   UNL     1       5.426   0.126   1.847  1.00  0.00     0.000 A 
ATOM     12  C   UNL     1       4.876   1.362   1.589  1.00  0.00     0.000 A 
ENDBRANCH   6   7
ENDBRANCH   1   6
TORSDOF 4
ENDMDL
MODEL 5
REMARK VINA RESULT:      -6.6      3.820      4.950
REMARK SMILES O=C(O)CCc1ccccc1
REMARK SMILES IDX 4 1 2 2 1 3 3 4 5 6 6 7 7 8 11 9 8 10 10 11 9 12
REMARK H PARENT 3 5
REMARK Flexibility Score: inf
ROOT
ATOM      1  C   UNL     1       5.407   2.821   0.061  1.00  0.00     0.127 C 
ENDROOT
BRANCH   1   2
ATOM      2  C   UNL     1       6.159   3.827   0.847  1.00  0.00     0.303 C 
ATOM      3  O   UNL     1       6.101   3.849   2.101  1.00  0.00    -0.252 OA
BRANCH   2   4
ATOM      4  O   UNL     1       6.949   4.775   0.216  1.00  0.00    -0.481 OA
ATOM      5  H   UNL     1       7.005   5.720   0.606  1.00  0.00     0.296 HD
ENDBRANCH   2   4
ENDBRANCH   1   2
BRANCH   1   6
ATOM      6  C   UNL     1       4.967   1.731   0.990  1.00  0.00     0.047 C 
BRANCH   6   7
ATOM      7  C   UNL     1       5.818   0.542   0.957  1.00  0.00    -0.047 A 
ATOM      8  C   UNL     1       6.631   0.289  -0.124  1.00  0.00     0.004 A 
ATOM      9  C   UNL     1       5.799  -0.326   2.023  1.00  0.00     0.004 A 
ATOM     10  C   UNL     1       7.417  -0.864  -0.087  1.00  0.00     0.000 A 
ATOM     11  C   UNL     1       6.577  -1.467   2.058  1.00  0.00     0.000 A 
ATOM     12  C   UNL     1       7.394  -1.728   0.980  1.00  0.00     0.000 A 
ENDBRANCH   6   7
ENDBRANCH   1   6
TORSDOF 4
ENDMDL
