@<TRIPOS>MOLECULE
/home/cewinharhar/GITHUB/reincatalyze/data/processed/docking_pred/2023-Apr-26-1657_maxeplen10_maxtrainstep1000_exh32_gamma099_lrac9e-4_lrcr1e-3/13c3a96d7f073914410e4f6d6c0e2190084e407e_ligand_2.pdbqt
 12 12 0 0 0
SMALL
GASTEIGER

@<TRIPOS>ATOM
      1  C          8.1610    0.2630   -2.0750 C.3     1  UNL1        0.1270
      2  C          9.3480    0.3650   -1.1930 C.2     1  UNL1        0.3030
      3  O          9.4840   -0.3860   -0.1950 O.2     1  UNL1       -0.2520
      4  O         10.3420    1.2970   -1.4450 O.3     1  UNL1       -0.4810
      5  H         10.1010    2.1690   -1.9240 H       1  UNL1        0.2960
      6  C          7.1400   -0.5960   -1.3930 C.3     1  UNL1        0.0470
      7  C          6.3530    0.1070   -0.3810 C.2     1  UNL1       -0.0470
      8  C          5.8060    1.3410   -0.6470 C.2     1  UNL1        0.0040
      9  C          6.1590   -0.4820    0.8470 C.2     1  UNL1        0.0040
     10  C          5.0650    1.9540    0.3660 C.2     1  UNL1        0.0000
     11  C          5.4260    0.1260    1.8470 C.2     1  UNL1        0.0000
     12  C          4.8760    1.3620    1.5890 C.2     1  UNL1        0.0000
@<TRIPOS>BOND
     1     1     6    1
     2     1     2    1
     3     5     4    1
     4     4     2    1
     5     6     7    1
     6     2     3    2
     7     8     7    2
     8     8    10    1
     9     7     9    1
    10    10    12    2
    11     9    11    2
    12    12    11    1
