@<TRIPOS>MOLECULE
/home/cewinharhar/GITHUB/reincatalyze/data/processed/docking_pred/2023-Apr-26-1657_maxeplen10_maxtrainstep1000_exh32_gamma099_lrac9e-4_lrcr1e-3/13c3a96d7f073914410e4f6d6c0e2190084e407e_ligand_2.pdbqt
 12 12 0 0 0
SMALL
GASTEIGER

@<TRIPOS>ATOM
      1  C          5.4070    2.8210    0.0610 C.3     1  UNL1        0.1270
      2  C          6.1590    3.8270    0.8470 C.2     1  UNL1        0.3030
      3  O          6.1010    3.8490    2.1010 O.2     1  UNL1       -0.2520
      4  O          6.9490    4.7750    0.2160 O.3     1  UNL1       -0.4810
      5  H          7.0050    5.7200    0.6060 H       1  UNL1        0.2960
      6  C          4.9670    1.7310    0.9900 C.3     1  UNL1        0.0470
      7  C          5.8180    0.5420    0.9570 C.2     1  UNL1       -0.0470
      8  C          6.6310    0.2890   -0.1240 C.2     1  UNL1        0.0040
      9  C          5.7990   -0.3260    2.0230 C.2     1  UNL1        0.0040
     10  C          7.4170   -0.8640   -0.0870 C.2     1  UNL1        0.0000
     11  C          6.5770   -1.4670    2.0580 C.2     1  UNL1        0.0000
     12  C          7.3940   -1.7280    0.9800 C.2     1  UNL1        0.0000
@<TRIPOS>BOND
     1     8    10    1
     2     8     7    2
     3    10    12    2
     4     1     2    1
     5     1     6    1
     6     4     5    1
     7     4     2    1
     8     2     3    2
     9     7     6    1
    10     7     9    1
    11    12    11    1
    12     9    11    2
