@<TRIPOS>MOLECULE
/home/cewinharhar/GITHUB/reincatalyze/data/processed/docking_pred/2023-Apr-26-1657_maxeplen10_maxtrainstep1000_exh32_gamma099_lrac9e-4_lrcr1e-3/13c3a96d7f073914410e4f6d6c0e2190084e407e_ligand_2.pdbqt
 12 12 0 0 0
SMALL
GASTEIGER

@<TRIPOS>ATOM
      1  C          8.4280   -0.5760   -2.2250 C.3     1  UNL1        0.1270
      2  C          8.4750   -1.8760   -2.9350 C.2     1  UNL1        0.3030
      3  O          9.5580   -2.4930   -3.0900 O.2     1  UNL1       -0.2520
      4  O          7.3220   -2.4460   -3.4480 O.3     1  UNL1       -0.4810
      5  H          7.2450   -2.5990   -4.4580 H       1  UNL1        0.2960
      6  C          7.0010   -0.1220   -2.1680 C.3     1  UNL1        0.0470
      7  C          6.4820    0.0400   -0.8110 C.2     1  UNL1       -0.0470
      8  C          6.6320   -0.9590    0.1230 C.2     1  UNL1        0.0040
      9  C          5.8390    1.2080   -0.4730 C.2     1  UNL1        0.0040
     10  C          6.1120   -0.7360    1.4000 C.2     1  UNL1        0.0000
     11  C          5.3250    1.4270    0.7900 C.2     1  UNL1        0.0000
     12  C          5.4710    0.4310    1.7310 C.2     1  UNL1        0.0000
@<TRIPOS>BOND
     1     5     4    1
     2     4     2    1
     3     3     2    2
     4     2     1    1
     5     1     6    1
     6     6     7    1
     7     7     9    2
     8     7     8    1
     9     9    11    1
    10     8    10    2
    11    11    12    2
    12    10    12    1
