@<TRIPOS>MOLECULE
/home/cewinharhar/GITHUB/reincatalyze/data/processed/docking_pred/2023-Apr-26-1657_maxeplen10_maxtrainstep1000_exh32_gamma099_lrac9e-4_lrcr1e-3/13c3a96d7f073914410e4f6d6c0e2190084e407e_ligand_2.pdbqt
 12 12 0 0 0
SMALL
GASTEIGER

@<TRIPOS>ATOM
      1  C          5.0010    1.7610    0.7010 C.3     1  UNL1        0.1270
      2  C          4.4850    1.0960    1.9210 C.2     1  UNL1        0.3030
      3  O          5.1430    0.1970    2.5000 O.2     1  UNL1       -0.2520
      4  O          3.2580    1.4510    2.4580 O.3     1  UNL1       -0.4810
      5  H          3.2090    1.7680    3.4300 H       1  UNL1        0.2960
      6  C          6.4980    1.7400    0.7510 C.3     1  UNL1        0.0470
      7  C          7.1190    0.9900   -0.3400 C.2     1  UNL1       -0.0470
      8  C          6.3940    0.0760   -1.0670 C.2     1  UNL1        0.0040
      9  C          8.4450    1.2110   -0.6360 C.2     1  UNL1        0.0040
     10  C          7.0510   -0.6030   -2.0950 C.2     1  UNL1        0.0000
     11  C          9.0930    0.5380   -1.6530 C.2     1  UNL1        0.0000
     12  C          8.3740   -0.3800   -2.3860 C.2     1  UNL1        0.0000
@<TRIPOS>BOND
     1    12    10    2
     2    12    11    1
     3    10     8    1
     4    11     9    2
     5     8     7    2
     6     9     7    1
     7     7     6    1
     8     1     6    1
     9     1     2    1
    10     2     4    1
    11     2     3    2
    12     4     5    1
