@<TRIPOS>MOLECULE
/home/cewinharhar/GITHUB/reincatalyze/data/processed/docking_pred/2023-Apr-26-1657_maxeplen10_maxtrainstep1000_exh32_gamma099_lrac9e-4_lrcr1e-3/13c3a96d7f073914410e4f6d6c0e2190084e407e_ligand_2.pdbqt
 12 12 0 0 0
SMALL
GASTEIGER

@<TRIPOS>ATOM
      1  C          8.4360   -0.6110   -2.1570 C.3     1  UNL1        0.1270
      2  C          8.4750   -1.8920   -2.9020 C.2     1  UNL1        0.3030
      3  O          9.5570   -2.5000   -3.0930 O.2     1  UNL1       -0.2520
      4  O          7.3150   -2.4540   -3.4100 O.3     1  UNL1       -0.4810
      5  H          7.3070   -3.4470   -3.6570 H       1  UNL1        0.2960
      6  C          7.0180   -0.1250   -2.1320 C.3     1  UNL1        0.0470
      7  C          6.4760    0.0540   -0.7860 C.2     1  UNL1       -0.0470
      8  C          5.8360    1.2210   -0.4360 C.2     1  UNL1        0.0040
      9  C          6.6090   -0.9610    0.1320 C.2     1  UNL1        0.0040
     10  C          5.3410    1.3230    0.8660 C.2     1  UNL1        0.0000
     11  C          6.1200   -0.8580    1.4200 C.2     1  UNL1        0.0000
     12  C          5.4780    0.3070    1.7790 C.2     1  UNL1        0.0000
@<TRIPOS>BOND
     1     5     4    1
     2     4     2    1
     3     3     2    2
     4     2     1    1
     5     1     6    1
     6     6     7    1
     7     7     8    2
     8     7     9    1
     9     8    10    1
    10     9    11    2
    11    10    12    2
    12    11    12    1
