@<TRIPOS>MOLECULE
/home/cewinharhar/GITHUB/reincatalyze/data/processed/docking_pred/2023-Apr-26-1657_maxeplen10_maxtrainstep1000_exh32_gamma099_lrac9e-4_lrcr1e-3/13e8c6f9c16a4fbf8ad14846e02839591438c51f_ligand_2.pdbqt
 12 12 0 0 0
SMALL
GASTEIGER

@<TRIPOS>ATOM
      1  C          8.2490    0.1770   -2.1810 C.3     1  UNL1        0.1270
      2  C          9.3800    0.3340   -1.2360 C.2     1  UNL1        0.3030
      3  O          9.4770   -0.3860   -0.2120 O.2     1  UNL1       -0.2520
      4  O         10.3640    1.2830   -1.4590 O.3     1  UNL1       -0.4810
      5  H         10.4320    2.0910   -0.8340 H       1  UNL1        0.2960
      6  C          7.1600   -0.5850   -1.4880 C.3     1  UNL1        0.0470
      7  C          6.3730    0.2190   -0.5550 C.2     1  UNL1       -0.0470
      8  C          6.1500   -0.2140    0.7320 C.2     1  UNL1        0.0040
      9  C          5.8560    1.4220   -0.9760 C.2     1  UNL1        0.0040
     10  C          5.3900    0.6060    1.5690 C.2     1  UNL1        0.0000
     11  C          5.1040    2.2320   -0.1470 C.2     1  UNL1        0.0000
     12  C          4.8760    1.8050    1.1430 C.2     1  UNL1        0.0000
@<TRIPOS>BOND
     1     1     6    1
     2     1     2    1
     3     6     7    1
     4     4     2    1
     5     4     5    1
     6     2     3    2
     7     9     7    2
     8     9    11    1
     9     7     8    1
    10    11    12    2
    11     8    10    2
    12    12    10    1
