@<TRIPOS>MOLECULE
/home/cewinharhar/GITHUB/reincatalyze/data/processed/docking_pred/2023-Apr-26-1657_maxeplen10_maxtrainstep1000_exh32_gamma099_lrac9e-4_lrcr1e-3/13e8c6f9c16a4fbf8ad14846e02839591438c51f_ligand_2.pdbqt
 12 12 0 0 0
SMALL
GASTEIGER

@<TRIPOS>ATOM
      1  C          8.4090   -0.6840   -2.0430 C.3     1  UNL1        0.1270
      2  C          8.3740   -1.9160   -2.8650 C.2     1  UNL1        0.3030
      3  O          7.2860   -2.4090   -3.2530 O.2     1  UNL1       -0.2520
      4  O          9.5450   -2.5610   -3.2280 O.3     1  UNL1       -0.4810
      5  H          9.6030   -3.0190   -4.1420 H       1  UNL1        0.2960
      6  C          7.0400   -0.0740   -2.0500 C.3     1  UNL1        0.0470
      7  C          6.4610    0.1020   -0.7190 C.2     1  UNL1       -0.0470
      8  C          5.8050    1.2640   -0.3860 C.2     1  UNL1        0.0040
      9  C          6.5760   -0.9130    0.2030 C.2     1  UNL1        0.0040
     10  C          5.2750    1.3630    0.9030 C.2     1  UNL1        0.0000
     11  C          6.0520   -0.8130    1.4760 C.2     1  UNL1        0.0000
     12  C          5.3940    0.3480    1.8180 C.2     1  UNL1        0.0000
@<TRIPOS>BOND
     1     5     4    1
     2     3     2    2
     3     4     2    1
     4     2     1    1
     5     6     1    1
     6     6     7    1
     7     7     8    2
     8     7     9    1
     9     8    10    1
    10     9    11    2
    11    10    12    2
    12    11    12    1
