@<TRIPOS>MOLECULE
/home/cewinharhar/GITHUB/reincatalyze/data/processed/docking_pred/2023-Apr-26-1657_maxeplen10_maxtrainstep1000_exh32_gamma099_lrac9e-4_lrcr1e-3/13e8c6f9c16a4fbf8ad14846e02839591438c51f_ligand_2.pdbqt
 12 12 0 0 0
SMALL
GASTEIGER

@<TRIPOS>ATOM
      1  C          8.4360   -0.7000   -2.0300 C.3     1  UNL1        0.1270
      2  C          8.3810   -1.9270   -2.8600 C.2     1  UNL1        0.3030
      3  O          7.2840   -2.4090   -3.2370 O.2     1  UNL1       -0.2520
      4  O          9.5430   -2.5780   -3.2430 O.3     1  UNL1       -0.4810
      5  H          9.5010   -3.2860   -3.9810 H       1  UNL1        0.2960
      6  C          7.0790   -0.0650   -2.0390 C.3     1  UNL1        0.0470
      7  C          6.4890    0.0970   -0.7110 C.2     1  UNL1       -0.0470
      8  C          6.6070   -0.8930    0.2360 C.2     1  UNL1        0.0040
      9  C          5.8140    1.2580   -0.4140 C.2     1  UNL1        0.0040
     10  C          6.0200   -0.6700    1.4830 C.2     1  UNL1        0.0000
     11  C          5.2340    1.4770    0.8200 C.2     1  UNL1        0.0000
     12  C          5.3460    0.4890    1.7740 C.2     1  UNL1        0.0000
@<TRIPOS>BOND
     1     5     4    1
     2     4     2    1
     3     3     2    2
     4     2     1    1
     5     6     1    1
     6     6     7    1
     7     7     9    2
     8     7     8    1
     9     9    11    1
    10     8    10    2
    11    11    12    2
    12    10    12    1
