MODEL 1
REMARK VINA RESULT:      -7.3      0.000      0.000
REMARK SMILES O=C(O)CCc1ccccc1
REMARK SMILES IDX 4 1 2 2 1 3 3 4 5 6 6 7 7 8 11 9 8 10 10 11 9 12
REMARK H PARENT 3 5
REMARK Flexibility Score: inf
ROOT
ATOM      1  C   UNL     1       8.409  -0.684  -2.043  1.00  0.00     0.127 C 
ENDROOT
BRANCH   1   2
ATOM      2  C   UNL     1       8.374  -1.916  -2.865  1.00  0.00     0.303 C 
ATOM      3  O   UNL     1       7.286  -2.409  -3.253  1.00  0.00    -0.252 OA
BRANCH   2   4
ATOM      4  O   UNL     1       9.545  -2.561  -3.228  1.00  0.00    -0.481 OA
ATOM      5  H   UNL     1       9.603  -3.019  -4.142  1.00  0.00     0.296 HD
ENDBRANCH   2   4
ENDBRANCH   1   2
BRANCH   1   6
ATOM      6  C   UNL     1       7.040  -0.074  -2.050  1.00  0.00     0.047 C 
BRANCH   6   7
ATOM      7  C   UNL     1       6.461   0.102  -0.719  1.00  0.00    -0.047 A 
ATOM      8  C   UNL     1       5.805   1.264  -0.386  1.00  0.00     0.004 A 
ATOM      9  C   UNL     1       6.576  -0.913   0.203  1.00  0.00     0.004 A 
ATOM     10  C   UNL     1       5.275   1.363   0.903  1.00  0.00     0.000 A 
ATOM     11  C   UNL     1       6.052  -0.813   1.476  1.00  0.00     0.000 A 
ATOM     12  C   UNL     1       5.394   0.348   1.818  1.00  0.00     0.000 A 
ENDBRANCH   6   7
ENDBRANCH   1   6
TORSDOF 4
ENDMDL
MODEL 2
REMARK VINA RESULT:      -7.3      0.083      1.438
REMARK SMILES O=C(O)CCc1ccccc1
REMARK SMILES IDX 4 1 2 2 1 3 3 4 5 6 6 7 7 8 11 9 8 10 10 11 9 12
REMARK H PARENT 3 5
REMARK Flexibility Score: inf
ROOT
ATOM      1  C   UNL     1       8.436  -0.700  -2.030  1.00  0.00     0.127 C 
ENDROOT
BRANCH   1   2
ATOM      2  C   UNL     1       8.381  -1.927  -2.860  1.00  0.00     0.303 C 
ATOM      3  O   UNL     1       7.284  -2.409  -3.237  1.00  0.00    -0.252 OA
BRANCH   2   4
ATOM      4  O   UNL     1       9.543  -2.578  -3.243  1.00  0.00    -0.481 OA
ATOM      5  H   UNL     1       9.501  -3.286  -3.981  1.00  0.00     0.296 HD
ENDBRANCH   2   4
ENDBRANCH   1   2
BRANCH   1   6
ATOM      6  C   UNL     1       7.079  -0.065  -2.039  1.00  0.00     0.047 C 
BRANCH   6   7
ATOM      7  C   UNL     1       6.489   0.097  -0.711  1.00  0.00    -0.047 A 
ATOM      8  C   UNL     1       6.607  -0.893   0.236  1.00  0.00     0.004 A 
ATOM      9  C   UNL     1       5.814   1.258  -0.414  1.00  0.00     0.004 A 
ATOM     10  C   UNL     1       6.020  -0.670   1.483  1.00  0.00     0.000 A 
ATOM     11  C   UNL     1       5.234   1.477   0.820  1.00  0.00     0.000 A 
ATOM     12  C   UNL     1       5.346   0.489   1.774  1.00  0.00     0.000 A 
ENDBRANCH   6   7
ENDBRANCH   1   6
TORSDOF 4
ENDMDL
MODEL 3
REMARK VINA RESULT:      -6.7      3.282      5.096
REMARK SMILES O=C(O)CCc1ccccc1
REMARK SMILES IDX 4 1 2 2 1 3 3 4 5 6 6 7 7 8 11 9 8 10 10 11 9 12
REMARK H PARENT 3 5
REMARK Flexibility Score: inf
ROOT
ATOM      1  C   UNL     1       5.047   1.721   0.675  1.00  0.00     0.127 C 
ENDROOT
BRANCH   1   2
ATOM      2  C   UNL     1       4.594   1.044   1.914  1.00  0.00     0.303 C 
ATOM      3  O   UNL     1       5.313   0.190   2.489  1.00  0.00    -0.252 OA
BRANCH   2   4
ATOM      4  O   UNL     1       3.361   1.337   2.473  1.00  0.00    -0.481 OA
ATOM      5  H   UNL     1       2.549   1.454   1.861  1.00  0.00     0.296 HD
ENDBRANCH   2   4
ENDBRANCH   1   2
BRANCH   1   6
ATOM      6  C   UNL     1       6.544   1.787   0.695  1.00  0.00     0.047 C 
BRANCH   6   7
ATOM      7  C   UNL     1       7.187   1.024  -0.373  1.00  0.00    -0.047 A 
ATOM      8  C   UNL     1       8.517   1.211  -0.668  1.00  0.00     0.004 A 
ATOM      9  C   UNL     1       6.445   0.109  -1.085  1.00  0.00     0.004 A 
ATOM     10  C   UNL     1       9.066   0.446  -1.701  1.00  0.00     0.000 A 
ATOM     11  C   UNL     1       6.989  -0.645  -2.106  1.00  0.00     0.000 A 
ATOM     12  C   UNL     1       8.321  -0.464  -2.408  1.00  0.00     0.000 A 
ENDBRANCH   6   7
ENDBRANCH   1   6
TORSDOF 4
ENDMDL
MODEL 4
REMARK VINA RESULT:      -6.7      1.932      2.602
REMARK SMILES O=C(O)CCc1ccccc1
REMARK SMILES IDX 4 1 2 2 1 3 3 4 5 6 6 7 7 8 11 9 8 10 10 11 9 12
REMARK H PARENT 3 5
REMARK Flexibility Score: inf
ROOT
ATOM      1  C   UNL     1       8.249   0.177  -2.181  1.00  0.00     0.127 C 
ENDROOT
BRANCH   1   2
ATOM      2  C   UNL     1       9.380   0.334  -1.236  1.00  0.00     0.303 C 
ATOM      3  O   UNL     1       9.477  -0.386  -0.212  1.00  0.00    -0.252 OA
BRANCH   2   4
ATOM      4  O   UNL     1      10.364   1.283  -1.459  1.00  0.00    -0.481 OA
ATOM      5  H   UNL     1      10.432   2.091  -0.834  1.00  0.00     0.296 HD
ENDBRANCH   2   4
ENDBRANCH   1   2
BRANCH   1   6
ATOM      6  C   UNL     1       7.160  -0.585  -1.488  1.00  0.00     0.047 C 
BRANCH   6   7
ATOM      7  C   UNL     1       6.373   0.219  -0.555  1.00  0.00    -0.047 A 
ATOM      8  C   UNL     1       6.150  -0.214   0.732  1.00  0.00     0.004 A 
ATOM      9  C   UNL     1       5.856   1.422  -0.976  1.00  0.00     0.004 A 
ATOM     10  C   UNL     1       5.390   0.606   1.569  1.00  0.00     0.000 A 
ATOM     11  C   UNL     1       5.104   2.232  -0.147  1.00  0.00     0.000 A 
ATOM     12  C   UNL     1       4.876   1.805   1.143  1.00  0.00     0.000 A 
ENDBRANCH   6   7
ENDBRANCH   1   6
TORSDOF 4
ENDMDL
MODEL 5
REMARK VINA RESULT:      -6.6      3.809      4.892
REMARK SMILES O=C(O)CCc1ccccc1
REMARK SMILES IDX 4 1 2 2 1 3 3 4 5 6 6 7 7 8 11 9 8 10 10 11 9 12
REMARK H PARENT 3 5
REMARK Flexibility Score: inf
ROOT
ATOM      1  C   UNL     1       5.379   2.819   0.034  1.00  0.00     0.127 C 
ENDROOT
BRANCH   1   2
ATOM      2  C   UNL     1       6.167   3.785   0.836  1.00  0.00     0.303 C 
ATOM      3  O   UNL     1       6.177   3.733   2.091  1.00  0.00    -0.252 OA
BRANCH   2   4
ATOM      4  O   UNL     1       6.916   4.775   0.220  1.00  0.00    -0.481 OA
ATOM      5  H   UNL     1       6.763   5.753   0.479  1.00  0.00     0.296 HD
ENDBRANCH   2   4
ENDBRANCH   1   2
BRANCH   1   6
ATOM      6  C   UNL     1       4.894   1.734   0.946  1.00  0.00     0.047 C 
BRANCH   6   7
ATOM      7  C   UNL     1       5.730   0.535   0.941  1.00  0.00    -0.047 A 
ATOM      8  C   UNL     1       6.509   0.226  -0.150  1.00  0.00     0.004 A 
ATOM      9  C   UNL     1       5.733  -0.286   2.045  1.00  0.00     0.004 A 
ATOM     10  C   UNL     1       7.284  -0.935  -0.085  1.00  0.00     0.000 A 
ATOM     11  C   UNL     1       6.499  -1.433   2.107  1.00  0.00     0.000 A 
ATOM     12  C   UNL     1       7.282  -1.751   1.018  1.00  0.00     0.000 A 
ENDBRANCH   6   7
ENDBRANCH   1   6
TORSDOF 4
ENDMDL
