@<TRIPOS>MOLECULE
/home/cewinharhar/GITHUB/reincatalyze/data/processed/docking_pred/2023-Apr-26-1657_maxeplen10_maxtrainstep1000_exh32_gamma099_lrac9e-4_lrcr1e-3/13e8c6f9c16a4fbf8ad14846e02839591438c51f_ligand_2.pdbqt
 12 12 0 0 0
SMALL
GASTEIGER

@<TRIPOS>ATOM
      1  C          5.0470    1.7210    0.6750 C.3     1  UNL1        0.1270
      2  C          4.5940    1.0440    1.9140 C.2     1  UNL1        0.3030
      3  O          5.3130    0.1900    2.4890 O.2     1  UNL1       -0.2520
      4  O          3.3610    1.3370    2.4730 O.3     1  UNL1       -0.4810
      5  H          2.5490    1.4540    1.8610 H       1  UNL1        0.2960
      6  C          6.5440    1.7870    0.6950 C.3     1  UNL1        0.0470
      7  C          7.1870    1.0240   -0.3730 C.2     1  UNL1       -0.0470
      8  C          8.5170    1.2110   -0.6680 C.2     1  UNL1        0.0040
      9  C          6.4450    0.1090   -1.0850 C.2     1  UNL1        0.0040
     10  C          9.0660    0.4460   -1.7010 C.2     1  UNL1        0.0000
     11  C          6.9890   -0.6450   -2.1060 C.2     1  UNL1        0.0000
     12  C          8.3210   -0.4640   -2.4080 C.2     1  UNL1        0.0000
@<TRIPOS>BOND
     1    12    11    2
     2    12    10    1
     3    11     9    1
     4    10     8    2
     5     9     7    2
     6     8     7    1
     7     7     6    1
     8     1     6    1
     9     1     2    1
    10     5     4    1
    11     2     4    1
    12     2     3    2
