@<TRIPOS>MOLECULE
/home/cewinharhar/GITHUB/reincatalyze/data/processed/docking_pred/2023-Apr-26-1657_maxeplen10_maxtrainstep1000_exh32_gamma099_lrac9e-4_lrcr1e-3/13e8c6f9c16a4fbf8ad14846e02839591438c51f_ligand_2.pdbqt
 12 12 0 0 0
SMALL
GASTEIGER

@<TRIPOS>ATOM
      1  C          5.3790    2.8190    0.0340 C.3     1  UNL1        0.1270
      2  C          6.1670    3.7850    0.8360 C.2     1  UNL1        0.3030
      3  O          6.1770    3.7330    2.0910 O.2     1  UNL1       -0.2520
      4  O          6.9160    4.7750    0.2200 O.3     1  UNL1       -0.4810
      5  H          6.7630    5.7530    0.4790 H       1  UNL1        0.2960
      6  C          4.8940    1.7340    0.9460 C.3     1  UNL1        0.0470
      7  C          5.7300    0.5350    0.9410 C.2     1  UNL1       -0.0470
      8  C          6.5090    0.2260   -0.1500 C.2     1  UNL1        0.0040
      9  C          5.7330   -0.2860    2.0450 C.2     1  UNL1        0.0040
     10  C          7.2840   -0.9350   -0.0850 C.2     1  UNL1        0.0000
     11  C          6.4990   -1.4330    2.1070 C.2     1  UNL1        0.0000
     12  C          7.2820   -1.7510    1.0180 C.2     1  UNL1        0.0000
@<TRIPOS>BOND
     1     8    10    1
     2     8     7    2
     3    10    12    2
     4     1     2    1
     5     1     6    1
     6     4     5    1
     7     4     2    1
     8     2     3    2
     9     7     6    1
    10     7     9    1
    11    12    11    1
    12     9    11    2
