@<TRIPOS>MOLECULE
/home/cewinharhar/GITHUB/reincatalyze/data/processed/docking_pred/2023-Apr-26-1657_maxeplen10_maxtrainstep1000_exh32_gamma099_lrac9e-4_lrcr1e-3/141a4713aaf07cdd351da17b8461b13d6c9c65f9_ligand_2.pdbqt
 12 12 0 0 0
SMALL
GASTEIGER

@<TRIPOS>ATOM
      1  C          5.0640    1.8030    0.6870 C.3     1  UNL1        0.1270
      2  C          4.6140    1.1820    1.9550 C.2     1  UNL1        0.3030
      3  O          5.2610    0.2450    2.4860 O.2     1  UNL1       -0.2520
      4  O          3.4630    1.6180    2.5910 O.3     1  UNL1       -0.4810
      5  H          2.5710    1.5850    2.0900 H       1  UNL1        0.2960
      6  C          6.5620    1.8550    0.6940 C.3     1  UNL1        0.0470
      7  C          7.1880    1.0710   -0.3690 C.2     1  UNL1       -0.0470
      8  C          8.5270    1.2120   -0.6510 C.2     1  UNL1        0.0040
      9  C          6.4230    0.1830   -1.0890 C.2     1  UNL1        0.0040
     10  C          9.0590    0.4300   -1.6790 C.2     1  UNL1        0.0000
     11  C          6.9500   -0.5890   -2.1050 C.2     1  UNL1        0.0000
     12  C          8.2900   -0.4530   -2.3950 C.2     1  UNL1        0.0000
@<TRIPOS>BOND
     1    12    11    2
     2    12    10    1
     3    11     9    1
     4    10     8    2
     5     9     7    2
     6     8     7    1
     7     7     6    1
     8     1     6    1
     9     1     2    1
    10     2     3    2
    11     2     4    1
    12     5     4    1
