@<TRIPOS>MOLECULE
/home/cewinharhar/GITHUB/reincatalyze/data/processed/docking_pred/2023-Apr-26-1657_maxeplen10_maxtrainstep1000_exh32_gamma099_lrac9e-4_lrcr1e-3/141a4713aaf07cdd351da17b8461b13d6c9c65f9_ligand_2.pdbqt
 12 12 0 0 0
SMALL
GASTEIGER

@<TRIPOS>ATOM
      1  C          8.1760   -1.1200    0.2760 C.3     1  UNL1        0.1270
      2  C          8.0150   -2.4870    0.8270 C.2     1  UNL1        0.3030
      3  O          8.9190   -3.3490    0.7010 O.2     1  UNL1       -0.2520
      4  O          6.8580   -2.8500    1.4970 O.3     1  UNL1       -0.4810
      5  H          6.2860   -2.1250    1.9380 H       1  UNL1        0.2960
      6  C          6.9560   -0.7900   -0.5280 C.3     1  UNL1        0.0470
      7  C          6.1570    0.3020    0.0240 C.2     1  UNL1       -0.0470
      8  C          5.7400    0.2760    1.3350 C.2     1  UNL1        0.0040
      9  C          5.8250    1.3660   -0.7830 C.2     1  UNL1        0.0040
     10  C          4.9800    1.3540    1.7950 C.2     1  UNL1        0.0000
     11  C          5.0740    2.4310   -0.3260 C.2     1  UNL1        0.0000
     12  C          4.6510    2.4110    0.9860 C.2     1  UNL1        0.0000
@<TRIPOS>BOND
     1     9    11    1
     2     9     7    2
     3     6     7    1
     4     6     1    1
     5    11    12    2
     6     7     8    1
     7     1     2    1
     8     3     2    2
     9     2     4    1
    10    12    10    1
    11     8    10    2
    12     4     5    1
