@<TRIPOS>MOLECULE
/home/cewinharhar/GITHUB/reincatalyze/data/processed/docking_pred/2023-Apr-26-1657_maxeplen10_maxtrainstep1000_exh32_gamma099_lrac9e-4_lrcr1e-3/141a4713aaf07cdd351da17b8461b13d6c9c65f9_ligand_2.pdbqt
 12 12 0 0 0
SMALL
GASTEIGER

@<TRIPOS>ATOM
      1  C          8.3600   -0.8320   -1.8690 C.3     1  UNL1        0.1270
      2  C          8.4180   -1.9630   -2.8240 C.2     1  UNL1        0.3030
      3  O          9.5090   -2.5120   -3.1180 O.2     1  UNL1       -0.2520
      4  O          7.2660   -2.4480   -3.4210 O.3     1  UNL1       -0.4810
      5  H          6.3920   -2.4610   -2.8880 H       1  UNL1        0.2960
      6  C          7.0070   -0.1960   -1.9740 C.3     1  UNL1        0.0470
      7  C          6.4000    0.1280   -0.6840 C.2     1  UNL1       -0.0470
      8  C          5.7490    1.3250   -0.4940 C.2     1  UNL1        0.0040
      9  C          6.4850   -0.7810    0.3450 C.2     1  UNL1        0.0040
     10  C          5.1930    1.5670    0.7640 C.2     1  UNL1        0.0000
     11  C          5.9350   -0.5390    1.5880 C.2     1  UNL1        0.0000
     12  C          5.2810    0.6580    1.7870 C.2     1  UNL1        0.0000
@<TRIPOS>BOND
     1     4     5    1
     2     4     2    1
     3     3     2    2
     4     2     1    1
     5     6     1    1
     6     6     7    1
     7     7     8    2
     8     7     9    1
     9     8    10    1
    10     9    11    2
    11    10    12    2
    12    11    12    1
