@<TRIPOS>MOLECULE
/home/cewinharhar/GITHUB/reincatalyze/data/processed/docking_pred/2023-Apr-26-1657_maxeplen10_maxtrainstep1000_exh32_gamma099_lrac9e-4_lrcr1e-3/141a4713aaf07cdd351da17b8461b13d6c9c65f9_ligand_2.pdbqt
 12 12 0 0 0
SMALL
GASTEIGER

@<TRIPOS>ATOM
      1  C          8.4500   -0.6330   -2.0850 C.3     1  UNL1        0.1270
      2  C          8.4740   -1.8890   -2.8710 C.2     1  UNL1        0.3030
      3  O          9.5500   -2.4940   -3.0990 O.2     1  UNL1       -0.2520
      4  O          7.3030   -2.4320   -3.3770 O.3     1  UNL1       -0.4810
      5  H          7.1100   -3.4270   -3.2350 H       1  UNL1        0.2960
      6  C          7.0550   -0.0870   -2.1120 C.3     1  UNL1        0.0470
      7  C          6.4720    0.1200   -0.7880 C.2     1  UNL1       -0.0470
      8  C          6.5870   -0.8420    0.1890 C.2     1  UNL1        0.0040
      9  C          5.8040    1.2930   -0.5240 C.2     1  UNL1        0.0040
     10  C          6.0070   -0.5770    1.4320 C.2     1  UNL1        0.0000
     11  C          5.2300    1.5530    0.7050 C.2     1  UNL1        0.0000
     12  C          5.3400    0.5950    1.6890 C.2     1  UNL1        0.0000
@<TRIPOS>BOND
     1     4     5    1
     2     4     2    1
     3     3     2    2
     4     2     1    1
     5     6     1    1
     6     6     7    1
     7     7     9    2
     8     7     8    1
     9     9    11    1
    10     8    10    2
    11    11    12    2
    12    10    12    1
