@<TRIPOS>MOLECULE
/home/cewinharhar/GITHUB/reincatalyze/data/processed/docking_pred/2023-Apr-26-1657_maxeplen10_maxtrainstep1000_exh32_gamma099_lrac9e-4_lrcr1e-3/141a4713aaf07cdd351da17b8461b13d6c9c65f9_ligand_2.pdbqt
 12 12 0 0 0
SMALL
GASTEIGER

@<TRIPOS>ATOM
      1  C          8.0590    0.2740   -1.9950 C.3     1  UNL1        0.1270
      2  C          9.2750    0.3630   -1.1530 C.2     1  UNL1        0.3030
      3  O          9.4290   -0.3790   -0.1520 O.2     1  UNL1       -0.2520
      4  O         10.2790    1.2710   -1.4490 O.3     1  UNL1       -0.4810
      5  H         11.0440    0.9880   -2.0680 H       1  UNL1        0.2960
      6  C          7.0600   -0.5920   -1.2890 C.3     1  UNL1        0.0470
      7  C          6.3030    0.1000   -0.2480 C.2     1  UNL1       -0.0470
      8  C          6.1320   -0.4680    0.9930 C.2     1  UNL1        0.0040
      9  C          5.7590    1.3340   -0.5220 C.2     1  UNL1        0.0040
     10  C          5.3980    0.2510    1.9390 C.2     1  UNL1        0.0000
     11  C          5.0330    2.0430    0.4150 C.2     1  UNL1        0.0000
     12  C          4.8580    1.4810    1.6610 C.2     1  UNL1        0.0000
@<TRIPOS>BOND
     1     5     4    1
     2     1     6    1
     3     1     2    1
     4     4     2    1
     5     6     7    1
     6     2     3    2
     7     9     7    2
     8     9    11    1
     9     7     8    1
    10    11    12    2
    11     8    10    2
    12    12    10    1
