MODEL 1
REMARK VINA RESULT:      -7.3      0.000      0.000
REMARK SMILES O=C(O)CCc1ccccc1
REMARK SMILES IDX 4 1 2 2 1 3 3 4 5 6 6 7 7 8 11 9 8 10 10 11 9 12
REMARK H PARENT 3 5
REMARK Flexibility Score: inf
ROOT
ATOM      1  C   UNL     1       8.360  -0.832  -1.869  1.00  0.00     0.127 C 
ENDROOT
BRANCH   1   2
ATOM      2  C   UNL     1       8.418  -1.963  -2.824  1.00  0.00     0.303 C 
ATOM      3  O   UNL     1       9.509  -2.512  -3.118  1.00  0.00    -0.252 OA
BRANCH   2   4
ATOM      4  O   UNL     1       7.266  -2.448  -3.421  1.00  0.00    -0.481 OA
ATOM      5  H   UNL     1       6.392  -2.461  -2.888  1.00  0.00     0.296 HD
ENDBRANCH   2   4
ENDBRANCH   1   2
BRANCH   1   6
ATOM      6  C   UNL     1       7.007  -0.196  -1.974  1.00  0.00     0.047 C 
BRANCH   6   7
ATOM      7  C   UNL     1       6.400   0.128  -0.684  1.00  0.00    -0.047 A 
ATOM      8  C   UNL     1       5.749   1.325  -0.494  1.00  0.00     0.004 A 
ATOM      9  C   UNL     1       6.485  -0.781   0.345  1.00  0.00     0.004 A 
ATOM     10  C   UNL     1       5.193   1.567   0.764  1.00  0.00     0.000 A 
ATOM     11  C   UNL     1       5.935  -0.539   1.588  1.00  0.00     0.000 A 
ATOM     12  C   UNL     1       5.281   0.658   1.787  1.00  0.00     0.000 A 
ENDBRANCH   6   7
ENDBRANCH   1   6
TORSDOF 4
ENDMDL
MODEL 2
REMARK VINA RESULT:      -7.3      0.153      1.444
REMARK SMILES O=C(O)CCc1ccccc1
REMARK SMILES IDX 4 1 2 2 1 3 3 4 5 6 6 7 7 8 11 9 8 10 10 11 9 12
REMARK H PARENT 3 5
REMARK Flexibility Score: inf
ROOT
ATOM      1  C   UNL     1       8.450  -0.633  -2.085  1.00  0.00     0.127 C 
ENDROOT
BRANCH   1   2
ATOM      2  C   UNL     1       8.474  -1.889  -2.871  1.00  0.00     0.303 C 
ATOM      3  O   UNL     1       9.550  -2.494  -3.099  1.00  0.00    -0.252 OA
BRANCH   2   4
ATOM      4  O   UNL     1       7.303  -2.432  -3.377  1.00  0.00    -0.481 OA
ATOM      5  H   UNL     1       7.110  -3.427  -3.235  1.00  0.00     0.296 HD
ENDBRANCH   2   4
ENDBRANCH   1   2
BRANCH   1   6
ATOM      6  C   UNL     1       7.055  -0.087  -2.112  1.00  0.00     0.047 C 
BRANCH   6   7
ATOM      7  C   UNL     1       6.472   0.120  -0.788  1.00  0.00    -0.047 A 
ATOM      8  C   UNL     1       6.587  -0.842   0.189  1.00  0.00     0.004 A 
ATOM      9  C   UNL     1       5.804   1.293  -0.524  1.00  0.00     0.004 A 
ATOM     10  C   UNL     1       6.007  -0.577   1.432  1.00  0.00     0.000 A 
ATOM     11  C   UNL     1       5.230   1.553   0.705  1.00  0.00     0.000 A 
ATOM     12  C   UNL     1       5.340   0.595   1.689  1.00  0.00     0.000 A 
ENDBRANCH   6   7
ENDBRANCH   1   6
TORSDOF 4
ENDMDL
MODEL 3
REMARK VINA RESULT:      -6.9      3.388      5.084
REMARK SMILES O=C(O)CCc1ccccc1
REMARK SMILES IDX 4 1 2 2 1 3 3 4 5 6 6 7 7 8 11 9 8 10 10 11 9 12
REMARK H PARENT 3 5
REMARK Flexibility Score: inf
ROOT
ATOM      1  C   UNL     1       5.064   1.803   0.687  1.00  0.00     0.127 C 
ENDROOT
BRANCH   1   2
ATOM      2  C   UNL     1       4.614   1.182   1.955  1.00  0.00     0.303 C 
ATOM      3  O   UNL     1       5.261   0.245   2.486  1.00  0.00    -0.252 OA
BRANCH   2   4
ATOM      4  O   UNL     1       3.463   1.618   2.591  1.00  0.00    -0.481 OA
ATOM      5  H   UNL     1       2.571   1.585   2.090  1.00  0.00     0.296 HD
ENDBRANCH   2   4
ENDBRANCH   1   2
BRANCH   1   6
ATOM      6  C   UNL     1       6.562   1.855   0.694  1.00  0.00     0.047 C 
BRANCH   6   7
ATOM      7  C   UNL     1       7.188   1.071  -0.369  1.00  0.00    -0.047 A 
ATOM      8  C   UNL     1       8.527   1.212  -0.651  1.00  0.00     0.004 A 
ATOM      9  C   UNL     1       6.423   0.183  -1.089  1.00  0.00     0.004 A 
ATOM     10  C   UNL     1       9.059   0.430  -1.679  1.00  0.00     0.000 A 
ATOM     11  C   UNL     1       6.950  -0.589  -2.105  1.00  0.00     0.000 A 
ATOM     12  C   UNL     1       8.290  -0.453  -2.395  1.00  0.00     0.000 A 
ENDBRANCH   6   7
ENDBRANCH   1   6
TORSDOF 4
ENDMDL
MODEL 4
REMARK VINA RESULT:      -6.8      1.968      2.619
REMARK SMILES O=C(O)CCc1ccccc1
REMARK SMILES IDX 4 1 2 2 1 3 3 4 5 6 6 7 7 8 11 9 8 10 10 11 9 12
REMARK H PARENT 3 5
REMARK Flexibility Score: inf
ROOT
ATOM      1  C   UNL     1       8.059   0.274  -1.995  1.00  0.00     0.127 C 
ENDROOT
BRANCH   1   2
ATOM      2  C   UNL     1       9.275   0.363  -1.153  1.00  0.00     0.303 C 
ATOM      3  O   UNL     1       9.429  -0.379  -0.152  1.00  0.00    -0.252 OA
BRANCH   2   4
ATOM      4  O   UNL     1      10.279   1.271  -1.449  1.00  0.00    -0.481 OA
ATOM      5  H   UNL     1      11.044   0.988  -2.068  1.00  0.00     0.296 HD
ENDBRANCH   2   4
ENDBRANCH   1   2
BRANCH   1   6
ATOM      6  C   UNL     1       7.060  -0.592  -1.289  1.00  0.00     0.047 C 
BRANCH   6   7
ATOM      7  C   UNL     1       6.303   0.100  -0.248  1.00  0.00    -0.047 A 
ATOM      8  C   UNL     1       6.132  -0.468   0.993  1.00  0.00     0.004 A 
ATOM      9  C   UNL     1       5.759   1.334  -0.522  1.00  0.00     0.004 A 
ATOM     10  C   UNL     1       5.398   0.251   1.939  1.00  0.00     0.000 A 
ATOM     11  C   UNL     1       5.033   2.043   0.415  1.00  0.00     0.000 A 
ATOM     12  C   UNL     1       4.858   1.481   1.661  1.00  0.00     0.000 A 
ENDBRANCH   6   7
ENDBRANCH   1   6
TORSDOF 4
ENDMDL
MODEL 5
REMARK VINA RESULT:      -6.7      2.241      2.875
REMARK SMILES O=C(O)CCc1ccccc1
REMARK SMILES IDX 4 1 2 2 1 3 3 4 5 6 6 7 7 8 11 9 8 10 10 11 9 12
REMARK H PARENT 3 5
REMARK Flexibility Score: inf
ROOT
ATOM      1  C   UNL     1       8.176  -1.120   0.276  1.00  0.00     0.127 C 
ENDROOT
BRANCH   1   2
ATOM      2  C   UNL     1       8.015  -2.487   0.827  1.00  0.00     0.303 C 
ATOM      3  O   UNL     1       8.919  -3.349   0.701  1.00  0.00    -0.252 OA
BRANCH   2   4
ATOM      4  O   UNL     1       6.858  -2.850   1.497  1.00  0.00    -0.481 OA
ATOM      5  H   UNL     1       6.286  -2.125   1.938  1.00  0.00     0.296 HD
ENDBRANCH   2   4
ENDBRANCH   1   2
BRANCH   1   6
ATOM      6  C   UNL     1       6.956  -0.790  -0.528  1.00  0.00     0.047 C 
BRANCH   6   7
ATOM      7  C   UNL     1       6.157   0.302   0.024  1.00  0.00    -0.047 A 
ATOM      8  C   UNL     1       5.740   0.276   1.335  1.00  0.00     0.004 A 
ATOM      9  C   UNL     1       5.825   1.366  -0.783  1.00  0.00     0.004 A 
ATOM     10  C   UNL     1       4.980   1.354   1.795  1.00  0.00     0.000 A 
ATOM     11  C   UNL     1       5.074   2.431  -0.326  1.00  0.00     0.000 A 
ATOM     12  C   UNL     1       4.651   2.411   0.986  1.00  0.00     0.000 A 
ENDBRANCH   6   7
ENDBRANCH   1   6
TORSDOF 4
ENDMDL
