@<TRIPOS>MOLECULE
/home/cewinharhar/GITHUB/reincatalyze/data/processed/docking_pred/2023-Apr-26-1657_maxeplen10_maxtrainstep1000_exh32_gamma099_lrac9e-4_lrcr1e-3/141be626e2cd6ba8f6b8a46d6dbef4dd02701a2b_ligand_2.pdbqt
 12 12 0 0 0
SMALL
GASTEIGER

@<TRIPOS>ATOM
      1  C          7.2420   -1.1850   -2.0000 C.3     1  UNL1        0.1270
      2  C          8.6840   -1.1770   -2.3400 C.2     1  UNL1        0.3030
      3  O          9.1900   -2.0810   -3.0500 O.2     1  UNL1       -0.2520
      4  O          9.5160   -0.1680   -1.8830 O.3     1  UNL1       -0.4810
      5  H         10.5310   -0.2780   -1.9680 H       1  UNL1        0.2960
      6  C          6.7880    0.2340   -1.8420 C.3     1  UNL1        0.0470
      7  C          6.1870    0.5250   -0.5410 C.2     1  UNL1       -0.0470
      8  C          6.2950   -0.3680    0.4990 C.2     1  UNL1        0.0040
      9  C          5.5090    1.7090   -0.3640 C.2     1  UNL1        0.0040
     10  C          5.6970   -0.0250    1.7140 C.2     1  UNL1        0.0000
     11  C          4.9180    2.0470    0.8370 C.2     1  UNL1        0.0000
     12  C          5.0210    1.1570    1.8840 C.2     1  UNL1        0.0000
@<TRIPOS>BOND
     1     3     2    2
     2     2     1    1
     3     2     4    1
     4     1     6    1
     5     5     4    1
     6     6     7    1
     7     7     9    2
     8     7     8    1
     9     9    11    1
    10     8    10    2
    11    11    12    2
    12    10    12    1
