@<TRIPOS>MOLECULE
/home/cewinharhar/GITHUB/reincatalyze/data/processed/docking_pred/2023-Apr-26-1657_maxeplen10_maxtrainstep1000_exh32_gamma099_lrac9e-4_lrcr1e-3/141be626e2cd6ba8f6b8a46d6dbef4dd02701a2b_ligand_2.pdbqt
 12 12 0 0 0
SMALL
GASTEIGER

@<TRIPOS>ATOM
      1  C          7.2510   -1.1760   -1.9310 C.3     1  UNL1        0.1270
      2  C          8.6820   -1.1560   -2.3150 C.2     1  UNL1        0.3030
      3  O          9.1710   -2.0470   -3.0530 O.2     1  UNL1       -0.2520
      4  O          9.5230   -0.1490   -1.8670 O.3     1  UNL1       -0.4810
      5  H         10.5130   -0.3570   -1.7110 H       1  UNL1        0.2960
      6  C          6.7710    0.2390   -1.8280 C.3     1  UNL1        0.0470
      7  C          6.1600    0.5680   -0.5410 C.2     1  UNL1       -0.0470
      8  C          5.4740    1.7470   -0.3690 C.2     1  UNL1        0.0040
      9  C          6.2760   -0.3210    0.5030 C.2     1  UNL1        0.0040
     10  C          4.9150    1.9950    0.8870 C.2     1  UNL1        0.0000
     11  C          5.7230   -0.0740    1.7440 C.2     1  UNL1        0.0000
     12  C          5.0350    1.1060    1.9250 C.2     1  UNL1        0.0000
@<TRIPOS>BOND
     1     3     2    2
     2     2     1    1
     3     2     4    1
     4     1     6    1
     5     4     5    1
     6     6     7    1
     7     7     8    2
     8     7     9    1
     9     8    10    1
    10     9    11    2
    11    10    12    2
    12    11    12    1
