@<TRIPOS>MOLECULE
/home/cewinharhar/GITHUB/reincatalyze/data/processed/docking_pred/2023-Apr-26-1657_maxeplen10_maxtrainstep1000_exh32_gamma099_lrac9e-4_lrcr1e-3/141be626e2cd6ba8f6b8a46d6dbef4dd02701a2b_ligand_2.pdbqt
 12 12 0 0 0
SMALL
GASTEIGER

@<TRIPOS>ATOM
      1  C          8.0690    0.2670   -1.9630 C.3     1  UNL1        0.1270
      2  C          9.2830    0.3440   -1.1180 C.2     1  UNL1        0.3030
      3  O          9.4370   -0.4140   -0.1280 O.2     1  UNL1       -0.2520
      4  O         10.2860    1.2590   -1.3980 O.3     1  UNL1       -0.4810
      5  H         11.2630    0.9540   -1.3760 H       1  UNL1        0.2960
      6  C          7.0610   -0.5930   -1.2620 C.3     1  UNL1        0.0470
      7  C          6.2990    0.1060   -0.2290 C.2     1  UNL1       -0.0470
      8  C          6.0940   -0.4680    1.0040 C.2     1  UNL1        0.0040
      9  C          5.7860    1.3530   -0.5020 C.2     1  UNL1        0.0040
     10  C          5.3570    0.2580    1.9420 C.2     1  UNL1        0.0000
     11  C          5.0580    2.0690    0.4270 C.2     1  UNL1        0.0000
     12  C          4.8470    1.5010    1.6640 C.2     1  UNL1        0.0000
@<TRIPOS>BOND
     1     1     6    1
     2     1     2    1
     3     4     5    1
     4     4     2    1
     5     6     7    1
     6     2     3    2
     7     9     7    2
     8     9    11    1
     9     7     8    1
    10    11    12    2
    11     8    10    2
    12    12    10    1
