@<TRIPOS>MOLECULE
/home/cewinharhar/GITHUB/reincatalyze/data/processed/docking_pred/2023-Apr-26-1657_maxeplen10_maxtrainstep1000_exh32_gamma099_lrac9e-4_lrcr1e-3/141be626e2cd6ba8f6b8a46d6dbef4dd02701a2b_ligand_2.pdbqt
 12 12 0 0 0
SMALL
GASTEIGER

@<TRIPOS>ATOM
      1  C          5.0830    1.7280    0.6920 C.3     1  UNL1        0.1270
      2  C          4.6840    1.1320    1.9890 C.2     1  UNL1        0.3030
      3  O          5.3750    0.2340    2.5330 O.2     1  UNL1       -0.2520
      4  O          3.5340    1.5500    2.6390 O.3     1  UNL1       -0.4810
      5  H          3.5920    1.8510    3.6160 H       1  UNL1        0.2960
      6  C          6.5790    1.8070    0.6510 C.3     1  UNL1        0.0470
      7  C          7.1880    0.9980   -0.4040 C.2     1  UNL1       -0.0470
      8  C          6.4460    0.0650   -1.0910 C.2     1  UNL1        0.0040
      9  C          8.5170    1.1800   -0.7060 C.2     1  UNL1        0.0040
     10  C          7.0930   -0.6720   -2.0860 C.2     1  UNL1        0.0000
     11  C          9.1550    0.4500   -1.6900 C.2     1  UNL1        0.0000
     12  C          8.4200   -0.4870   -2.3830 C.2     1  UNL1        0.0000
@<TRIPOS>BOND
     1    12    10    2
     2    12    11    1
     3    10     8    1
     4    11     9    2
     5     8     7    2
     6     9     7    1
     7     7     6    1
     8     6     1    1
     9     1     2    1
    10     2     3    2
    11     2     4    1
    12     4     5    1
