MODEL 1
REMARK VINA RESULT:      -6.9      0.000      0.000
REMARK SMILES O=C(O)CCc1ccccc1
REMARK SMILES IDX 4 1 2 2 1 3 3 4 5 6 6 7 7 8 11 9 8 10 10 11 9 12
REMARK H PARENT 3 5
REMARK Flexibility Score: inf
ROOT
ATOM      1  C   UNL     1       7.251  -1.176  -1.931  1.00  0.00     0.127 C 
ENDROOT
BRANCH   1   2
ATOM      2  C   UNL     1       8.682  -1.156  -2.315  1.00  0.00     0.303 C 
ATOM      3  O   UNL     1       9.171  -2.047  -3.053  1.00  0.00    -0.252 OA
BRANCH   2   4
ATOM      4  O   UNL     1       9.523  -0.149  -1.867  1.00  0.00    -0.481 OA
ATOM      5  H   UNL     1      10.513  -0.357  -1.711  1.00  0.00     0.296 HD
ENDBRANCH   2   4
ENDBRANCH   1   2
BRANCH   1   6
ATOM      6  C   UNL     1       6.771   0.239  -1.828  1.00  0.00     0.047 C 
BRANCH   6   7
ATOM      7  C   UNL     1       6.160   0.568  -0.541  1.00  0.00    -0.047 A 
ATOM      8  C   UNL     1       5.474   1.747  -0.369  1.00  0.00     0.004 A 
ATOM      9  C   UNL     1       6.276  -0.321   0.503  1.00  0.00     0.004 A 
ATOM     10  C   UNL     1       4.915   1.995   0.887  1.00  0.00     0.000 A 
ATOM     11  C   UNL     1       5.723  -0.074   1.744  1.00  0.00     0.000 A 
ATOM     12  C   UNL     1       5.035   1.106   1.925  1.00  0.00     0.000 A 
ENDBRANCH   6   7
ENDBRANCH   1   6
TORSDOF 4
ENDMDL
MODEL 2
REMARK VINA RESULT:      -6.9      0.053      1.437
REMARK SMILES O=C(O)CCc1ccccc1
REMARK SMILES IDX 4 1 2 2 1 3 3 4 5 6 6 7 7 8 11 9 8 10 10 11 9 12
REMARK H PARENT 3 5
REMARK Flexibility Score: inf
ROOT
ATOM      1  C   UNL     1       7.242  -1.185  -2.000  1.00  0.00     0.127 C 
ENDROOT
BRANCH   1   2
ATOM      2  C   UNL     1       8.684  -1.177  -2.340  1.00  0.00     0.303 C 
ATOM      3  O   UNL     1       9.190  -2.081  -3.050  1.00  0.00    -0.252 OA
BRANCH   2   4
ATOM      4  O   UNL     1       9.516  -0.168  -1.883  1.00  0.00    -0.481 OA
ATOM      5  H   UNL     1      10.531  -0.278  -1.968  1.00  0.00     0.296 HD
ENDBRANCH   2   4
ENDBRANCH   1   2
BRANCH   1   6
ATOM      6  C   UNL     1       6.788   0.234  -1.842  1.00  0.00     0.047 C 
BRANCH   6   7
ATOM      7  C   UNL     1       6.187   0.525  -0.541  1.00  0.00    -0.047 A 
ATOM      8  C   UNL     1       6.295  -0.368   0.499  1.00  0.00     0.004 A 
ATOM      9  C   UNL     1       5.509   1.709  -0.364  1.00  0.00     0.004 A 
ATOM     10  C   UNL     1       5.697  -0.025   1.714  1.00  0.00     0.000 A 
ATOM     11  C   UNL     1       4.918   2.047   0.837  1.00  0.00     0.000 A 
ATOM     12  C   UNL     1       5.021   1.157   1.884  1.00  0.00     0.000 A 
ENDBRANCH   6   7
ENDBRANCH   1   6
TORSDOF 4
ENDMDL
MODEL 3
REMARK VINA RESULT:      -6.8      3.154      4.951
REMARK SMILES O=C(O)CCc1ccccc1
REMARK SMILES IDX 4 1 2 2 1 3 3 4 5 6 6 7 7 8 11 9 8 10 10 11 9 12
REMARK H PARENT 3 5
REMARK Flexibility Score: inf
ROOT
ATOM      1  C   UNL     1       5.083   1.728   0.692  1.00  0.00     0.127 C 
ENDROOT
BRANCH   1   2
ATOM      2  C   UNL     1       4.684   1.132   1.989  1.00  0.00     0.303 C 
ATOM      3  O   UNL     1       5.375   0.234   2.533  1.00  0.00    -0.252 OA
BRANCH   2   4
ATOM      4  O   UNL     1       3.534   1.550   2.639  1.00  0.00    -0.481 OA
ATOM      5  H   UNL     1       3.592   1.851   3.616  1.00  0.00     0.296 HD
ENDBRANCH   2   4
ENDBRANCH   1   2
BRANCH   1   6
ATOM      6  C   UNL     1       6.579   1.807   0.651  1.00  0.00     0.047 C 
BRANCH   6   7
ATOM      7  C   UNL     1       7.188   0.998  -0.404  1.00  0.00    -0.047 A 
ATOM      8  C   UNL     1       6.446   0.065  -1.091  1.00  0.00     0.004 A 
ATOM      9  C   UNL     1       8.517   1.180  -0.706  1.00  0.00     0.004 A 
ATOM     10  C   UNL     1       7.093  -0.672  -2.086  1.00  0.00     0.000 A 
ATOM     11  C   UNL     1       9.155   0.450  -1.690  1.00  0.00     0.000 A 
ATOM     12  C   UNL     1       8.420  -0.487  -2.383  1.00  0.00     0.000 A 
ENDBRANCH   6   7
ENDBRANCH   1   6
TORSDOF 4
ENDMDL
MODEL 4
REMARK VINA RESULT:      -6.8      3.152      4.928
REMARK SMILES O=C(O)CCc1ccccc1
REMARK SMILES IDX 4 1 2 2 1 3 3 4 5 6 6 7 7 8 11 9 8 10 10 11 9 12
REMARK H PARENT 3 5
REMARK Flexibility Score: inf
ROOT
ATOM      1  C   UNL     1       5.067   1.756   0.672  1.00  0.00     0.127 C 
ENDROOT
BRANCH   1   2
ATOM      2  C   UNL     1       4.668   1.138   1.958  1.00  0.00     0.303 C 
ATOM      3  O   UNL     1       5.350   0.219   2.478  1.00  0.00    -0.252 OA
BRANCH   2   4
ATOM      4  O   UNL     1       3.529   1.558   2.625  1.00  0.00    -0.481 OA
ATOM      5  H   UNL     1       3.252   2.542   2.572  1.00  0.00     0.296 HD
ENDBRANCH   2   4
ENDBRANCH   1   2
BRANCH   1   6
ATOM      6  C   UNL     1       6.561   1.867   0.645  1.00  0.00     0.047 C 
BRANCH   6   7
ATOM      7  C   UNL     1       7.198   1.068  -0.400  1.00  0.00    -0.047 A 
ATOM      8  C   UNL     1       8.540   1.203  -0.669  1.00  0.00     0.004 A 
ATOM      9  C   UNL     1       6.439   0.171  -1.116  1.00  0.00     0.004 A 
ATOM     10  C   UNL     1       9.082   0.407  -1.680  1.00  0.00     0.000 A 
ATOM     11  C   UNL     1       6.976  -0.615  -2.116  1.00  0.00     0.000 A 
ATOM     12  C   UNL     1       8.320  -0.485  -2.392  1.00  0.00     0.000 A 
ENDBRANCH   6   7
ENDBRANCH   1   6
TORSDOF 4
ENDMDL
MODEL 5
REMARK VINA RESULT:      -6.7      1.355      2.020
REMARK SMILES O=C(O)CCc1ccccc1
REMARK SMILES IDX 4 1 2 2 1 3 3 4 5 6 6 7 7 8 11 9 8 10 10 11 9 12
REMARK H PARENT 3 5
REMARK Flexibility Score: inf
ROOT
ATOM      1  C   UNL     1       8.069   0.267  -1.963  1.00  0.00     0.127 C 
ENDROOT
BRANCH   1   2
ATOM      2  C   UNL     1       9.283   0.344  -1.118  1.00  0.00     0.303 C 
ATOM      3  O   UNL     1       9.437  -0.414  -0.128  1.00  0.00    -0.252 OA
BRANCH   2   4
ATOM      4  O   UNL     1      10.286   1.259  -1.398  1.00  0.00    -0.481 OA
ATOM      5  H   UNL     1      11.263   0.954  -1.376  1.00  0.00     0.296 HD
ENDBRANCH   2   4
ENDBRANCH   1   2
BRANCH   1   6
ATOM      6  C   UNL     1       7.061  -0.593  -1.262  1.00  0.00     0.047 C 
BRANCH   6   7
ATOM      7  C   UNL     1       6.299   0.106  -0.229  1.00  0.00    -0.047 A 
ATOM      8  C   UNL     1       6.094  -0.468   1.004  1.00  0.00     0.004 A 
ATOM      9  C   UNL     1       5.786   1.353  -0.502  1.00  0.00     0.004 A 
ATOM     10  C   UNL     1       5.357   0.258   1.942  1.00  0.00     0.000 A 
ATOM     11  C   UNL     1       5.058   2.069   0.427  1.00  0.00     0.000 A 
ATOM     12  C   UNL     1       4.847   1.501   1.664  1.00  0.00     0.000 A 
ENDBRANCH   6   7
ENDBRANCH   1   6
TORSDOF 4
ENDMDL
