@<TRIPOS>MOLECULE
/home/cewinharhar/GITHUB/reincatalyze/data/processed/docking_pred/2023-Apr-26-1657_maxeplen10_maxtrainstep1000_exh32_gamma099_lrac9e-4_lrcr1e-3/141be626e2cd6ba8f6b8a46d6dbef4dd02701a2b_ligand_2.pdbqt
 12 12 0 0 0
SMALL
GASTEIGER

@<TRIPOS>ATOM
      1  C          5.0670    1.7560    0.6720 C.3     1  UNL1        0.1270
      2  C          4.6680    1.1380    1.9580 C.2     1  UNL1        0.3030
      3  O          5.3500    0.2190    2.4780 O.2     1  UNL1       -0.2520
      4  O          3.5290    1.5580    2.6250 O.3     1  UNL1       -0.4810
      5  H          3.2520    2.5420    2.5720 H       1  UNL1        0.2960
      6  C          6.5610    1.8670    0.6450 C.3     1  UNL1        0.0470
      7  C          7.1980    1.0680   -0.4000 C.2     1  UNL1       -0.0470
      8  C          8.5400    1.2030   -0.6690 C.2     1  UNL1        0.0040
      9  C          6.4390    0.1710   -1.1160 C.2     1  UNL1        0.0040
     10  C          9.0820    0.4070   -1.6800 C.2     1  UNL1        0.0000
     11  C          6.9760   -0.6150   -2.1160 C.2     1  UNL1        0.0000
     12  C          8.3200   -0.4850   -2.3920 C.2     1  UNL1        0.0000
@<TRIPOS>BOND
     1    12    11    2
     2    12    10    1
     3    11     9    1
     4    10     8    2
     5     9     7    2
     6     8     7    1
     7     7     6    1
     8     6     1    1
     9     1     2    1
    10     2     3    2
    11     2     4    1
    12     5     4    1
