@<TRIPOS>MOLECULE
/home/cewinharhar/GITHUB/reincatalyze/data/processed/docking_pred/2023-Apr-26-1657_maxeplen10_maxtrainstep1000_exh32_gamma099_lrac9e-4_lrcr1e-3/1444e75be78da7e2931ed2b5f85ad252461f0798_ligand_2.pdbqt
 12 12 0 0 0
SMALL
GASTEIGER

@<TRIPOS>ATOM
      1  C          4.9960    1.7360    0.6670 C.3     1  UNL1        0.1270
      2  C          4.4760    1.0880    1.8950 C.2     1  UNL1        0.3030
      3  O          5.1210    0.1780    2.4730 O.2     1  UNL1       -0.2520
      4  O          3.2610    1.4700    2.4390 O.3     1  UNL1       -0.4810
      5  H          3.0070    2.4620    2.4520 H       1  UNL1        0.2960
      6  C          6.4930    1.7340    0.7320 C.3     1  UNL1        0.0470
      7  C          7.1330    0.9830   -0.3460 C.2     1  UNL1       -0.0470
      8  C          8.4430    1.2230   -0.6900 C.2     1  UNL1        0.0040
      9  C          6.4100    0.0250   -1.0180 C.2     1  UNL1        0.0040
     10  C          8.9900    0.4670   -1.7290 C.2     1  UNL1        0.0000
     11  C          6.9520   -0.7220   -2.0450 C.2     1  UNL1        0.0000
     12  C          8.2640   -0.4870   -2.3960 C.2     1  UNL1        0.0000
@<TRIPOS>BOND
     1    12    11    2
     2    12    10    1
     3    11     9    1
     4    10     8    2
     5     9     7    2
     6     8     7    1
     7     7     6    1
     8     1     6    1
     9     1     2    1
    10     2     4    1
    11     2     3    2
    12     4     5    1
