@<TRIPOS>MOLECULE
/home/cewinharhar/GITHUB/reincatalyze/data/processed/docking_pred/2023-Apr-26-1657_maxeplen10_maxtrainstep1000_exh32_gamma099_lrac9e-4_lrcr1e-3/1444e75be78da7e2931ed2b5f85ad252461f0798_ligand_2.pdbqt
 12 12 0 0 0
SMALL
GASTEIGER

@<TRIPOS>ATOM
      1  C          8.4350   -0.6140   -2.1380 C.3     1  UNL1        0.1270
      2  C          8.4710   -1.8950   -2.8810 C.2     1  UNL1        0.3030
      3  O          9.5530   -2.5020   -3.0800 O.2     1  UNL1       -0.2520
      4  O          7.3080   -2.4600   -3.3790 O.3     1  UNL1       -0.4810
      5  H          6.8140   -3.1630   -2.8220 H       1  UNL1        0.2960
      6  C          7.0180   -0.1260   -2.1100 C.3     1  UNL1        0.0470
      7  C          6.4530   -0.0160   -0.7660 C.2     1  UNL1       -0.0470
      8  C          6.5730   -1.0490    0.1340 C.2     1  UNL1        0.0040
      9  C          5.7970    1.1380   -0.4060 C.2     1  UNL1        0.0040
     10  C          6.0100   -0.8750    1.4000 C.2     1  UNL1        0.0000
     11  C          5.2410    1.3090    0.8460 C.2     1  UNL1        0.0000
     12  C          5.3560    0.2780    1.7530 C.2     1  UNL1        0.0000
@<TRIPOS>BOND
     1     4     2    1
     2     4     5    1
     3     3     2    2
     4     2     1    1
     5     1     6    1
     6     6     7    1
     7     7     9    2
     8     7     8    1
     9     9    11    1
    10     8    10    2
    11    11    12    2
    12    10    12    1
