MODEL 1
REMARK VINA RESULT:      -7.3      0.000      0.000
REMARK SMILES O=C(O)CCc1ccccc1
REMARK SMILES IDX 4 1 2 2 1 3 3 4 5 6 6 7 7 8 11 9 8 10 10 11 9 12
REMARK H PARENT 3 5
REMARK Flexibility Score: inf
ROOT
ATOM      1  C   UNL     1       8.435  -0.614  -2.138  1.00  0.00     0.127 C 
ENDROOT
BRANCH   1   2
ATOM      2  C   UNL     1       8.471  -1.895  -2.881  1.00  0.00     0.303 C 
ATOM      3  O   UNL     1       9.553  -2.502  -3.080  1.00  0.00    -0.252 OA
BRANCH   2   4
ATOM      4  O   UNL     1       7.308  -2.460  -3.379  1.00  0.00    -0.481 OA
ATOM      5  H   UNL     1       6.814  -3.163  -2.822  1.00  0.00     0.296 HD
ENDBRANCH   2   4
ENDBRANCH   1   2
BRANCH   1   6
ATOM      6  C   UNL     1       7.018  -0.126  -2.110  1.00  0.00     0.047 C 
BRANCH   6   7
ATOM      7  C   UNL     1       6.453  -0.016  -0.766  1.00  0.00    -0.047 A 
ATOM      8  C   UNL     1       6.573  -1.049   0.134  1.00  0.00     0.004 A 
ATOM      9  C   UNL     1       5.797   1.138  -0.406  1.00  0.00     0.004 A 
ATOM     10  C   UNL     1       6.010  -0.875   1.400  1.00  0.00     0.000 A 
ATOM     11  C   UNL     1       5.241   1.309   0.846  1.00  0.00     0.000 A 
ATOM     12  C   UNL     1       5.356   0.278   1.753  1.00  0.00     0.000 A 
ENDBRANCH   6   7
ENDBRANCH   1   6
TORSDOF 4
ENDMDL
MODEL 2
REMARK VINA RESULT:      -7.2      0.120      1.732
REMARK SMILES O=C(O)CCc1ccccc1
REMARK SMILES IDX 4 1 2 2 1 3 3 4 5 6 6 7 7 8 11 9 8 10 10 11 9 12
REMARK H PARENT 3 5
REMARK Flexibility Score: inf
ROOT
ATOM      1  C   UNL     1       8.425  -0.676  -2.015  1.00  0.00     0.127 C 
ENDROOT
BRANCH   1   2
ATOM      2  C   UNL     1       8.378  -1.901  -2.848  1.00  0.00     0.303 C 
ATOM      3  O   UNL     1       7.284  -2.395  -3.217  1.00  0.00    -0.252 OA
BRANCH   2   4
ATOM      4  O   UNL     1       9.544  -2.536  -3.242  1.00  0.00    -0.481 OA
ATOM      5  H   UNL     1      10.447  -2.149  -2.956  1.00  0.00     0.296 HD
ENDBRANCH   2   4
ENDBRANCH   1   2
BRANCH   1   6
ATOM      6  C   UNL     1       7.071  -0.034  -2.045  1.00  0.00     0.047 C 
BRANCH   6   7
ATOM      7  C   UNL     1       6.447   0.099  -0.730  1.00  0.00    -0.047 A 
ATOM      8  C   UNL     1       5.791   1.255  -0.376  1.00  0.00     0.004 A 
ATOM      9  C   UNL     1       6.519  -0.951   0.157  1.00  0.00     0.004 A 
ATOM     10  C   UNL     1       5.217   1.311   0.896  1.00  0.00     0.000 A 
ATOM     11  C   UNL     1       5.951  -0.893   1.414  1.00  0.00     0.000 A 
ATOM     12  C   UNL     1       5.293   0.262   1.776  1.00  0.00     0.000 A 
ENDBRANCH   6   7
ENDBRANCH   1   6
TORSDOF 4
ENDMDL
MODEL 3
REMARK VINA RESULT:      -7.1      0.624      1.586
REMARK SMILES O=C(O)CCc1ccccc1
REMARK SMILES IDX 4 1 2 2 1 3 3 4 5 6 6 7 7 8 11 9 8 10 10 11 9 12
REMARK H PARENT 3 5
REMARK Flexibility Score: inf
ROOT
ATOM      1  C   UNL     1       8.197  -0.917  -1.879  1.00  0.00     0.127 C 
ENDROOT
BRANCH   1   2
ATOM      2  C   UNL     1       8.375  -2.021  -2.851  1.00  0.00     0.303 C 
ATOM      3  O   UNL     1       9.508  -2.515  -3.075  1.00  0.00    -0.252 OA
BRANCH   2   4
ATOM      4  O   UNL     1       7.292  -2.540  -3.543  1.00  0.00    -0.481 OA
ATOM      5  H   UNL     1       6.650  -3.177  -3.063  1.00  0.00     0.296 HD
ENDBRANCH   2   4
ENDBRANCH   1   2
BRANCH   1   6
ATOM      6  C   UNL     1       7.331  -1.410  -0.760  1.00  0.00     0.047 C 
BRANCH   6   7
ATOM      7  C   UNL     1       6.504  -0.372  -0.146  1.00  0.00    -0.047 A 
ATOM      8  C   UNL     1       6.232   0.798  -0.816  1.00  0.00     0.004 A 
ATOM      9  C   UNL     1       5.995  -0.578   1.115  1.00  0.00     0.004 A 
ATOM     10  C   UNL     1       5.435   1.745  -0.169  1.00  0.00     0.000 A 
ATOM     11  C   UNL     1       5.208   0.359   1.753  1.00  0.00     0.000 A 
ATOM     12  C   UNL     1       4.931   1.534   1.090  1.00  0.00     0.000 A 
ENDBRANCH   6   7
ENDBRANCH   1   6
TORSDOF 4
ENDMDL
MODEL 4
REMARK VINA RESULT:      -6.9      3.364      5.073
REMARK SMILES O=C(O)CCc1ccccc1
REMARK SMILES IDX 4 1 2 2 1 3 3 4 5 6 6 7 7 8 11 9 8 10 10 11 9 12
REMARK H PARENT 3 5
REMARK Flexibility Score: inf
ROOT
ATOM      1  C   UNL     1       4.996   1.736   0.667  1.00  0.00     0.127 C 
ENDROOT
BRANCH   1   2
ATOM      2  C   UNL     1       4.476   1.088   1.895  1.00  0.00     0.303 C 
ATOM      3  O   UNL     1       5.121   0.178   2.473  1.00  0.00    -0.252 OA
BRANCH   2   4
ATOM      4  O   UNL     1       3.261   1.470   2.439  1.00  0.00    -0.481 OA
ATOM      5  H   UNL     1       3.007   2.462   2.452  1.00  0.00     0.296 HD
ENDBRANCH   2   4
ENDBRANCH   1   2
BRANCH   1   6
ATOM      6  C   UNL     1       6.493   1.734   0.732  1.00  0.00     0.047 C 
BRANCH   6   7
ATOM      7  C   UNL     1       7.133   0.983  -0.346  1.00  0.00    -0.047 A 
ATOM      8  C   UNL     1       8.443   1.223  -0.690  1.00  0.00     0.004 A 
ATOM      9  C   UNL     1       6.410   0.025  -1.018  1.00  0.00     0.004 A 
ATOM     10  C   UNL     1       8.990   0.467  -1.729  1.00  0.00     0.000 A 
ATOM     11  C   UNL     1       6.952  -0.722  -2.045  1.00  0.00     0.000 A 
ATOM     12  C   UNL     1       8.264  -0.487  -2.396  1.00  0.00     0.000 A 
ENDBRANCH   6   7
ENDBRANCH   1   6
TORSDOF 4
ENDMDL
MODEL 5
REMARK VINA RESULT:      -6.6      3.824      4.947
REMARK SMILES O=C(O)CCc1ccccc1
REMARK SMILES IDX 4 1 2 2 1 3 3 4 5 6 6 7 7 8 11 9 8 10 10 11 9 12
REMARK H PARENT 3 5
REMARK Flexibility Score: inf
ROOT
ATOM      1  C   UNL     1       5.484   2.775  -0.026  1.00  0.00     0.127 C 
ENDROOT
BRANCH   1   2
ATOM      2  C   UNL     1       6.210   3.751   0.821  1.00  0.00     0.303 C 
ATOM      3  O   UNL     1       6.175   3.677   2.074  1.00  0.00    -0.252 OA
BRANCH   2   4
ATOM      4  O   UNL     1       6.950   4.775   0.251  1.00  0.00    -0.481 OA
ATOM      5  H   UNL     1       7.972   4.725   0.270  1.00  0.00     0.296 HD
ENDBRANCH   2   4
ENDBRANCH   1   2
BRANCH   1   6
ATOM      6  C   UNL     1       4.910   1.715   0.863  1.00  0.00     0.047 C 
BRANCH   6   7
ATOM      7  C   UNL     1       5.693   0.480   0.897  1.00  0.00    -0.047 A 
ATOM      8  C   UNL     1       6.313   0.009  -0.236  1.00  0.00     0.004 A 
ATOM      9  C   UNL     1       5.807  -0.209   2.082  1.00  0.00     0.004 A 
ATOM     10  C   UNL     1       7.044  -1.176  -0.130  1.00  0.00     0.000 A 
ATOM     11  C   UNL     1       6.531  -1.380   2.186  1.00  0.00     0.000 A 
ATOM     12  C   UNL     1       7.154  -1.860   1.055  1.00  0.00     0.000 A 
ENDBRANCH   6   7
ENDBRANCH   1   6
TORSDOF 4
ENDMDL
