@<TRIPOS>MOLECULE
/home/cewinharhar/GITHUB/reincatalyze/data/processed/docking_pred/2023-Apr-26-1657_maxeplen10_maxtrainstep1000_exh32_gamma099_lrac9e-4_lrcr1e-3/1444e75be78da7e2931ed2b5f85ad252461f0798_ligand_2.pdbqt
 12 12 0 0 0
SMALL
GASTEIGER

@<TRIPOS>ATOM
      1  C          5.4840    2.7750   -0.0260 C.3     1  UNL1        0.1270
      2  C          6.2100    3.7510    0.8210 C.2     1  UNL1        0.3030
      3  O          6.1750    3.6770    2.0740 O.2     1  UNL1       -0.2520
      4  O          6.9500    4.7750    0.2510 O.3     1  UNL1       -0.4810
      5  H          7.9720    4.7250    0.2700 H       1  UNL1        0.2960
      6  C          4.9100    1.7150    0.8630 C.3     1  UNL1        0.0470
      7  C          5.6930    0.4800    0.8970 C.2     1  UNL1       -0.0470
      8  C          6.3130    0.0090   -0.2360 C.2     1  UNL1        0.0040
      9  C          5.8070   -0.2090    2.0820 C.2     1  UNL1        0.0040
     10  C          7.0440   -1.1760   -0.1300 C.2     1  UNL1        0.0000
     11  C          6.5310   -1.3800    2.1860 C.2     1  UNL1        0.0000
     12  C          7.1540   -1.8600    1.0550 C.2     1  UNL1        0.0000
@<TRIPOS>BOND
     1     8    10    1
     2     8     7    2
     3    10    12    2
     4     1     2    1
     5     1     6    1
     6     4     5    1
     7     4     2    1
     8     2     3    2
     9     6     7    1
    10     7     9    1
    11    12    11    1
    12     9    11    2
