@<TRIPOS>MOLECULE
/home/cewinharhar/GITHUB/reincatalyze/data/processed/docking_pred/2023-Apr-26-1657_maxeplen10_maxtrainstep1000_exh32_gamma099_lrac9e-4_lrcr1e-3/1444e75be78da7e2931ed2b5f85ad252461f0798_ligand_2.pdbqt
 12 12 0 0 0
SMALL
GASTEIGER

@<TRIPOS>ATOM
      1  C          8.4250   -0.6760   -2.0150 C.3     1  UNL1        0.1270
      2  C          8.3780   -1.9010   -2.8480 C.2     1  UNL1        0.3030
      3  O          7.2840   -2.3950   -3.2170 O.2     1  UNL1       -0.2520
      4  O          9.5440   -2.5360   -3.2420 O.3     1  UNL1       -0.4810
      5  H         10.4470   -2.1490   -2.9560 H       1  UNL1        0.2960
      6  C          7.0710   -0.0340   -2.0450 C.3     1  UNL1        0.0470
      7  C          6.4470    0.0990   -0.7300 C.2     1  UNL1       -0.0470
      8  C          5.7910    1.2550   -0.3760 C.2     1  UNL1        0.0040
      9  C          6.5190   -0.9510    0.1570 C.2     1  UNL1        0.0040
     10  C          5.2170    1.3110    0.8960 C.2     1  UNL1        0.0000
     11  C          5.9510   -0.8930    1.4140 C.2     1  UNL1        0.0000
     12  C          5.2930    0.2620    1.7760 C.2     1  UNL1        0.0000
@<TRIPOS>BOND
     1     4     5    1
     2     4     2    1
     3     3     2    2
     4     2     1    1
     5     6     1    1
     6     6     7    1
     7     7     8    2
     8     7     9    1
     9     8    10    1
    10     9    11    2
    11    10    12    2
    12    11    12    1
