@<TRIPOS>MOLECULE
/home/cewinharhar/GITHUB/reincatalyze/data/processed/docking_pred/2023-Apr-26-1657_maxeplen10_maxtrainstep1000_exh32_gamma099_lrac9e-4_lrcr1e-3/16519f8051380dc2329c6f51dcb24a8f5dfeda31_ligand_2.pdbqt
 12 12 0 0 0
SMALL
GASTEIGER

@<TRIPOS>ATOM
      1  C          7.2900   -1.2450   -2.2250 C.3     1  UNL1        0.1270
      2  C          8.7310   -1.3380   -2.5570 C.2     1  UNL1        0.3030
      3  O          9.5470   -0.4670   -2.1650 O.2     1  UNL1       -0.2520
      4  O          9.2190   -2.3930   -3.3120 O.3     1  UNL1       -0.4810
      5  H         10.1010   -2.2800   -3.8190 H       1  UNL1        0.2960
      6  C          7.1380   -1.3860   -0.7410 C.3     1  UNL1        0.0470
      7  C          6.3920   -0.2970   -0.1140 C.2     1  UNL1       -0.0470
      8  C          5.9650   -0.3970    1.1900 C.2     1  UNL1        0.0040
      9  C          6.1200    0.8380   -0.8430 C.2     1  UNL1        0.0040
     10  C          5.2580    0.6830    1.7250 C.2     1  UNL1        0.0000
     11  C          5.4210    1.9040   -0.3120 C.2     1  UNL1        0.0000
     12  C          4.9890    1.8120    0.9930 C.2     1  UNL1        0.0000
@<TRIPOS>BOND
     1     5     4    1
     2     4     2    1
     3     2     1    1
     4     2     3    2
     5     1     6    1
     6     9    11    1
     7     9     7    2
     8     6     7    1
     9    11    12    2
    10     7     8    1
    11    12    10    1
    12     8    10    2
