@<TRIPOS>MOLECULE
/home/cewinharhar/GITHUB/reincatalyze/data/processed/docking_pred/2023-Apr-26-1657_maxeplen10_maxtrainstep1000_exh32_gamma099_lrac9e-4_lrcr1e-3/16519f8051380dc2329c6f51dcb24a8f5dfeda31_ligand_2.pdbqt
 12 12 0 0 0
SMALL
GASTEIGER

@<TRIPOS>ATOM
      1  C          8.4300   -0.5940   -2.1810 C.3     1  UNL1        0.1270
      2  C          8.4840   -1.8830   -2.9090 C.2     1  UNL1        0.3030
      3  O          9.5720   -2.4820   -3.0930 O.2     1  UNL1       -0.2520
      4  O          7.3300   -2.4650   -3.4090 O.3     1  UNL1       -0.4810
      5  H          7.3680   -3.4210   -3.7740 H       1  UNL1        0.2960
      6  C          7.0050   -0.1320   -2.1450 C.3     1  UNL1        0.0470
      7  C          6.4730    0.0510   -0.7960 C.2     1  UNL1       -0.0470
      8  C          5.8430    1.2220   -0.4420 C.2     1  UNL1        0.0040
      9  C          6.6080   -0.9640    0.1220 C.2     1  UNL1        0.0040
     10  C          5.3590    1.3280    0.8640 C.2     1  UNL1        0.0000
     11  C          6.1290   -0.8580    1.4130 C.2     1  UNL1        0.0000
     12  C          5.4970    0.3120    1.7760 C.2     1  UNL1        0.0000
@<TRIPOS>BOND
     1     5     4    1
     2     4     2    1
     3     3     2    2
     4     2     1    1
     5     1     6    1
     6     6     7    1
     7     7     8    2
     8     7     9    1
     9     8    10    1
    10     9    11    2
    11    10    12    2
    12    11    12    1
