@<TRIPOS>MOLECULE
/home/cewinharhar/GITHUB/reincatalyze/data/processed/docking_pred/2023-Apr-26-1657_maxeplen10_maxtrainstep1000_exh32_gamma099_lrac9e-4_lrcr1e-3/16519f8051380dc2329c6f51dcb24a8f5dfeda31_ligand_2.pdbqt
 12 12 0 0 0
SMALL
GASTEIGER

@<TRIPOS>ATOM
      1  C          4.9880    1.8020    0.7010 C.3     1  UNL1        0.1270
      2  C          4.4850    1.1060    1.9090 C.2     1  UNL1        0.3030
      3  O          5.1530    0.1980    2.4630 O.2     1  UNL1       -0.2520
      4  O          3.2590    1.4400    2.4620 O.3     1  UNL1       -0.4810
      5  H          3.1940    2.2510    3.0840 H       1  UNL1        0.2960
      6  C          6.4850    1.7990    0.7460 C.3     1  UNL1        0.0470
      7  C          7.1100    1.0480   -0.3420 C.2     1  UNL1       -0.0470
      8  C          6.3720    0.1800   -1.1120 C.2     1  UNL1        0.0040
      9  C          8.4520    1.2200   -0.5920 C.2     1  UNL1        0.0040
     10  C          7.0350   -0.5040   -2.1340 C.2     1  UNL1        0.0000
     11  C          9.1060    0.5430   -1.6030 C.2     1  UNL1        0.0000
     12  C          8.3740   -0.3290   -2.3780 C.2     1  UNL1        0.0000
@<TRIPOS>BOND
     1    12    10    2
     2    12    11    1
     3    10     8    1
     4    11     9    2
     5     8     7    2
     6     9     7    1
     7     7     6    1
     8     1     6    1
     9     1     2    1
    10     2     4    1
    11     2     3    2
    12     4     5    1
