@<TRIPOS>MOLECULE
/home/cewinharhar/GITHUB/reincatalyze/data/processed/docking_pred/2023-Apr-26-1657_maxeplen10_maxtrainstep1000_exh32_gamma099_lrac9e-4_lrcr1e-3/16519f8051380dc2329c6f51dcb24a8f5dfeda31_ligand_2.pdbqt
 12 12 0 0 0
SMALL
GASTEIGER

@<TRIPOS>ATOM
      1  C          8.1760    0.3060   -2.0450 C.3     1  UNL1        0.1270
      2  C          9.3700    0.3810   -1.1710 C.2     1  UNL1        0.3030
      3  O          9.4970   -0.3760   -0.1770 O.2     1  UNL1       -0.2520
      4  O         10.3820    1.2920   -1.4280 O.3     1  UNL1       -0.4810
      5  H         10.1450    2.2050   -1.8240 H       1  UNL1        0.2960
      6  C          7.1630   -0.5780   -1.3840 C.3     1  UNL1        0.0470
      7  C          6.3660    0.0950   -0.3590 C.2     1  UNL1       -0.0470
      8  C          6.1620   -0.4890    0.8690 C.2     1  UNL1        0.0040
      9  C          5.8200    1.3270   -0.6350 C.2     1  UNL1        0.0040
     10  C          5.3910    0.2110    1.8000 C.2     1  UNL1        0.0000
     11  C          5.0570    2.0180    0.2860 C.2     1  UNL1        0.0000
     12  C          4.8480    1.4390    1.5190 C.2     1  UNL1        0.0000
@<TRIPOS>BOND
     1     1     6    1
     2     1     2    1
     3     5     4    1
     4     4     2    1
     5     6     7    1
     6     2     3    2
     7     9     7    2
     8     9    11    1
     9     7     8    1
    10    11    12    2
    11     8    10    2
    12    12    10    1
