MODEL 1
REMARK VINA RESULT:      -7.3      0.000      0.000
REMARK SMILES O=C(O)CCc1ccccc1
REMARK SMILES IDX 4 1 2 2 1 3 3 4 5 6 6 7 7 8 11 9 8 10 10 11 9 12
REMARK H PARENT 3 5
REMARK Flexibility Score: inf
ROOT
ATOM      1  C   UNL     1       8.430  -0.594  -2.181  1.00  0.00     0.127 C 
ENDROOT
BRANCH   1   2
ATOM      2  C   UNL     1       8.484  -1.883  -2.909  1.00  0.00     0.303 C 
ATOM      3  O   UNL     1       9.572  -2.482  -3.093  1.00  0.00    -0.252 OA
BRANCH   2   4
ATOM      4  O   UNL     1       7.330  -2.465  -3.409  1.00  0.00    -0.481 OA
ATOM      5  H   UNL     1       7.368  -3.421  -3.774  1.00  0.00     0.296 HD
ENDBRANCH   2   4
ENDBRANCH   1   2
BRANCH   1   6
ATOM      6  C   UNL     1       7.005  -0.132  -2.145  1.00  0.00     0.047 C 
BRANCH   6   7
ATOM      7  C   UNL     1       6.473   0.051  -0.796  1.00  0.00    -0.047 A 
ATOM      8  C   UNL     1       5.843   1.222  -0.442  1.00  0.00     0.004 A 
ATOM      9  C   UNL     1       6.608  -0.964   0.122  1.00  0.00     0.004 A 
ATOM     10  C   UNL     1       5.359   1.328   0.864  1.00  0.00     0.000 A 
ATOM     11  C   UNL     1       6.129  -0.858   1.413  1.00  0.00     0.000 A 
ATOM     12  C   UNL     1       5.497   0.312   1.776  1.00  0.00     0.000 A 
ENDBRANCH   6   7
ENDBRANCH   1   6
TORSDOF 4
ENDMDL
MODEL 2
REMARK VINA RESULT:      -7.3      0.204      1.737
REMARK SMILES O=C(O)CCc1ccccc1
REMARK SMILES IDX 4 1 2 2 1 3 3 4 5 6 6 7 7 8 11 9 8 10 10 11 9 12
REMARK H PARENT 3 5
REMARK Flexibility Score: inf
ROOT
ATOM      1  C   UNL     1       8.435  -0.647  -2.091  1.00  0.00     0.127 C 
ENDROOT
BRANCH   1   2
ATOM      2  C   UNL     1       8.385  -1.899  -2.882  1.00  0.00     0.303 C 
ATOM      3  O   UNL     1       7.290  -2.408  -3.227  1.00  0.00    -0.252 OA
BRANCH   2   4
ATOM      4  O   UNL     1       9.550  -2.544  -3.265  1.00  0.00    -0.481 OA
ATOM      5  H   UNL     1       9.493  -3.481  -3.674  1.00  0.00     0.296 HD
ENDBRANCH   2   4
ENDBRANCH   1   2
BRANCH   1   6
ATOM      6  C   UNL     1       7.072  -0.024  -2.110  1.00  0.00     0.047 C 
BRANCH   6   7
ATOM      7  C   UNL     1       6.482   0.154  -0.784  1.00  0.00    -0.047 A 
ATOM      8  C   UNL     1       6.636  -0.805   0.189  1.00  0.00     0.004 A 
ATOM      9  C   UNL     1       5.768   1.299  -0.516  1.00  0.00     0.004 A 
ATOM     10  C   UNL     1       6.046  -0.568   1.432  1.00  0.00     0.000 A 
ATOM     11  C   UNL     1       5.184   1.532   0.714  1.00  0.00     0.000 A 
ATOM     12  C   UNL     1       5.333   0.575   1.694  1.00  0.00     0.000 A 
ENDBRANCH   6   7
ENDBRANCH   1   6
TORSDOF 4
ENDMDL
MODEL 3
REMARK VINA RESULT:      -7.0      0.981      1.906
REMARK SMILES O=C(O)CCc1ccccc1
REMARK SMILES IDX 4 1 2 2 1 3 3 4 5 6 6 7 7 8 11 9 8 10 10 11 9 12
REMARK H PARENT 3 5
REMARK Flexibility Score: inf
ROOT
ATOM      1  C   UNL     1       7.290  -1.245  -2.225  1.00  0.00     0.127 C 
ENDROOT
BRANCH   1   2
ATOM      2  C   UNL     1       8.731  -1.338  -2.557  1.00  0.00     0.303 C 
ATOM      3  O   UNL     1       9.547  -0.467  -2.165  1.00  0.00    -0.252 OA
BRANCH   2   4
ATOM      4  O   UNL     1       9.219  -2.393  -3.312  1.00  0.00    -0.481 OA
ATOM      5  H   UNL     1      10.101  -2.280  -3.819  1.00  0.00     0.296 HD
ENDBRANCH   2   4
ENDBRANCH   1   2
BRANCH   1   6
ATOM      6  C   UNL     1       7.138  -1.386  -0.741  1.00  0.00     0.047 C 
BRANCH   6   7
ATOM      7  C   UNL     1       6.392  -0.297  -0.114  1.00  0.00    -0.047 A 
ATOM      8  C   UNL     1       5.965  -0.397   1.190  1.00  0.00     0.004 A 
ATOM      9  C   UNL     1       6.120   0.838  -0.843  1.00  0.00     0.004 A 
ATOM     10  C   UNL     1       5.258   0.683   1.725  1.00  0.00     0.000 A 
ATOM     11  C   UNL     1       5.421   1.904  -0.312  1.00  0.00     0.000 A 
ATOM     12  C   UNL     1       4.989   1.812   0.993  1.00  0.00     0.000 A 
ENDBRANCH   6   7
ENDBRANCH   1   6
TORSDOF 4
ENDMDL
MODEL 4
REMARK VINA RESULT:      -6.8      3.379      5.076
REMARK SMILES O=C(O)CCc1ccccc1
REMARK SMILES IDX 4 1 2 2 1 3 3 4 5 6 6 7 7 8 11 9 8 10 10 11 9 12
REMARK H PARENT 3 5
REMARK Flexibility Score: inf
ROOT
ATOM      1  C   UNL     1       4.988   1.802   0.701  1.00  0.00     0.127 C 
ENDROOT
BRANCH   1   2
ATOM      2  C   UNL     1       4.485   1.106   1.909  1.00  0.00     0.303 C 
ATOM      3  O   UNL     1       5.153   0.198   2.463  1.00  0.00    -0.252 OA
BRANCH   2   4
ATOM      4  O   UNL     1       3.259   1.440   2.462  1.00  0.00    -0.481 OA
ATOM      5  H   UNL     1       3.194   2.251   3.084  1.00  0.00     0.296 HD
ENDBRANCH   2   4
ENDBRANCH   1   2
BRANCH   1   6
ATOM      6  C   UNL     1       6.485   1.799   0.746  1.00  0.00     0.047 C 
BRANCH   6   7
ATOM      7  C   UNL     1       7.110   1.048  -0.342  1.00  0.00    -0.047 A 
ATOM      8  C   UNL     1       6.372   0.180  -1.112  1.00  0.00     0.004 A 
ATOM      9  C   UNL     1       8.452   1.220  -0.592  1.00  0.00     0.004 A 
ATOM     10  C   UNL     1       7.035  -0.504  -2.134  1.00  0.00     0.000 A 
ATOM     11  C   UNL     1       9.106   0.543  -1.603  1.00  0.00     0.000 A 
ATOM     12  C   UNL     1       8.374  -0.329  -2.378  1.00  0.00     0.000 A 
ENDBRANCH   6   7
ENDBRANCH   1   6
TORSDOF 4
ENDMDL
MODEL 5
REMARK VINA RESULT:      -6.7      1.958      2.644
REMARK SMILES O=C(O)CCc1ccccc1
REMARK SMILES IDX 4 1 2 2 1 3 3 4 5 6 6 7 7 8 11 9 8 10 10 11 9 12
REMARK H PARENT 3 5
REMARK Flexibility Score: inf
ROOT
ATOM      1  C   UNL     1       8.176   0.306  -2.045  1.00  0.00     0.127 C 
ENDROOT
BRANCH   1   2
ATOM      2  C   UNL     1       9.370   0.381  -1.171  1.00  0.00     0.303 C 
ATOM      3  O   UNL     1       9.497  -0.376  -0.177  1.00  0.00    -0.252 OA
BRANCH   2   4
ATOM      4  O   UNL     1      10.382   1.292  -1.428  1.00  0.00    -0.481 OA
ATOM      5  H   UNL     1      10.145   2.205  -1.824  1.00  0.00     0.296 HD
ENDBRANCH   2   4
ENDBRANCH   1   2
BRANCH   1   6
ATOM      6  C   UNL     1       7.163  -0.578  -1.384  1.00  0.00     0.047 C 
BRANCH   6   7
ATOM      7  C   UNL     1       6.366   0.095  -0.359  1.00  0.00    -0.047 A 
ATOM      8  C   UNL     1       6.162  -0.489   0.869  1.00  0.00     0.004 A 
ATOM      9  C   UNL     1       5.820   1.327  -0.635  1.00  0.00     0.004 A 
ATOM     10  C   UNL     1       5.391   0.211   1.800  1.00  0.00     0.000 A 
ATOM     11  C   UNL     1       5.057   2.018   0.286  1.00  0.00     0.000 A 
ATOM     12  C   UNL     1       4.848   1.439   1.519  1.00  0.00     0.000 A 
ENDBRANCH   6   7
ENDBRANCH   1   6
TORSDOF 4
ENDMDL
