@<TRIPOS>MOLECULE
/home/cewinharhar/GITHUB/reincatalyze/data/processed/docking_pred/2023-Apr-26-1657_maxeplen10_maxtrainstep1000_exh32_gamma099_lrac9e-4_lrcr1e-3/16519f8051380dc2329c6f51dcb24a8f5dfeda31_ligand_2.pdbqt
 12 12 0 0 0
SMALL
GASTEIGER

@<TRIPOS>ATOM
      1  C          8.4350   -0.6470   -2.0910 C.3     1  UNL1        0.1270
      2  C          8.3850   -1.8990   -2.8820 C.2     1  UNL1        0.3030
      3  O          7.2900   -2.4080   -3.2270 O.2     1  UNL1       -0.2520
      4  O          9.5500   -2.5440   -3.2650 O.3     1  UNL1       -0.4810
      5  H          9.4930   -3.4810   -3.6740 H       1  UNL1        0.2960
      6  C          7.0720   -0.0240   -2.1100 C.3     1  UNL1        0.0470
      7  C          6.4820    0.1540   -0.7840 C.2     1  UNL1       -0.0470
      8  C          6.6360   -0.8050    0.1890 C.2     1  UNL1        0.0040
      9  C          5.7680    1.2990   -0.5160 C.2     1  UNL1        0.0040
     10  C          6.0460   -0.5680    1.4320 C.2     1  UNL1        0.0000
     11  C          5.1840    1.5320    0.7140 C.2     1  UNL1        0.0000
     12  C          5.3330    0.5750    1.6940 C.2     1  UNL1        0.0000
@<TRIPOS>BOND
     1     5     4    1
     2     4     2    1
     3     3     2    2
     4     2     1    1
     5     6     1    1
     6     6     7    1
     7     7     9    2
     8     7     8    1
     9     9    11    1
    10     8    10    2
    11    11    12    2
    12    10    12    1
