MODEL 1
REMARK VINA RESULT:      -7.3      0.000      0.000
REMARK SMILES O=C(O)CCc1ccccc1
REMARK SMILES IDX 4 1 2 2 1 3 3 4 5 6 6 7 7 8 11 9 8 10 10 11 9 12
REMARK H PARENT 3 5
REMARK Flexibility Score: inf
ROOT
ATOM      1  C   UNL     1       8.443  -0.581  -2.210  1.00  0.00     0.127 C 
ENDROOT
BRANCH   1   2
ATOM      2  C   UNL     1       8.485  -1.879  -2.924  1.00  0.00     0.303 C 
ATOM      3  O   UNL     1       9.566  -2.496  -3.089  1.00  0.00    -0.252 OA
BRANCH   2   4
ATOM      4  O   UNL     1       7.328  -2.448  -3.432  1.00  0.00    -0.481 OA
ATOM      5  H   UNL     1       6.597  -2.756  -2.785  1.00  0.00     0.296 HD
ENDBRANCH   2   4
ENDBRANCH   1   2
BRANCH   1   6
ATOM      6  C   UNL     1       7.018  -0.120  -2.155  1.00  0.00     0.047 C 
BRANCH   6   7
ATOM      7  C   UNL     1       6.491   0.022  -0.799  1.00  0.00    -0.047 A 
ATOM      8  C   UNL     1       6.608  -1.002   0.112  1.00  0.00     0.004 A 
ATOM      9  C   UNL     1       5.874   1.197  -0.438  1.00  0.00     0.004 A 
ATOM     10  C   UNL     1       6.083  -0.797   1.390  1.00  0.00     0.000 A 
ATOM     11  C   UNL     1       5.355   1.399   0.826  1.00  0.00     0.000 A 
ATOM     12  C   UNL     1       5.468   0.378   1.744  1.00  0.00     0.000 A 
ENDBRANCH   6   7
ENDBRANCH   1   6
TORSDOF 4
ENDMDL
MODEL 2
REMARK VINA RESULT:      -7.3      0.126      1.731
REMARK SMILES O=C(O)CCc1ccccc1
REMARK SMILES IDX 4 1 2 2 1 3 3 4 5 6 6 7 7 8 11 9 8 10 10 11 9 12
REMARK H PARENT 3 5
REMARK Flexibility Score: inf
ROOT
ATOM      1  C   UNL     1       8.422  -0.628  -2.096  1.00  0.00     0.127 C 
ENDROOT
BRANCH   1   2
ATOM      2  C   UNL     1       8.383  -1.886  -2.878  1.00  0.00     0.303 C 
ATOM      3  O   UNL     1       7.293  -2.407  -3.220  1.00  0.00    -0.252 OA
BRANCH   2   4
ATOM      4  O   UNL     1       9.554  -2.526  -3.253  1.00  0.00    -0.481 OA
ATOM      5  H   UNL     1       9.595  -3.548  -3.232  1.00  0.00     0.296 HD
ENDBRANCH   2   4
ENDBRANCH   1   2
BRANCH   1   6
ATOM      6  C   UNL     1       7.045  -0.037  -2.087  1.00  0.00     0.047 C 
BRANCH   6   7
ATOM      7  C   UNL     1       6.471   0.110  -0.750  1.00  0.00    -0.047 A 
ATOM      8  C   UNL     1       5.815   1.264  -0.390  1.00  0.00     0.004 A 
ATOM      9  C   UNL     1       6.591  -0.924   0.149  1.00  0.00     0.004 A 
ATOM     10  C   UNL     1       5.290   1.334   0.903  1.00  0.00     0.000 A 
ATOM     11  C   UNL     1       6.072  -0.853   1.427  1.00  0.00     0.000 A 
ATOM     12  C   UNL     1       5.414   0.300   1.796  1.00  0.00     0.000 A 
ENDBRANCH   6   7
ENDBRANCH   1   6
TORSDOF 4
ENDMDL
MODEL 3
REMARK VINA RESULT:      -6.8      3.375      5.070
REMARK SMILES O=C(O)CCc1ccccc1
REMARK SMILES IDX 4 1 2 2 1 3 3 4 5 6 6 7 7 8 11 9 8 10 10 11 9 12
REMARK H PARENT 3 5
REMARK Flexibility Score: inf
ROOT
ATOM      1  C   UNL     1       5.018   1.776   0.665  1.00  0.00     0.127 C 
ENDROOT
BRANCH   1   2
ATOM      2  C   UNL     1       4.512   1.114   1.891  1.00  0.00     0.303 C 
ATOM      3  O   UNL     1       5.181   0.225   2.473  1.00  0.00    -0.252 OA
BRANCH   2   4
ATOM      4  O   UNL     1       3.283   1.460   2.429  1.00  0.00    -0.481 OA
ATOM      5  H   UNL     1       2.714   2.172   1.963  1.00  0.00     0.296 HD
ENDBRANCH   2   4
ENDBRANCH   1   2
BRANCH   1   6
ATOM      6  C   UNL     1       6.515   1.797   0.725  1.00  0.00     0.047 C 
BRANCH   6   7
ATOM      7  C   UNL     1       7.163   1.045  -0.348  1.00  0.00    -0.047 A 
ATOM      8  C   UNL     1       8.495   1.235  -0.635  1.00  0.00     0.004 A 
ATOM      9  C   UNL     1       6.425   0.137  -1.072  1.00  0.00     0.004 A 
ATOM     10  C   UNL     1       9.049   0.481  -1.672  1.00  0.00     0.000 A 
ATOM     11  C   UNL     1       6.974  -0.607  -2.098  1.00  0.00     0.000 A 
ATOM     12  C   UNL     1       8.308  -0.422  -2.392  1.00  0.00     0.000 A 
ENDBRANCH   6   7
ENDBRANCH   1   6
TORSDOF 4
ENDMDL
MODEL 4
REMARK VINA RESULT:      -6.7      3.828      4.913
REMARK SMILES O=C(O)CCc1ccccc1
REMARK SMILES IDX 4 1 2 2 1 3 3 4 5 6 6 7 7 8 11 9 8 10 10 11 9 12
REMARK H PARENT 3 5
REMARK Flexibility Score: inf
ROOT
ATOM      1  C   UNL     1       5.558   2.747  -0.056  1.00  0.00     0.127 C 
ENDROOT
BRANCH   1   2
ATOM      2  C   UNL     1       6.218   3.764   0.796  1.00  0.00     0.303 C 
ATOM      3  O   UNL     1       6.105   3.739   2.047  1.00  0.00    -0.252 OA
BRANCH   2   4
ATOM      4  O   UNL     1       6.982   4.774   0.233  1.00  0.00    -0.481 OA
ATOM      5  H   UNL     1       6.540   5.671   0.011  1.00  0.00     0.296 HD
ENDBRANCH   2   4
ENDBRANCH   1   2
BRANCH   1   6
ATOM      6  C   UNL     1       4.949   1.709   0.837  1.00  0.00     0.047 C 
BRANCH   6   7
ATOM      7  C   UNL     1       5.732   0.478   0.938  1.00  0.00    -0.047 A 
ATOM      8  C   UNL     1       5.786  -0.226   2.118  1.00  0.00     0.004 A 
ATOM      9  C   UNL     1       6.417   0.026  -0.166  1.00  0.00     0.004 A 
ATOM     10  C   UNL     1       6.552  -1.394   2.142  1.00  0.00     0.000 A 
ATOM     11  C   UNL     1       7.175  -1.128  -0.140  1.00  0.00     0.000 A 
ATOM     12  C   UNL     1       7.235  -1.839   1.039  1.00  0.00     0.000 A 
ENDBRANCH   6   7
ENDBRANCH   1   6
TORSDOF 4
ENDMDL
MODEL 5
REMARK VINA RESULT:      -6.5      2.088      2.748
REMARK SMILES O=C(O)CCc1ccccc1
REMARK SMILES IDX 4 1 2 2 1 3 3 4 5 6 6 7 7 8 11 9 8 10 10 11 9 12
REMARK H PARENT 3 5
REMARK Flexibility Score: inf
ROOT
ATOM      1  C   UNL     1       8.485   0.685  -1.655  1.00  0.00     0.127 C 
ENDROOT
BRANCH   1   2
ATOM      2  C   UNL     1       9.638   0.298  -0.808  1.00  0.00     0.303 C 
ATOM      3  O   UNL     1       9.504  -0.509   0.145  1.00  0.00    -0.252 OA
BRANCH   2   4
ATOM      4  O   UNL     1      10.900   0.818  -1.046  1.00  0.00    -0.481 OA
ATOM      5  H   UNL     1      11.721   0.221  -0.911  1.00  0.00     0.296 HD
ENDBRANCH   2   4
ENDBRANCH   1   2
BRANCH   1   6
ATOM      6  C   UNL     1       7.331  -0.209  -1.317  1.00  0.00     0.047 C 
BRANCH   6   7
ATOM      7  C   UNL     1       6.426   0.344  -0.311  1.00  0.00    -0.047 A 
ATOM      8  C   UNL     1       5.803   1.553  -0.514  1.00  0.00     0.004 A 
ATOM      9  C   UNL     1       6.199  -0.362   0.848  1.00  0.00     0.004 A 
ATOM     10  C   UNL     1       4.950   2.019   0.490  1.00  0.00     0.000 A 
ATOM     11  C   UNL     1       5.356   0.100   1.839  1.00  0.00     0.000 A 
ATOM     12  C   UNL     1       4.729   1.312   1.644  1.00  0.00     0.000 A 
ENDBRANCH   6   7
ENDBRANCH   1   6
TORSDOF 4
ENDMDL
