@<TRIPOS>MOLECULE
/home/cewinharhar/GITHUB/reincatalyze/data/processed/docking_pred/2023-Apr-26-1657_maxeplen10_maxtrainstep1000_exh32_gamma099_lrac9e-4_lrcr1e-3/1a0a4210c7fbec369f44508687af2363e72d8760_ligand_2.pdbqt
 12 12 0 0 0
SMALL
GASTEIGER

@<TRIPOS>ATOM
      1  C          8.4430   -0.5810   -2.2100 C.3     1  UNL1        0.1270
      2  C          8.4850   -1.8790   -2.9240 C.2     1  UNL1        0.3030
      3  O          9.5660   -2.4960   -3.0890 O.2     1  UNL1       -0.2520
      4  O          7.3280   -2.4480   -3.4320 O.3     1  UNL1       -0.4810
      5  H          6.5970   -2.7560   -2.7850 H       1  UNL1        0.2960
      6  C          7.0180   -0.1200   -2.1550 C.3     1  UNL1        0.0470
      7  C          6.4910    0.0220   -0.7990 C.2     1  UNL1       -0.0470
      8  C          6.6080   -1.0020    0.1120 C.2     1  UNL1        0.0040
      9  C          5.8740    1.1970   -0.4380 C.2     1  UNL1        0.0040
     10  C          6.0830   -0.7970    1.3900 C.2     1  UNL1        0.0000
     11  C          5.3550    1.3990    0.8260 C.2     1  UNL1        0.0000
     12  C          5.4680    0.3780    1.7440 C.2     1  UNL1        0.0000
@<TRIPOS>BOND
     1     4     2    1
     2     4     5    1
     3     3     2    2
     4     2     1    1
     5     1     6    1
     6     6     7    1
     7     7     9    2
     8     7     8    1
     9     9    11    1
    10     8    10    2
    11    11    12    2
    12    10    12    1
