@<TRIPOS>MOLECULE
/home/cewinharhar/GITHUB/reincatalyze/data/processed/docking_pred/2023-Apr-26-1657_maxeplen10_maxtrainstep1000_exh32_gamma099_lrac9e-4_lrcr1e-3/1a0a4210c7fbec369f44508687af2363e72d8760_ligand_2.pdbqt
 12 12 0 0 0
SMALL
GASTEIGER

@<TRIPOS>ATOM
      1  C          5.0180    1.7760    0.6650 C.3     1  UNL1        0.1270
      2  C          4.5120    1.1140    1.8910 C.2     1  UNL1        0.3030
      3  O          5.1810    0.2250    2.4730 O.2     1  UNL1       -0.2520
      4  O          3.2830    1.4600    2.4290 O.3     1  UNL1       -0.4810
      5  H          2.7140    2.1720    1.9630 H       1  UNL1        0.2960
      6  C          6.5150    1.7970    0.7250 C.3     1  UNL1        0.0470
      7  C          7.1630    1.0450   -0.3480 C.2     1  UNL1       -0.0470
      8  C          8.4950    1.2350   -0.6350 C.2     1  UNL1        0.0040
      9  C          6.4250    0.1370   -1.0720 C.2     1  UNL1        0.0040
     10  C          9.0490    0.4810   -1.6720 C.2     1  UNL1        0.0000
     11  C          6.9740   -0.6070   -2.0980 C.2     1  UNL1        0.0000
     12  C          8.3080   -0.4220   -2.3920 C.2     1  UNL1        0.0000
@<TRIPOS>BOND
     1    12    11    2
     2    12    10    1
     3    11     9    1
     4    10     8    2
     5     9     7    2
     6     8     7    1
     7     7     6    1
     8     1     6    1
     9     1     2    1
    10     2     4    1
    11     2     3    2
    12     5     4    1
