@<TRIPOS>MOLECULE
/home/cewinharhar/GITHUB/reincatalyze/data/processed/docking_pred/2023-Apr-26-1657_maxeplen10_maxtrainstep1000_exh32_gamma099_lrac9e-4_lrcr1e-3/1a0a4210c7fbec369f44508687af2363e72d8760_ligand_2.pdbqt
 12 12 0 0 0
SMALL
GASTEIGER

@<TRIPOS>ATOM
      1  C          5.5580    2.7470   -0.0560 C.3     1  UNL1        0.1270
      2  C          6.2180    3.7640    0.7960 C.2     1  UNL1        0.3030
      3  O          6.1050    3.7390    2.0470 O.2     1  UNL1       -0.2520
      4  O          6.9820    4.7740    0.2330 O.3     1  UNL1       -0.4810
      5  H          6.5400    5.6710    0.0110 H       1  UNL1        0.2960
      6  C          4.9490    1.7090    0.8370 C.3     1  UNL1        0.0470
      7  C          5.7320    0.4780    0.9380 C.2     1  UNL1       -0.0470
      8  C          5.7860   -0.2260    2.1180 C.2     1  UNL1        0.0040
      9  C          6.4170    0.0260   -0.1660 C.2     1  UNL1        0.0040
     10  C          6.5520   -1.3940    2.1420 C.2     1  UNL1        0.0000
     11  C          7.1750   -1.1280   -0.1400 C.2     1  UNL1        0.0000
     12  C          7.2350   -1.8390    1.0390 C.2     1  UNL1        0.0000
@<TRIPOS>BOND
     1     9    11    1
     2     9     7    2
     3    11    12    2
     4     1     2    1
     5     1     6    1
     6     5     4    1
     7     4     2    1
     8     2     3    2
     9     6     7    1
    10     7     8    1
    11    12    10    1
    12     8    10    2
