@<TRIPOS>MOLECULE
/home/cewinharhar/GITHUB/reincatalyze/data/processed/docking_pred/2023-Apr-26-1657_maxeplen10_maxtrainstep1000_exh32_gamma099_lrac9e-4_lrcr1e-3/1a0a4210c7fbec369f44508687af2363e72d8760_ligand_2.pdbqt
 12 12 0 0 0
SMALL
GASTEIGER

@<TRIPOS>ATOM
      1  C          8.4850    0.6850   -1.6550 C.3     1  UNL1        0.1270
      2  C          9.6380    0.2980   -0.8080 C.2     1  UNL1        0.3030
      3  O          9.5040   -0.5090    0.1450 O.2     1  UNL1       -0.2520
      4  O         10.9000    0.8180   -1.0460 O.3     1  UNL1       -0.4810
      5  H         11.7210    0.2210   -0.9110 H       1  UNL1        0.2960
      6  C          7.3310   -0.2090   -1.3170 C.3     1  UNL1        0.0470
      7  C          6.4260    0.3440   -0.3110 C.2     1  UNL1       -0.0470
      8  C          5.8030    1.5530   -0.5140 C.2     1  UNL1        0.0040
      9  C          6.1990   -0.3620    0.8480 C.2     1  UNL1        0.0040
     10  C          4.9500    2.0190    0.4900 C.2     1  UNL1        0.0000
     11  C          5.3560    0.1000    1.8390 C.2     1  UNL1        0.0000
     12  C          4.7290    1.3120    1.6440 C.2     1  UNL1        0.0000
@<TRIPOS>BOND
     1     1     6    1
     2     1     2    1
     3     6     7    1
     4     4     5    1
     5     4     2    1
     6     2     3    2
     7     8     7    2
     8     8    10    1
     9     7     9    1
    10    10    12    2
    11     9    11    2
    12    12    11    1
