@<TRIPOS>MOLECULE
/home/cewinharhar/GITHUB/reincatalyze/data/processed/docking_pred/2023-Apr-26-1657_maxeplen10_maxtrainstep1000_exh32_gamma099_lrac9e-4_lrcr1e-3/1b5ae47dc41e9fd81b532b383f57e012b2e09fc7_ligand_2.pdbqt
 12 12 0 0 0
SMALL
GASTEIGER

@<TRIPOS>ATOM
      1  C          8.4100   -0.6550   -2.0750 C.3     1  UNL1        0.1270
      2  C          8.3770   -1.9020   -2.8750 C.2     1  UNL1        0.3030
      3  O          7.2890   -2.4110   -3.2420 O.2     1  UNL1       -0.2520
      4  O          9.5500   -2.5420   -3.2410 O.3     1  UNL1       -0.4810
      5  H         10.4340   -2.2480   -2.8180 H       1  UNL1        0.2960
      6  C          7.0340   -0.0620   -2.0710 C.3     1  UNL1        0.0470
      7  C          6.4620    0.1030   -0.7350 C.2     1  UNL1       -0.0470
      8  C          5.8050    1.2610   -0.3900 C.2     1  UNL1        0.0040
      9  C          6.5850   -0.9180    0.1780 C.2     1  UNL1        0.0040
     10  C          5.2830    1.3490    0.9030 C.2     1  UNL1        0.0000
     11  C          6.0680   -0.8290    1.4560 C.2     1  UNL1        0.0000
     12  C          5.4100    0.3280    1.8110 C.2     1  UNL1        0.0000
@<TRIPOS>BOND
     1     3     2    2
     2     4     2    1
     3     4     5    1
     4     2     1    1
     5     1     6    1
     6     6     7    1
     7     7     8    2
     8     7     9    1
     9     8    10    1
    10     9    11    2
    11    10    12    2
    12    11    12    1
