@<TRIPOS>MOLECULE
/home/cewinharhar/GITHUB/reincatalyze/data/processed/docking_pred/2023-Apr-26-1657_maxeplen10_maxtrainstep1000_exh32_gamma099_lrac9e-4_lrcr1e-3/1b5ae47dc41e9fd81b532b383f57e012b2e09fc7_ligand_2.pdbqt
 12 12 0 0 0
SMALL
GASTEIGER

@<TRIPOS>ATOM
      1  C          8.4920   -0.5500   -2.2300 C.3     1  UNL1        0.1270
      2  C          8.5090   -1.8550   -2.9310 C.2     1  UNL1        0.3030
      3  O          9.5800   -2.4900   -3.0980 O.2     1  UNL1       -0.2520
      4  O          7.3400   -2.4110   -3.4240 O.3     1  UNL1       -0.4810
      5  H          6.4470   -2.1690   -2.9870 H       1  UNL1        0.2960
      6  C          7.0760   -0.0640   -2.1740 C.3     1  UNL1        0.0470
      7  C          6.5370    0.0410   -0.8190 C.2     1  UNL1       -0.0470
      8  C          6.6530   -1.0040    0.0680 C.2     1  UNL1        0.0040
      9  C          5.9090    1.2040   -0.4350 C.2     1  UNL1        0.0040
     10  C          6.1160   -0.8330    1.3460 C.2     1  UNL1        0.0000
     11  C          5.3780    1.3710    0.8290 C.2     1  UNL1        0.0000
     12  C          5.4900    0.3280    1.7230 C.2     1  UNL1        0.0000
@<TRIPOS>BOND
     1     4     5    1
     2     4     2    1
     3     3     2    2
     4     2     1    1
     5     1     6    1
     6     6     7    1
     7     7     9    2
     8     7     8    1
     9     9    11    1
    10     8    10    2
    11    11    12    2
    12    10    12    1
