@<TRIPOS>MOLECULE
/home/cewinharhar/GITHUB/reincatalyze/data/processed/docking_pred/2023-Apr-26-1657_maxeplen10_maxtrainstep1000_exh32_gamma099_lrac9e-4_lrcr1e-3/1b5ae47dc41e9fd81b532b383f57e012b2e09fc7_ligand_2.pdbqt
 12 12 0 0 0
SMALL
GASTEIGER

@<TRIPOS>ATOM
      1  C          8.0600   -0.7790   -2.0350 C.3     1  UNL1        0.1270
      2  C          8.3010   -1.9470   -2.9150 C.2     1  UNL1        0.3030
      3  O          9.4560   -2.4160   -3.0710 O.2     1  UNL1       -0.2520
      4  O          7.2560   -2.5550   -3.5910 O.3     1  UNL1       -0.4810
      5  H          6.3300   -2.5910   -3.1540 H       1  UNL1        0.2960
      6  C          7.3320   -1.2520   -0.8140 C.3     1  UNL1        0.0470
      7  C          6.5180   -0.2220   -0.1710 C.2     1  UNL1       -0.0470
      8  C          6.1350    0.9050   -0.8610 C.2     1  UNL1        0.0040
      9  C          6.1330   -0.3910    1.1390 C.2     1  UNL1        0.0040
     10  C          5.3570    1.8470   -0.1840 C.2     1  UNL1        0.0000
     11  C          5.3640    0.5420    1.8070 C.2     1  UNL1        0.0000
     12  C          4.9770    1.6730    1.1230 C.2     1  UNL1        0.0000
@<TRIPOS>BOND
     1     4     5    1
     2     4     2    1
     3     3     2    2
     4     2     1    1
     5     1     6    1
     6     8    10    1
     7     8     7    2
     8     6     7    1
     9    10    12    2
    10     7     9    1
    11    12    11    1
    12     9    11    2
