@<TRIPOS>MOLECULE
/home/cewinharhar/GITHUB/reincatalyze/data/processed/docking_pred/2023-Apr-26-1657_maxeplen10_maxtrainstep1000_exh32_gamma099_lrac9e-4_lrcr1e-3/1b5ae47dc41e9fd81b532b383f57e012b2e09fc7_ligand_2.pdbqt
 12 12 0 0 0
SMALL
GASTEIGER

@<TRIPOS>ATOM
      1  C          4.9930    1.8080    0.6990 C.3     1  UNL1        0.1270
      2  C          4.4830    1.1270    1.9120 C.2     1  UNL1        0.3030
      3  O          5.1480    0.2260    2.4800 O.2     1  UNL1       -0.2520
      4  O          3.2540    1.4670    2.4530 O.3     1  UNL1       -0.4810
      5  H          2.7090    0.7540    2.9460 H       1  UNL1        0.2960
      6  C          6.4900    1.7950    0.7460 C.3     1  UNL1        0.0470
      7  C          7.1130    1.0430   -0.3420 C.2     1  UNL1       -0.0470
      8  C          6.3770    0.1620   -1.1000 C.2     1  UNL1        0.0040
      9  C          8.4510    1.2270   -0.6050 C.2     1  UNL1        0.0040
     10  C          7.0370   -0.5210   -2.1240 C.2     1  UNL1        0.0000
     11  C          9.1020    0.5500   -1.6180 C.2     1  UNL1        0.0000
     12  C          8.3720   -0.3350   -2.3810 C.2     1  UNL1        0.0000
@<TRIPOS>BOND
     1    12    10    2
     2    12    11    1
     3    10     8    1
     4    11     9    2
     5     8     7    2
     6     9     7    1
     7     7     6    1
     8     1     6    1
     9     1     2    1
    10     2     4    1
    11     2     3    2
    12     4     5    1
