@<TRIPOS>MOLECULE
/home/cewinharhar/GITHUB/reincatalyze/data/processed/docking_pred/2023-Apr-26-1657_maxeplen10_maxtrainstep1000_exh32_gamma099_lrac9e-4_lrcr1e-3/1b5ae47dc41e9fd81b532b383f57e012b2e09fc7_ligand_2.pdbqt
 12 12 0 0 0
SMALL
GASTEIGER

@<TRIPOS>ATOM
      1  C          5.4230    2.8910   -0.0060 C.3     1  UNL1        0.1270
      2  C          6.2240    3.8470    0.7960 C.2     1  UNL1        0.3030
      3  O          6.8690    4.7750    0.2480 O.2     1  UNL1       -0.2520
      4  O          6.2820    3.7410    2.1760 O.3     1  UNL1       -0.4810
      5  H          5.8030    2.9640    2.6400 H       1  UNL1        0.2960
      6  C          4.9010    1.8290    0.9130 C.3     1  UNL1        0.0470
      7  C          5.6980    0.6040    0.9190 C.2     1  UNL1       -0.0470
      8  C          6.3840    0.2050   -0.2050 C.2     1  UNL1        0.0040
      9  C          5.7590   -0.1520    2.0670 C.2     1  UNL1        0.0040
     10  C          7.1260   -0.9760   -0.1260 C.2     1  UNL1        0.0000
     11  C          6.4930   -1.3190    2.1430 C.2     1  UNL1        0.0000
     12  C          7.1820   -1.7260    1.0220 C.2     1  UNL1        0.0000
@<TRIPOS>BOND
     1     8    10    1
     2     8     7    2
     3    10    12    2
     4     1     2    1
     5     1     6    1
     6     3     2    2
     7     2     4    1
     8     6     7    1
     9     7     9    1
    10    12    11    1
    11     9    11    2
    12     4     5    1
