MODEL 1
REMARK VINA RESULT:      -7.3      0.000      0.000
REMARK SMILES O=C(O)CCc1ccccc1
REMARK SMILES IDX 4 1 2 2 1 3 3 4 5 6 6 7 7 8 11 9 8 10 10 11 9 12
REMARK H PARENT 3 5
REMARK Flexibility Score: inf
ROOT
ATOM      1  C   UNL     1       8.492  -0.550  -2.230  1.00  0.00     0.127 C 
ENDROOT
BRANCH   1   2
ATOM      2  C   UNL     1       8.509  -1.855  -2.931  1.00  0.00     0.303 C 
ATOM      3  O   UNL     1       9.580  -2.490  -3.098  1.00  0.00    -0.252 OA
BRANCH   2   4
ATOM      4  O   UNL     1       7.340  -2.411  -3.424  1.00  0.00    -0.481 OA
ATOM      5  H   UNL     1       6.447  -2.169  -2.987  1.00  0.00     0.296 HD
ENDBRANCH   2   4
ENDBRANCH   1   2
BRANCH   1   6
ATOM      6  C   UNL     1       7.076  -0.064  -2.174  1.00  0.00     0.047 C 
BRANCH   6   7
ATOM      7  C   UNL     1       6.537   0.041  -0.819  1.00  0.00    -0.047 A 
ATOM      8  C   UNL     1       6.653  -1.004   0.068  1.00  0.00     0.004 A 
ATOM      9  C   UNL     1       5.909   1.204  -0.435  1.00  0.00     0.004 A 
ATOM     10  C   UNL     1       6.116  -0.833   1.346  1.00  0.00     0.000 A 
ATOM     11  C   UNL     1       5.378   1.371   0.829  1.00  0.00     0.000 A 
ATOM     12  C   UNL     1       5.490   0.328   1.723  1.00  0.00     0.000 A 
ENDBRANCH   6   7
ENDBRANCH   1   6
TORSDOF 4
ENDMDL
MODEL 2
REMARK VINA RESULT:      -7.3      0.147      1.734
REMARK SMILES O=C(O)CCc1ccccc1
REMARK SMILES IDX 4 1 2 2 1 3 3 4 5 6 6 7 7 8 11 9 8 10 10 11 9 12
REMARK H PARENT 3 5
REMARK Flexibility Score: inf
ROOT
ATOM      1  C   UNL     1       8.410  -0.655  -2.075  1.00  0.00     0.127 C 
ENDROOT
BRANCH   1   2
ATOM      2  C   UNL     1       8.377  -1.902  -2.875  1.00  0.00     0.303 C 
ATOM      3  O   UNL     1       7.289  -2.411  -3.242  1.00  0.00    -0.252 OA
BRANCH   2   4
ATOM      4  O   UNL     1       9.550  -2.542  -3.241  1.00  0.00    -0.481 OA
ATOM      5  H   UNL     1      10.434  -2.248  -2.818  1.00  0.00     0.296 HD
ENDBRANCH   2   4
ENDBRANCH   1   2
BRANCH   1   6
ATOM      6  C   UNL     1       7.034  -0.062  -2.071  1.00  0.00     0.047 C 
BRANCH   6   7
ATOM      7  C   UNL     1       6.462   0.103  -0.735  1.00  0.00    -0.047 A 
ATOM      8  C   UNL     1       5.805   1.261  -0.390  1.00  0.00     0.004 A 
ATOM      9  C   UNL     1       6.585  -0.918   0.178  1.00  0.00     0.004 A 
ATOM     10  C   UNL     1       5.283   1.349   0.903  1.00  0.00     0.000 A 
ATOM     11  C   UNL     1       6.068  -0.829   1.456  1.00  0.00     0.000 A 
ATOM     12  C   UNL     1       5.410   0.328   1.811  1.00  0.00     0.000 A 
ENDBRANCH   6   7
ENDBRANCH   1   6
TORSDOF 4
ENDMDL
MODEL 3
REMARK VINA RESULT:      -7.2      0.607      1.602
REMARK SMILES O=C(O)CCc1ccccc1
REMARK SMILES IDX 4 1 2 2 1 3 3 4 5 6 6 7 7 8 11 9 8 10 10 11 9 12
REMARK H PARENT 3 5
REMARK Flexibility Score: inf
ROOT
ATOM      1  C   UNL     1       8.060  -0.779  -2.035  1.00  0.00     0.127 C 
ENDROOT
BRANCH   1   2
ATOM      2  C   UNL     1       8.301  -1.947  -2.915  1.00  0.00     0.303 C 
ATOM      3  O   UNL     1       9.456  -2.416  -3.071  1.00  0.00    -0.252 OA
BRANCH   2   4
ATOM      4  O   UNL     1       7.256  -2.555  -3.591  1.00  0.00    -0.481 OA
ATOM      5  H   UNL     1       6.330  -2.591  -3.154  1.00  0.00     0.296 HD
ENDBRANCH   2   4
ENDBRANCH   1   2
BRANCH   1   6
ATOM      6  C   UNL     1       7.332  -1.252  -0.814  1.00  0.00     0.047 C 
BRANCH   6   7
ATOM      7  C   UNL     1       6.518  -0.222  -0.171  1.00  0.00    -0.047 A 
ATOM      8  C   UNL     1       6.135   0.905  -0.861  1.00  0.00     0.004 A 
ATOM      9  C   UNL     1       6.133  -0.391   1.139  1.00  0.00     0.004 A 
ATOM     10  C   UNL     1       5.357   1.847  -0.184  1.00  0.00     0.000 A 
ATOM     11  C   UNL     1       5.364   0.542   1.807  1.00  0.00     0.000 A 
ATOM     12  C   UNL     1       4.977   1.673   1.123  1.00  0.00     0.000 A 
ENDBRANCH   6   7
ENDBRANCH   1   6
TORSDOF 4
ENDMDL
MODEL 4
REMARK VINA RESULT:      -6.8      3.376      5.060
REMARK SMILES O=C(O)CCc1ccccc1
REMARK SMILES IDX 4 1 2 2 1 3 3 4 5 6 6 7 7 8 11 9 8 10 10 11 9 12
REMARK H PARENT 3 5
REMARK Flexibility Score: inf
ROOT
ATOM      1  C   UNL     1       4.993   1.808   0.699  1.00  0.00     0.127 C 
ENDROOT
BRANCH   1   2
ATOM      2  C   UNL     1       4.483   1.127   1.912  1.00  0.00     0.303 C 
ATOM      3  O   UNL     1       5.148   0.226   2.480  1.00  0.00    -0.252 OA
BRANCH   2   4
ATOM      4  O   UNL     1       3.254   1.467   2.453  1.00  0.00    -0.481 OA
ATOM      5  H   UNL     1       2.709   0.754   2.946  1.00  0.00     0.296 HD
ENDBRANCH   2   4
ENDBRANCH   1   2
BRANCH   1   6
ATOM      6  C   UNL     1       6.490   1.795   0.746  1.00  0.00     0.047 C 
BRANCH   6   7
ATOM      7  C   UNL     1       7.113   1.043  -0.342  1.00  0.00    -0.047 A 
ATOM      8  C   UNL     1       6.377   0.162  -1.100  1.00  0.00     0.004 A 
ATOM      9  C   UNL     1       8.451   1.227  -0.605  1.00  0.00     0.004 A 
ATOM     10  C   UNL     1       7.037  -0.521  -2.124  1.00  0.00     0.000 A 
ATOM     11  C   UNL     1       9.102   0.550  -1.618  1.00  0.00     0.000 A 
ATOM     12  C   UNL     1       8.372  -0.335  -2.381  1.00  0.00     0.000 A 
ENDBRANCH   6   7
ENDBRANCH   1   6
TORSDOF 4
ENDMDL
MODEL 5
REMARK VINA RESULT:      -6.7      3.837      4.973
REMARK SMILES O=C(O)CCc1ccccc1
REMARK SMILES IDX 4 1 2 2 1 3 3 4 5 6 6 7 7 8 11 9 8 10 10 11 9 12
REMARK H PARENT 3 5
REMARK Flexibility Score: inf
ROOT
ATOM      1  C   UNL     1       5.423   2.891  -0.006  1.00  0.00     0.127 C 
ENDROOT
BRANCH   1   2
ATOM      2  C   UNL     1       6.224   3.847   0.796  1.00  0.00     0.303 C 
ATOM      3  O   UNL     1       6.869   4.775   0.248  1.00  0.00    -0.252 OA
BRANCH   2   4
ATOM      4  O   UNL     1       6.282   3.741   2.176  1.00  0.00    -0.481 OA
ATOM      5  H   UNL     1       5.803   2.964   2.640  1.00  0.00     0.296 HD
ENDBRANCH   2   4
ENDBRANCH   1   2
BRANCH   1   6
ATOM      6  C   UNL     1       4.901   1.829   0.913  1.00  0.00     0.047 C 
BRANCH   6   7
ATOM      7  C   UNL     1       5.698   0.604   0.919  1.00  0.00    -0.047 A 
ATOM      8  C   UNL     1       6.384   0.205  -0.205  1.00  0.00     0.004 A 
ATOM      9  C   UNL     1       5.759  -0.152   2.067  1.00  0.00     0.004 A 
ATOM     10  C   UNL     1       7.126  -0.976  -0.126  1.00  0.00     0.000 A 
ATOM     11  C   UNL     1       6.493  -1.319   2.143  1.00  0.00     0.000 A 
ATOM     12  C   UNL     1       7.182  -1.726   1.022  1.00  0.00     0.000 A 
ENDBRANCH   6   7
ENDBRANCH   1   6
TORSDOF 4
ENDMDL
