@<TRIPOS>MOLECULE
/home/cewinharhar/GITHUB/reincatalyze/data/processed/docking_pred/2023-Apr-26-1657_maxeplen10_maxtrainstep1000_exh32_gamma099_lrac9e-4_lrcr1e-3/1c0c8a91d3eae7937fa2398dc61f909c50ab5738_ligand_2.pdbqt
 12 12 0 0 0
SMALL
GASTEIGER

@<TRIPOS>ATOM
      1  C          5.3270    2.9680    0.0890 C.3     1  UNL1        0.1270
      2  C          6.2100    3.8860    0.8450 C.2     1  UNL1        0.3030
      3  O          6.8890    4.7660    0.2600 O.2     1  UNL1       -0.2520
      4  O          6.3110    3.7990    2.2240 O.3     1  UNL1       -0.4810
      5  H          7.1790    3.4520    2.6420 H       1  UNL1        0.2960
      6  C          5.2200    1.6830    0.8510 C.3     1  UNL1        0.0470
      7  C          5.9970    0.5850    0.2780 C.2     1  UNL1       -0.0470
      8  C          6.4140   -0.4660    1.0610 C.2     1  UNL1        0.0040
      9  C          6.3070    0.6110   -1.0620 C.2     1  UNL1        0.0040
     10  C          7.1510   -1.4800    0.4460 C.2     1  UNL1        0.0000
     11  C          7.0360   -0.3920   -1.6690 C.2     1  UNL1        0.0000
     12  C          7.4590   -1.4490   -0.8910 C.2     1  UNL1        0.0000
@<TRIPOS>BOND
     1    11     9    1
     2    11    12    2
     3     9     7    2
     4    12    10    1
     5     1     2    1
     6     1     6    1
     7     3     2    2
     8     7     6    1
     9     7     8    1
    10    10     8    2
    11     2     4    1
    12     4     5    1
