@<TRIPOS>MOLECULE
/home/cewinharhar/GITHUB/reincatalyze/data/processed/docking_pred/2023-Apr-26-1657_maxeplen10_maxtrainstep1000_exh32_gamma099_lrac9e-4_lrcr1e-3/1c0c8a91d3eae7937fa2398dc61f909c50ab5738_ligand_2.pdbqt
 12 12 0 0 0
SMALL
GASTEIGER

@<TRIPOS>ATOM
      1  C          8.4410   -0.6270   -2.1390 C.3     1  UNL1        0.1270
      2  C          8.4760   -1.9000   -2.8960 C.2     1  UNL1        0.3030
      3  O          9.5560   -2.5110   -3.0930 O.2     1  UNL1       -0.2520
      4  O          7.3140   -2.4530   -3.4090 O.3     1  UNL1       -0.4810
      5  H          6.5810   -2.7650   -2.7660 H       1  UNL1        0.2960
      6  C          7.0270   -0.1330   -2.1140 C.3     1  UNL1        0.0470
      7  C          6.4820    0.0420   -0.7680 C.2     1  UNL1       -0.0470
      8  C          5.8550    1.2130   -0.4100 C.2     1  UNL1        0.0040
      9  C          6.6010   -0.9820    0.1430 C.2     1  UNL1        0.0040
     10  C          5.3570    1.3100    0.8910 C.2     1  UNL1        0.0000
     11  C          6.1090   -0.8840    1.4290 C.2     1  UNL1        0.0000
     12  C          5.4800    0.2860    1.7960 C.2     1  UNL1        0.0000
@<TRIPOS>BOND
     1     4     2    1
     2     4     5    1
     3     3     2    2
     4     2     1    1
     5     1     6    1
     6     6     7    1
     7     7     8    2
     8     7     9    1
     9     8    10    1
    10     9    11    2
    11    10    12    2
    12    11    12    1
