@<TRIPOS>MOLECULE
/home/cewinharhar/GITHUB/reincatalyze/data/processed/docking_pred/2023-Apr-26-1657_maxeplen10_maxtrainstep1000_exh32_gamma099_lrac9e-4_lrcr1e-3/1c0c8a91d3eae7937fa2398dc61f909c50ab5738_ligand_2.pdbqt
 12 12 0 0 0
SMALL
GASTEIGER

@<TRIPOS>ATOM
      1  C          8.4440   -0.6040   -2.1830 C.3     1  UNL1        0.1270
      2  C          8.4860   -1.8920   -2.9160 C.2     1  UNL1        0.3030
      3  O          9.5670   -2.5070   -3.0900 O.2     1  UNL1       -0.2520
      4  O          7.3280   -2.4540   -3.4310 O.3     1  UNL1       -0.4810
      5  H          7.2080   -3.4700   -3.3990 H       1  UNL1        0.2960
      6  C          7.0250   -0.1240   -2.1560 C.3     1  UNL1        0.0470
      7  C          6.4850    0.0570   -0.8090 C.2     1  UNL1       -0.0470
      8  C          6.6130   -0.9310    0.1390 C.2     1  UNL1        0.0040
      9  C          5.8450    1.2340   -0.4950 C.2     1  UNL1        0.0040
     10  C          6.0740   -0.6890    1.4050 C.2     1  UNL1        0.0000
     11  C          5.3120    1.4710    0.7560 C.2     1  UNL1        0.0000
     12  C          5.4360    0.4860    1.7120 C.2     1  UNL1        0.0000
@<TRIPOS>BOND
     1     4     5    1
     2     4     2    1
     3     3     2    2
     4     2     1    1
     5     1     6    1
     6     6     7    1
     7     7     9    2
     8     7     8    1
     9     9    11    1
    10     8    10    2
    11    11    12    2
    12    10    12    1
