MODEL 1
REMARK VINA RESULT:      -7.3      0.000      0.000
REMARK SMILES O=C(O)CCc1ccccc1
REMARK SMILES IDX 4 1 2 2 1 3 3 4 5 6 6 7 7 8 11 9 8 10 10 11 9 12
REMARK H PARENT 3 5
REMARK Flexibility Score: inf
ROOT
ATOM      1  C   UNL     1       8.444  -0.604  -2.183  1.00  0.00     0.127 C 
ENDROOT
BRANCH   1   2
ATOM      2  C   UNL     1       8.486  -1.892  -2.916  1.00  0.00     0.303 C 
ATOM      3  O   UNL     1       9.567  -2.507  -3.090  1.00  0.00    -0.252 OA
BRANCH   2   4
ATOM      4  O   UNL     1       7.328  -2.454  -3.431  1.00  0.00    -0.481 OA
ATOM      5  H   UNL     1       7.208  -3.470  -3.399  1.00  0.00     0.296 HD
ENDBRANCH   2   4
ENDBRANCH   1   2
BRANCH   1   6
ATOM      6  C   UNL     1       7.025  -0.124  -2.156  1.00  0.00     0.047 C 
BRANCH   6   7
ATOM      7  C   UNL     1       6.485   0.057  -0.809  1.00  0.00    -0.047 A 
ATOM      8  C   UNL     1       6.613  -0.931   0.139  1.00  0.00     0.004 A 
ATOM      9  C   UNL     1       5.845   1.234  -0.495  1.00  0.00     0.004 A 
ATOM     10  C   UNL     1       6.074  -0.689   1.405  1.00  0.00     0.000 A 
ATOM     11  C   UNL     1       5.312   1.471   0.756  1.00  0.00     0.000 A 
ATOM     12  C   UNL     1       5.436   0.486   1.712  1.00  0.00     0.000 A 
ENDBRANCH   6   7
ENDBRANCH   1   6
TORSDOF 4
ENDMDL
MODEL 2
REMARK VINA RESULT:      -7.3      0.118      1.441
REMARK SMILES O=C(O)CCc1ccccc1
REMARK SMILES IDX 4 1 2 2 1 3 3 4 5 6 6 7 7 8 11 9 8 10 10 11 9 12
REMARK H PARENT 3 5
REMARK Flexibility Score: inf
ROOT
ATOM      1  C   UNL     1       8.441  -0.627  -2.139  1.00  0.00     0.127 C 
ENDROOT
BRANCH   1   2
ATOM      2  C   UNL     1       8.476  -1.900  -2.896  1.00  0.00     0.303 C 
ATOM      3  O   UNL     1       9.556  -2.511  -3.093  1.00  0.00    -0.252 OA
BRANCH   2   4
ATOM      4  O   UNL     1       7.314  -2.453  -3.409  1.00  0.00    -0.481 OA
ATOM      5  H   UNL     1       6.581  -2.765  -2.766  1.00  0.00     0.296 HD
ENDBRANCH   2   4
ENDBRANCH   1   2
BRANCH   1   6
ATOM      6  C   UNL     1       7.027  -0.133  -2.114  1.00  0.00     0.047 C 
BRANCH   6   7
ATOM      7  C   UNL     1       6.482   0.042  -0.768  1.00  0.00    -0.047 A 
ATOM      8  C   UNL     1       5.855   1.213  -0.410  1.00  0.00     0.004 A 
ATOM      9  C   UNL     1       6.601  -0.982   0.143  1.00  0.00     0.004 A 
ATOM     10  C   UNL     1       5.357   1.310   0.891  1.00  0.00     0.000 A 
ATOM     11  C   UNL     1       6.109  -0.884   1.429  1.00  0.00     0.000 A 
ATOM     12  C   UNL     1       5.480   0.286   1.796  1.00  0.00     0.000 A 
ENDBRANCH   6   7
ENDBRANCH   1   6
TORSDOF 4
ENDMDL
MODEL 3
REMARK VINA RESULT:      -6.7      3.380      5.066
REMARK SMILES O=C(O)CCc1ccccc1
REMARK SMILES IDX 4 1 2 2 1 3 3 4 5 6 6 7 7 8 11 9 8 10 10 11 9 12
REMARK H PARENT 3 5
REMARK Flexibility Score: inf
ROOT
ATOM      1  C   UNL     1       4.987   1.792   0.704  1.00  0.00     0.127 C 
ENDROOT
BRANCH   1   2
ATOM      2  C   UNL     1       4.473   1.109   1.915  1.00  0.00     0.303 C 
ATOM      3  O   UNL     1       5.129   0.198   2.476  1.00  0.00    -0.252 OA
BRANCH   2   4
ATOM      4  O   UNL     1       3.249   1.460   2.461  1.00  0.00    -0.481 OA
ATOM      5  H   UNL     1       2.910   0.963   3.290  1.00  0.00     0.296 HD
ENDBRANCH   2   4
ENDBRANCH   1   2
BRANCH   1   6
ATOM      6  C   UNL     1       6.484   1.774   0.753  1.00  0.00     0.047 C 
BRANCH   6   7
ATOM      7  C   UNL     1       7.106   1.023  -0.336  1.00  0.00    -0.047 A 
ATOM      8  C   UNL     1       6.379   0.111  -1.066  1.00  0.00     0.004 A 
ATOM      9  C   UNL     1       8.432   1.239  -0.629  1.00  0.00     0.004 A 
ATOM     10  C   UNL     1       7.038  -0.570  -2.093  1.00  0.00     0.000 A 
ATOM     11  C   UNL     1       9.082   0.566  -1.645  1.00  0.00     0.000 A 
ATOM     12  C   UNL     1       8.361  -0.350  -2.380  1.00  0.00     0.000 A 
ENDBRANCH   6   7
ENDBRANCH   1   6
TORSDOF 4
ENDMDL
MODEL 4
REMARK VINA RESULT:      -6.6      3.720      4.979
REMARK SMILES O=C(O)CCc1ccccc1
REMARK SMILES IDX 4 1 2 2 1 3 3 4 5 6 6 7 7 8 11 9 8 10 10 11 9 12
REMARK H PARENT 3 5
REMARK Flexibility Score: inf
ROOT
ATOM      1  C   UNL     1       5.327   2.968   0.089  1.00  0.00     0.127 C 
ENDROOT
BRANCH   1   2
ATOM      2  C   UNL     1       6.210   3.886   0.845  1.00  0.00     0.303 C 
ATOM      3  O   UNL     1       6.889   4.766   0.260  1.00  0.00    -0.252 OA
BRANCH   2   4
ATOM      4  O   UNL     1       6.311   3.799   2.224  1.00  0.00    -0.481 OA
ATOM      5  H   UNL     1       7.179   3.452   2.642  1.00  0.00     0.296 HD
ENDBRANCH   2   4
ENDBRANCH   1   2
BRANCH   1   6
ATOM      6  C   UNL     1       5.220   1.683   0.851  1.00  0.00     0.047 C 
BRANCH   6   7
ATOM      7  C   UNL     1       5.997   0.585   0.278  1.00  0.00    -0.047 A 
ATOM      8  C   UNL     1       6.414  -0.466   1.061  1.00  0.00     0.004 A 
ATOM      9  C   UNL     1       6.307   0.611  -1.062  1.00  0.00     0.004 A 
ATOM     10  C   UNL     1       7.151  -1.480   0.446  1.00  0.00     0.000 A 
ATOM     11  C   UNL     1       7.036  -0.392  -1.669  1.00  0.00     0.000 A 
ATOM     12  C   UNL     1       7.459  -1.449  -0.891  1.00  0.00     0.000 A 
ENDBRANCH   6   7
ENDBRANCH   1   6
TORSDOF 4
ENDMDL
MODEL 5
REMARK VINA RESULT:      -6.5      1.993      2.275
REMARK SMILES O=C(O)CCc1ccccc1
REMARK SMILES IDX 4 1 2 2 1 3 3 4 5 6 6 7 7 8 11 9 8 10 10 11 9 12
REMARK H PARENT 3 5
REMARK Flexibility Score: inf
ROOT
ATOM      1  C   UNL     1       8.299   0.382  -1.926  1.00  0.00     0.127 C 
ENDROOT
BRANCH   1   2
ATOM      2  C   UNL     1       9.468   0.279  -1.021  1.00  0.00     0.303 C 
ATOM      3  O   UNL     1       9.449  -0.474  -0.016  1.00  0.00    -0.252 OA
BRANCH   2   4
ATOM      4  O   UNL     1      10.619   1.013  -1.260  1.00  0.00    -0.481 OA
ATOM      5  H   UNL     1      11.169   1.355  -0.468  1.00  0.00     0.296 HD
ENDBRANCH   2   4
ENDBRANCH   1   2
BRANCH   1   6
ATOM      6  C   UNL     1       7.208  -0.492  -1.387  1.00  0.00     0.047 C 
BRANCH   6   7
ATOM      7  C   UNL     1       6.378   0.151  -0.370  1.00  0.00    -0.047 A 
ATOM      8  C   UNL     1       6.170  -0.449   0.850  1.00  0.00     0.004 A 
ATOM      9  C   UNL     1       5.806   1.371  -0.644  1.00  0.00     0.004 A 
ATOM     10  C   UNL     1       5.366   0.223   1.774  1.00  0.00     0.000 A 
ATOM     11  C   UNL     1       5.012   2.034   0.270  1.00  0.00     0.000 A 
ATOM     12  C   UNL     1       4.797   1.440   1.494  1.00  0.00     0.000 A 
ENDBRANCH   6   7
ENDBRANCH   1   6
TORSDOF 4
ENDMDL
