@<TRIPOS>MOLECULE
/home/cewinharhar/GITHUB/reincatalyze/data/processed/docking_pred/2023-Apr-26-1657_maxeplen10_maxtrainstep1000_exh32_gamma099_lrac9e-4_lrcr1e-3/1c0c8a91d3eae7937fa2398dc61f909c50ab5738_ligand_2.pdbqt
 12 12 0 0 0
SMALL
GASTEIGER

@<TRIPOS>ATOM
      1  C          8.2990    0.3820   -1.9260 C.3     1  UNL1        0.1270
      2  C          9.4680    0.2790   -1.0210 C.2     1  UNL1        0.3030
      3  O          9.4490   -0.4740   -0.0160 O.2     1  UNL1       -0.2520
      4  O         10.6190    1.0130   -1.2600 O.3     1  UNL1       -0.4810
      5  H         11.1690    1.3550   -0.4680 H       1  UNL1        0.2960
      6  C          7.2080   -0.4920   -1.3870 C.3     1  UNL1        0.0470
      7  C          6.3780    0.1510   -0.3700 C.2     1  UNL1       -0.0470
      8  C          6.1700   -0.4490    0.8500 C.2     1  UNL1        0.0040
      9  C          5.8060    1.3710   -0.6440 C.2     1  UNL1        0.0040
     10  C          5.3660    0.2230    1.7740 C.2     1  UNL1        0.0000
     11  C          5.0120    2.0340    0.2700 C.2     1  UNL1        0.0000
     12  C          4.7970    1.4400    1.4940 C.2     1  UNL1        0.0000
@<TRIPOS>BOND
     1     1     6    1
     2     1     2    1
     3     6     7    1
     4     4     2    1
     5     4     5    1
     6     2     3    2
     7     9     7    2
     8     9    11    1
     9     7     8    1
    10    11    12    2
    11     8    10    2
    12    12    10    1
