@<TRIPOS>MOLECULE
/home/cewinharhar/GITHUB/reincatalyze/data/processed/docking_pred/2023-Apr-26-1657_maxeplen10_maxtrainstep1000_exh32_gamma099_lrac9e-4_lrcr1e-3/1c86ade130d2cc9f902dffb19ba95248752a952e_ligand_2.pdbqt
 12 12 0 0 0
SMALL
GASTEIGER

@<TRIPOS>ATOM
      1  C          7.3000   -1.2610   -2.2370 C.3     1  UNL1        0.1270
      2  C          8.7550   -1.3430   -2.5060 C.2     1  UNL1        0.3030
      3  O          9.2410   -2.2920   -3.1700 O.2     1  UNL1       -0.2520
      4  O          9.6210   -0.3720   -2.0310 O.3     1  UNL1       -0.4810
      5  H         10.6210   -0.5830   -1.9610 H       1  UNL1        0.2960
      6  C          7.0850   -1.4180   -0.7620 C.3     1  UNL1        0.0470
      7  C          6.3670   -0.3050   -0.1440 C.2     1  UNL1       -0.0470
      8  C          5.9520   -0.3760    1.1650 C.2     1  UNL1        0.0040
      9  C          6.1110    0.8240   -0.8870 C.2     1  UNL1        0.0040
     10  C          5.2720    0.7250    1.6910 C.2     1  UNL1        0.0000
     11  C          5.4380    1.9120   -0.3660 C.2     1  UNL1        0.0000
     12  C          5.0180    1.8480    0.9450 C.2     1  UNL1        0.0000
@<TRIPOS>BOND
     1     3     2    2
     2     2     1    1
     3     2     4    1
     4     1     6    1
     5     4     5    1
     6     9    11    1
     7     9     7    2
     8     6     7    1
     9    11    12    2
    10     7     8    1
    11    12    10    1
    12     8    10    2
