@<TRIPOS>MOLECULE
/home/cewinharhar/GITHUB/reincatalyze/data/processed/docking_pred/2023-Apr-26-1657_maxeplen10_maxtrainstep1000_exh32_gamma099_lrac9e-4_lrcr1e-3/1c86ade130d2cc9f902dffb19ba95248752a952e_ligand_2.pdbqt
 12 12 0 0 0
SMALL
GASTEIGER

@<TRIPOS>ATOM
      1  C          4.9890    1.7940    0.6820 C.3     1  UNL1        0.1270
      2  C          4.4880    1.1190    1.9030 C.2     1  UNL1        0.3030
      3  O          5.1580    0.2210    2.4710 O.2     1  UNL1       -0.2520
      4  O          3.2620    1.4600    2.4510 O.3     1  UNL1       -0.4810
      5  H          2.5090    1.7770    1.8350 H       1  UNL1        0.2960
      6  C          6.4870    1.7990    0.7280 C.3     1  UNL1        0.0470
      7  C          7.1170    1.0420   -0.3520 C.2     1  UNL1       -0.0470
      8  C          6.3880    0.1510   -1.1050 C.2     1  UNL1        0.0040
      9  C          8.4540    1.2310   -0.6130 C.2     1  UNL1        0.0040
     10  C          7.0550   -0.5370   -2.1220 C.2     1  UNL1        0.0000
     11  C          9.1120    0.5500   -1.6180 C.2     1  UNL1        0.0000
     12  C          8.3890   -0.3450   -2.3760 C.2     1  UNL1        0.0000
@<TRIPOS>BOND
     1    12    10    2
     2    12    11    1
     3    10     8    1
     4    11     9    2
     5     8     7    2
     6     9     7    1
     7     7     6    1
     8     1     6    1
     9     1     2    1
    10     5     4    1
    11     2     4    1
    12     2     3    2
