@<TRIPOS>MOLECULE
/home/cewinharhar/GITHUB/reincatalyze/data/processed/docking_pred/2023-Apr-26-1657_maxeplen10_maxtrainstep1000_exh32_gamma099_lrac9e-4_lrcr1e-3/1c86ade130d2cc9f902dffb19ba95248752a952e_ligand_2.pdbqt
 12 12 0 0 0
SMALL
GASTEIGER

@<TRIPOS>ATOM
      1  C          8.4400   -0.6440   -2.1020 C.3     1  UNL1        0.1270
      2  C          8.3850   -1.8980   -2.8890 C.2     1  UNL1        0.3030
      3  O          7.2880   -2.4060   -3.2280 O.2     1  UNL1       -0.2520
      4  O          9.5480   -2.5450   -3.2750 O.3     1  UNL1       -0.4810
      5  H          9.7820   -2.6050   -4.2690 H       1  UNL1        0.2960
      6  C          7.0780   -0.0180   -2.1170 C.3     1  UNL1        0.0470
      7  C          6.4920    0.1620   -0.7900 C.2     1  UNL1       -0.0470
      8  C          6.6600   -0.7900    0.1880 C.2     1  UNL1        0.0040
      9  C          5.7660    1.3000   -0.5260 C.2     1  UNL1        0.0040
     10  C          6.0720   -0.5520    1.4330 C.2     1  UNL1        0.0000
     11  C          5.1850    1.5340    0.7050 C.2     1  UNL1        0.0000
     12  C          5.3490    0.5850    1.6900 C.2     1  UNL1        0.0000
@<TRIPOS>BOND
     1     5     4    1
     2     4     2    1
     3     3     2    2
     4     2     1    1
     5     6     1    1
     6     6     7    1
     7     7     9    2
     8     7     8    1
     9     9    11    1
    10     8    10    2
    11    11    12    2
    12    10    12    1
