@<TRIPOS>MOLECULE
/home/cewinharhar/GITHUB/reincatalyze/data/processed/docking_pred/2023-Apr-26-1657_maxeplen10_maxtrainstep1000_exh32_gamma099_lrac9e-4_lrcr1e-3/1c86ade130d2cc9f902dffb19ba95248752a952e_ligand_2.pdbqt
 12 12 0 0 0
SMALL
GASTEIGER

@<TRIPOS>ATOM
      1  C          8.4090   -0.5460   -2.2350 C.3     1  UNL1        0.1270
      2  C          8.4680   -1.8570   -2.9220 C.2     1  UNL1        0.3030
      3  O          9.5580   -2.4600   -3.0810 O.2     1  UNL1       -0.2520
      4  O          7.3180   -2.4550   -3.4110 O.3     1  UNL1       -0.4810
      5  H          7.3390   -3.4460   -3.6690 H       1  UNL1        0.2960
      6  C          6.9750   -0.1150   -2.1660 C.3     1  UNL1        0.0470
      7  C          6.4730    0.0640   -0.8050 C.2     1  UNL1       -0.0470
      8  C          5.8690    1.2410   -0.4270 C.2     1  UNL1        0.0040
      9  C          6.6070   -0.9630    0.1000 C.2     1  UNL1        0.0040
     10  C          5.4110    1.3420    0.8880 C.2     1  UNL1        0.0000
     11  C          6.1550   -0.8610    1.4010 C.2     1  UNL1        0.0000
     12  C          5.5490    0.3140    1.7880 C.2     1  UNL1        0.0000
@<TRIPOS>BOND
     1     5     4    1
     2     4     2    1
     3     3     2    2
     4     2     1    1
     5     1     6    1
     6     6     7    1
     7     7     8    2
     8     7     9    1
     9     8    10    1
    10     9    11    2
    11    10    12    2
    12    11    12    1
