MODEL 1
REMARK VINA RESULT:      -7.3      0.000      0.000
REMARK SMILES O=C(O)CCc1ccccc1
REMARK SMILES IDX 4 1 2 2 1 3 3 4 5 6 6 7 7 8 11 9 8 10 10 11 9 12
REMARK H PARENT 3 5
REMARK Flexibility Score: inf
ROOT
ATOM      1  C   UNL     1       8.470  -0.650  -2.110  1.00  0.00     0.127 C 
ENDROOT
BRANCH   1   2
ATOM      2  C   UNL     1       8.485  -1.906  -2.897  1.00  0.00     0.303 C 
ATOM      3  O   UNL     1       9.555  -2.525  -3.115  1.00  0.00    -0.252 OA
BRANCH   2   4
ATOM      4  O   UNL     1       7.313  -2.432  -3.417  1.00  0.00    -0.481 OA
ATOM      5  H   UNL     1       7.239  -2.591  -4.425  1.00  0.00     0.296 HD
ENDBRANCH   2   4
ENDBRANCH   1   2
BRANCH   1   6
ATOM      6  C   UNL     1       7.060  -0.149  -2.050  1.00  0.00     0.047 C 
BRANCH   6   7
ATOM      7  C   UNL     1       6.527  -0.035  -0.693  1.00  0.00    -0.047 A 
ATOM      8  C   UNL     1       6.706  -1.048   0.220  1.00  0.00     0.004 A 
ATOM      9  C   UNL     1       5.841   1.103  -0.334  1.00  0.00     0.004 A 
ATOM     10  C   UNL     1       6.171  -0.871   1.498  1.00  0.00     0.000 A 
ATOM     11  C   UNL     1       5.313   1.276   0.929  1.00  0.00     0.000 A 
ATOM     12  C   UNL     1       5.487   0.266   1.850  1.00  0.00     0.000 A 
ENDBRANCH   6   7
ENDBRANCH   1   6
TORSDOF 4
ENDMDL
MODEL 2
REMARK VINA RESULT:      -7.3      0.134      1.733
REMARK SMILES O=C(O)CCc1ccccc1
REMARK SMILES IDX 4 1 2 2 1 3 3 4 5 6 6 7 7 8 11 9 8 10 10 11 9 12
REMARK H PARENT 3 5
REMARK Flexibility Score: inf
ROOT
ATOM      1  C   UNL     1       8.385  -0.643  -2.088  1.00  0.00     0.127 C 
ENDROOT
BRANCH   1   2
ATOM      2  C   UNL     1       8.369  -1.893  -2.883  1.00  0.00     0.303 C 
ATOM      3  O   UNL     1       7.288  -2.416  -3.251  1.00  0.00    -0.252 OA
BRANCH   2   4
ATOM      4  O   UNL     1       9.551  -2.520  -3.244  1.00  0.00    -0.481 OA
ATOM      5  H   UNL     1       9.814  -3.396  -2.783  1.00  0.00     0.296 HD
ENDBRANCH   2   4
ENDBRANCH   1   2
BRANCH   1   6
ATOM      6  C   UNL     1       6.998  -0.076  -2.073  1.00  0.00     0.047 C 
BRANCH   6   7
ATOM      7  C   UNL     1       6.439   0.092  -0.733  1.00  0.00    -0.047 A 
ATOM      8  C   UNL     1       5.800   1.258  -0.379  1.00  0.00     0.004 A 
ATOM      9  C   UNL     1       6.556  -0.933   0.177  1.00  0.00     0.004 A 
ATOM     10  C   UNL     1       5.289   1.349   0.918  1.00  0.00     0.000 A 
ATOM     11  C   UNL     1       6.051  -0.841   1.459  1.00  0.00     0.000 A 
ATOM     12  C   UNL     1       5.410   0.323   1.822  1.00  0.00     0.000 A 
ENDBRANCH   6   7
ENDBRANCH   1   6
TORSDOF 4
ENDMDL
MODEL 3
REMARK VINA RESULT:      -7.1      0.646      1.491
REMARK SMILES O=C(O)CCc1ccccc1
REMARK SMILES IDX 4 1 2 2 1 3 3 4 5 6 6 7 7 8 11 9 8 10 10 11 9 12
REMARK H PARENT 3 5
REMARK Flexibility Score: inf
ROOT
ATOM      1  C   UNL     1       8.213  -0.921  -1.828  1.00  0.00     0.127 C 
ENDROOT
BRANCH   1   2
ATOM      2  C   UNL     1       8.307  -1.984  -2.856  1.00  0.00     0.303 C 
ATOM      3  O   UNL     1       7.277  -2.476  -3.380  1.00  0.00    -0.252 OA
BRANCH   2   4
ATOM      4  O   UNL     1       9.539  -2.467  -3.266  1.00  0.00    -0.481 OA
ATOM      5  H   UNL     1       9.576  -3.218  -3.962  1.00  0.00     0.296 HD
ENDBRANCH   2   4
ENDBRANCH   1   2
BRANCH   1   6
ATOM      6  C   UNL     1       7.300  -1.398  -0.739  1.00  0.00     0.047 C 
BRANCH   6   7
ATOM      7  C   UNL     1       6.504  -0.338  -0.124  1.00  0.00    -0.047 A 
ATOM      8  C   UNL     1       6.062  -0.452   1.174  1.00  0.00     0.004 A 
ATOM      9  C   UNL     1       6.199   0.785  -0.859  1.00  0.00     0.004 A 
ATOM     10  C   UNL     1       5.307   0.599   1.697  1.00  0.00     0.000 A 
ATOM     11  C   UNL     1       5.451   1.824  -0.340  1.00  0.00     0.000 A 
ATOM     12  C   UNL     1       5.005   1.716   0.959  1.00  0.00     0.000 A 
ENDBRANCH   6   7
ENDBRANCH   1   6
TORSDOF 4
ENDMDL
MODEL 4
REMARK VINA RESULT:      -6.8      3.383      5.086
REMARK SMILES O=C(O)CCc1ccccc1
REMARK SMILES IDX 4 1 2 2 1 3 3 4 5 6 6 7 7 8 11 9 8 10 10 11 9 12
REMARK H PARENT 3 5
REMARK Flexibility Score: inf
ROOT
ATOM      1  C   UNL     1       4.993   1.815   0.708  1.00  0.00     0.127 C 
ENDROOT
BRANCH   1   2
ATOM      2  C   UNL     1       4.487   1.123   1.917  1.00  0.00     0.303 C 
ATOM      3  O   UNL     1       5.158   0.222   2.480  1.00  0.00    -0.252 OA
BRANCH   2   4
ATOM      4  O   UNL     1       3.256   1.453   2.461  1.00  0.00    -0.481 OA
ATOM      5  H   UNL     1       2.607   0.705   2.722  1.00  0.00     0.296 HD
ENDBRANCH   2   4
ENDBRANCH   1   2
BRANCH   1   6
ATOM      6  C   UNL     1       6.491   1.802   0.751  1.00  0.00     0.047 C 
BRANCH   6   7
ATOM      7  C   UNL     1       7.110   1.052  -0.341  1.00  0.00    -0.047 A 
ATOM      8  C   UNL     1       6.368   0.184  -1.108  1.00  0.00     0.004 A 
ATOM      9  C   UNL     1       8.450   1.224  -0.598  1.00  0.00     0.004 A 
ATOM     10  C   UNL     1       7.024  -0.498  -2.135  1.00  0.00     0.000 A 
ATOM     11  C   UNL     1       9.098   0.549  -1.613  1.00  0.00     0.000 A 
ATOM     12  C   UNL     1       8.362  -0.323  -2.386  1.00  0.00     0.000 A 
ENDBRANCH   6   7
ENDBRANCH   1   6
TORSDOF 4
ENDMDL
MODEL 5
REMARK VINA RESULT:      -6.7      1.939      2.335
REMARK SMILES O=C(O)CCc1ccccc1
REMARK SMILES IDX 4 1 2 2 1 3 3 4 5 6 6 7 7 8 11 9 8 10 10 11 9 12
REMARK H PARENT 3 5
REMARK Flexibility Score: inf
ROOT
ATOM      1  C   UNL     1       8.221   0.276  -2.242  1.00  0.00     0.127 C 
ENDROOT
BRANCH   1   2
ATOM      2  C   UNL     1       9.350   0.350  -1.285  1.00  0.00     0.303 C 
ATOM      3  O   UNL     1       9.418  -0.424  -0.299  1.00  0.00    -0.252 OA
BRANCH   2   4
ATOM      4  O   UNL     1      10.364   1.280  -1.454  1.00  0.00    -0.481 OA
ATOM      5  H   UNL     1      11.050   1.413  -0.706  1.00  0.00     0.296 HD
ENDBRANCH   2   4
ENDBRANCH   1   2
BRANCH   1   6
ATOM      6  C   UNL     1       7.102  -0.480  -1.593  1.00  0.00     0.047 C 
BRANCH   6   7
ATOM      7  C   UNL     1       6.329   0.307  -0.635  1.00  0.00    -0.047 A 
ATOM      8  C   UNL     1       6.124  -0.147   0.647  1.00  0.00     0.004 A 
ATOM      9  C   UNL     1       5.804   1.517  -1.029  1.00  0.00     0.004 A 
ATOM     10  C   UNL     1       5.377   0.658   1.509  1.00  0.00     0.000 A 
ATOM     11  C   UNL     1       5.065   2.312  -0.176  1.00  0.00     0.000 A 
ATOM     12  C   UNL     1       4.855   1.863   1.110  1.00  0.00     0.000 A 
ENDBRANCH   6   7
ENDBRANCH   1   6
TORSDOF 4
ENDMDL
