@<TRIPOS>MOLECULE
/home/cewinharhar/GITHUB/reincatalyze/data/processed/docking_pred/2023-Apr-26-1657_maxeplen10_maxtrainstep1000_exh32_gamma099_lrac9e-4_lrcr1e-3/1caf15995fa8372ea76f1cb48e36fe3c815c3a18_ligand_2.pdbqt
 12 12 0 0 0
SMALL
GASTEIGER

@<TRIPOS>ATOM
      1  C          8.3850   -0.6430   -2.0880 C.3     1  UNL1        0.1270
      2  C          8.3690   -1.8930   -2.8830 C.2     1  UNL1        0.3030
      3  O          7.2880   -2.4160   -3.2510 O.2     1  UNL1       -0.2520
      4  O          9.5510   -2.5200   -3.2440 O.3     1  UNL1       -0.4810
      5  H          9.8140   -3.3960   -2.7830 H       1  UNL1        0.2960
      6  C          6.9980   -0.0760   -2.0730 C.3     1  UNL1        0.0470
      7  C          6.4390    0.0920   -0.7330 C.2     1  UNL1       -0.0470
      8  C          5.8000    1.2580   -0.3790 C.2     1  UNL1        0.0040
      9  C          6.5560   -0.9330    0.1770 C.2     1  UNL1        0.0040
     10  C          5.2890    1.3490    0.9180 C.2     1  UNL1        0.0000
     11  C          6.0510   -0.8410    1.4590 C.2     1  UNL1        0.0000
     12  C          5.4100    0.3230    1.8220 C.2     1  UNL1        0.0000
@<TRIPOS>BOND
     1     3     2    2
     2     4     2    1
     3     4     5    1
     4     2     1    1
     5     1     6    1
     6     6     7    1
     7     7     8    2
     8     7     9    1
     9     8    10    1
    10     9    11    2
    11    10    12    2
    12    11    12    1
