@<TRIPOS>MOLECULE
/home/cewinharhar/GITHUB/reincatalyze/data/processed/docking_pred/2023-Apr-26-1657_maxeplen10_maxtrainstep1000_exh32_gamma099_lrac9e-4_lrcr1e-3/1caf15995fa8372ea76f1cb48e36fe3c815c3a18_ligand_2.pdbqt
 12 12 0 0 0
SMALL
GASTEIGER

@<TRIPOS>ATOM
      1  C          8.4700   -0.6500   -2.1100 C.3     1  UNL1        0.1270
      2  C          8.4850   -1.9060   -2.8970 C.2     1  UNL1        0.3030
      3  O          9.5550   -2.5250   -3.1150 O.2     1  UNL1       -0.2520
      4  O          7.3130   -2.4320   -3.4170 O.3     1  UNL1       -0.4810
      5  H          7.2390   -2.5910   -4.4250 H       1  UNL1        0.2960
      6  C          7.0600   -0.1490   -2.0500 C.3     1  UNL1        0.0470
      7  C          6.5270   -0.0350   -0.6930 C.2     1  UNL1       -0.0470
      8  C          6.7060   -1.0480    0.2200 C.2     1  UNL1        0.0040
      9  C          5.8410    1.1030   -0.3340 C.2     1  UNL1        0.0040
     10  C          6.1710   -0.8710    1.4980 C.2     1  UNL1        0.0000
     11  C          5.3130    1.2760    0.9290 C.2     1  UNL1        0.0000
     12  C          5.4870    0.2660    1.8500 C.2     1  UNL1        0.0000
@<TRIPOS>BOND
     1     5     4    1
     2     4     2    1
     3     3     2    2
     4     2     1    1
     5     1     6    1
     6     6     7    1
     7     7     9    2
     8     7     8    1
     9     9    11    1
    10     8    10    2
    11    11    12    2
    12    10    12    1
