@<TRIPOS>MOLECULE
/home/cewinharhar/GITHUB/reincatalyze/data/processed/docking_pred/2023-Apr-26-1657_maxeplen10_maxtrainstep1000_exh32_gamma099_lrac9e-4_lrcr1e-3/1caf15995fa8372ea76f1cb48e36fe3c815c3a18_ligand_2.pdbqt
 12 12 0 0 0
SMALL
GASTEIGER

@<TRIPOS>ATOM
      1  C          8.2210    0.2760   -2.2420 C.3     1  UNL1        0.1270
      2  C          9.3500    0.3500   -1.2850 C.2     1  UNL1        0.3030
      3  O          9.4180   -0.4240   -0.2990 O.2     1  UNL1       -0.2520
      4  O         10.3640    1.2800   -1.4540 O.3     1  UNL1       -0.4810
      5  H         11.0500    1.4130   -0.7060 H       1  UNL1        0.2960
      6  C          7.1020   -0.4800   -1.5930 C.3     1  UNL1        0.0470
      7  C          6.3290    0.3070   -0.6350 C.2     1  UNL1       -0.0470
      8  C          6.1240   -0.1470    0.6470 C.2     1  UNL1        0.0040
      9  C          5.8040    1.5170   -1.0290 C.2     1  UNL1        0.0040
     10  C          5.3770    0.6580    1.5090 C.2     1  UNL1        0.0000
     11  C          5.0650    2.3120   -0.1760 C.2     1  UNL1        0.0000
     12  C          4.8550    1.8630    1.1100 C.2     1  UNL1        0.0000
@<TRIPOS>BOND
     1     1     6    1
     2     1     2    1
     3     6     7    1
     4     4     2    1
     5     4     5    1
     6     2     3    2
     7     9     7    2
     8     9    11    1
     9     7     8    1
    10    11    12    2
    11     8    10    2
    12    12    10    1
