@<TRIPOS>MOLECULE
/home/cewinharhar/GITHUB/reincatalyze/data/processed/docking_pred/2023-Apr-26-1657_maxeplen10_maxtrainstep1000_exh32_gamma099_lrac9e-4_lrcr1e-3/1caf15995fa8372ea76f1cb48e36fe3c815c3a18_ligand_2.pdbqt
 12 12 0 0 0
SMALL
GASTEIGER

@<TRIPOS>ATOM
      1  C          8.2130   -0.9210   -1.8280 C.3     1  UNL1        0.1270
      2  C          8.3070   -1.9840   -2.8560 C.2     1  UNL1        0.3030
      3  O          7.2770   -2.4760   -3.3800 O.2     1  UNL1       -0.2520
      4  O          9.5390   -2.4670   -3.2660 O.3     1  UNL1       -0.4810
      5  H          9.5760   -3.2180   -3.9620 H       1  UNL1        0.2960
      6  C          7.3000   -1.3980   -0.7390 C.3     1  UNL1        0.0470
      7  C          6.5040   -0.3380   -0.1240 C.2     1  UNL1       -0.0470
      8  C          6.0620   -0.4520    1.1740 C.2     1  UNL1        0.0040
      9  C          6.1990    0.7850   -0.8590 C.2     1  UNL1        0.0040
     10  C          5.3070    0.5990    1.6970 C.2     1  UNL1        0.0000
     11  C          5.4510    1.8240   -0.3400 C.2     1  UNL1        0.0000
     12  C          5.0050    1.7160    0.9590 C.2     1  UNL1        0.0000
@<TRIPOS>BOND
     1     5     4    1
     2     3     2    2
     3     4     2    1
     4     2     1    1
     5     1     6    1
     6     9    11    1
     7     9     7    2
     8     6     7    1
     9    11    12    2
    10     7     8    1
    11    12    10    1
    12     8    10    2
