@<TRIPOS>MOLECULE
/home/cewinharhar/GITHUB/reincatalyze/data/processed/docking_pred/2023-Apr-26-1657_maxeplen10_maxtrainstep1000_exh32_gamma099_lrac9e-4_lrcr1e-3/1e16add1d5649bf0b13dd0d86c7d3fc630d89625_ligand_2.pdbqt
 12 12 0 0 0
SMALL
GASTEIGER

@<TRIPOS>ATOM
      1  C          8.3780   -0.4260   -2.0920 C.3     1  UNL1        0.1270
      2  C          8.4500   -1.7190   -2.8120 C.2     1  UNL1        0.3030
      3  O          9.5450   -2.3080   -2.9840 O.2     1  UNL1       -0.2520
      4  O          7.3050   -2.3150   -3.3170 O.3     1  UNL1       -0.4810
      5  H          6.4240   -2.2210   -2.8050 H       1  UNL1        0.2960
      6  C          6.9450    0.0100   -2.0490 C.3     1  UNL1        0.0470
      7  C          6.4010    0.1340   -0.6980 C.2     1  UNL1       -0.0470
      8  C          5.7490    1.2790   -0.3040 C.2     1  UNL1        0.0040
      9  C          6.5460   -0.9140    0.1830 C.2     1  UNL1        0.0040
     10  C          5.2540    1.3270    1.0010 C.2     1  UNL1        0.0000
     11  C          6.0570   -0.8640    1.4730 C.2     1  UNL1        0.0000
     12  C          5.4030    0.2800    1.8750 C.2     1  UNL1        0.0000
@<TRIPOS>BOND
     1     4     2    1
     2     4     5    1
     3     3     2    2
     4     2     1    1
     5     1     6    1
     6     6     7    1
     7     7     8    2
     8     7     9    1
     9     8    10    1
    10     9    11    2
    11    10    12    2
    12    11    12    1
