@<TRIPOS>MOLECULE
/home/cewinharhar/GITHUB/reincatalyze/data/processed/docking_pred/2023-Apr-26-1657_maxeplen10_maxtrainstep1000_exh32_gamma099_lrac9e-4_lrcr1e-3/1e16add1d5649bf0b13dd0d86c7d3fc630d89625_ligand_2.pdbqt
 12 12 0 0 0
SMALL
GASTEIGER

@<TRIPOS>ATOM
      1  C          5.0220    1.7640    0.6990 C.3     1  UNL1        0.1270
      2  C          4.4890    1.1020    1.9130 C.2     1  UNL1        0.3030
      3  O          5.1300    0.1920    2.4940 O.2     1  UNL1       -0.2520
      4  O          3.2620    1.4710    2.4420 O.3     1  UNL1       -0.4810
      5  H          3.0730    2.4600    2.6260 H       1  UNL1        0.2960
      6  C          6.5190    1.7430    0.7710 C.3     1  UNL1        0.0470
      7  C          7.1560    1.0100   -0.3220 C.2     1  UNL1       -0.0470
      8  C          8.4650    1.2560   -0.6650 C.2     1  UNL1        0.0040
      9  C          6.4300    0.0650   -1.0100 C.2     1  UNL1        0.0040
     10  C          9.0090    0.5190   -1.7190 C.2     1  UNL1        0.0000
     11  C          6.9690   -0.6620   -2.0520 C.2     1  UNL1        0.0000
     12  C          8.2800   -0.4220   -2.4020 C.2     1  UNL1        0.0000
@<TRIPOS>BOND
     1    12    11    2
     2    12    10    1
     3    11     9    1
     4    10     8    2
     5     9     7    2
     6     8     7    1
     7     7     6    1
     8     1     6    1
     9     1     2    1
    10     2     4    1
    11     2     3    2
    12     4     5    1
