MODEL 1
REMARK VINA RESULT:      -6.7      0.000      0.000
REMARK SMILES O=C(O)CCc1ccccc1
REMARK SMILES IDX 4 1 2 2 1 3 3 4 5 6 6 7 7 8 11 9 8 10 10 11 9 12
REMARK H PARENT 3 5
REMARK Flexibility Score: inf
ROOT
ATOM      1  C   UNL     1       5.022   1.764   0.699  1.00  0.00     0.127 C 
ENDROOT
BRANCH   1   2
ATOM      2  C   UNL     1       4.489   1.102   1.913  1.00  0.00     0.303 C 
ATOM      3  O   UNL     1       5.130   0.192   2.494  1.00  0.00    -0.252 OA
BRANCH   2   4
ATOM      4  O   UNL     1       3.262   1.471   2.442  1.00  0.00    -0.481 OA
ATOM      5  H   UNL     1       3.073   2.460   2.626  1.00  0.00     0.296 HD
ENDBRANCH   2   4
ENDBRANCH   1   2
BRANCH   1   6
ATOM      6  C   UNL     1       6.519   1.743   0.771  1.00  0.00     0.047 C 
BRANCH   6   7
ATOM      7  C   UNL     1       7.156   1.010  -0.322  1.00  0.00    -0.047 A 
ATOM      8  C   UNL     1       8.465   1.256  -0.665  1.00  0.00     0.004 A 
ATOM      9  C   UNL     1       6.430   0.065  -1.010  1.00  0.00     0.004 A 
ATOM     10  C   UNL     1       9.009   0.519  -1.719  1.00  0.00     0.000 A 
ATOM     11  C   UNL     1       6.969  -0.662  -2.052  1.00  0.00     0.000 A 
ATOM     12  C   UNL     1       8.280  -0.422  -2.402  1.00  0.00     0.000 A 
ENDBRANCH   6   7
ENDBRANCH   1   6
TORSDOF 4
ENDMDL
MODEL 2
REMARK VINA RESULT:      -6.7      0.111      1.438
REMARK SMILES O=C(O)CCc1ccccc1
REMARK SMILES IDX 4 1 2 2 1 3 3 4 5 6 6 7 7 8 11 9 8 10 10 11 9 12
REMARK H PARENT 3 5
REMARK Flexibility Score: inf
ROOT
ATOM      1  C   UNL     1       4.985   1.778   0.669  1.00  0.00     0.127 C 
ENDROOT
BRANCH   1   2
ATOM      2  C   UNL     1       4.480   1.117   1.895  1.00  0.00     0.303 C 
ATOM      3  O   UNL     1       5.141   0.215   2.468  1.00  0.00    -0.252 OA
BRANCH   2   4
ATOM      4  O   UNL     1       3.261   1.476   2.445  1.00  0.00    -0.481 OA
ATOM      5  H   UNL     1       2.558   0.753   2.622  1.00  0.00     0.296 HD
ENDBRANCH   2   4
ENDBRANCH   1   2
BRANCH   1   6
ATOM      6  C   UNL     1       6.483   1.790   0.723  1.00  0.00     0.047 C 
BRANCH   6   7
ATOM      7  C   UNL     1       7.123   1.043  -0.358  1.00  0.00    -0.047 A 
ATOM      8  C   UNL     1       6.402   0.157  -1.123  1.00  0.00     0.004 A 
ATOM      9  C   UNL     1       8.462   1.237  -0.606  1.00  0.00     0.004 A 
ATOM     10  C   UNL     1       7.078  -0.522  -2.140  1.00  0.00     0.000 A 
ATOM     11  C   UNL     1       9.129   0.565  -1.611  1.00  0.00     0.000 A 
ATOM     12  C   UNL     1       8.414  -0.325  -2.382  1.00  0.00     0.000 A 
ENDBRANCH   6   7
ENDBRANCH   1   6
TORSDOF 4
ENDMDL
MODEL 3
REMARK VINA RESULT:      -6.7      3.312      4.995
REMARK SMILES O=C(O)CCc1ccccc1
REMARK SMILES IDX 4 1 2 2 1 3 3 4 5 6 6 7 7 8 11 9 8 10 10 11 9 12
REMARK H PARENT 3 5
REMARK Flexibility Score: inf
ROOT
ATOM      1  C   UNL     1       8.378  -0.426  -2.092  1.00  0.00     0.127 C 
ENDROOT
BRANCH   1   2
ATOM      2  C   UNL     1       8.450  -1.719  -2.812  1.00  0.00     0.303 C 
ATOM      3  O   UNL     1       9.545  -2.308  -2.984  1.00  0.00    -0.252 OA
BRANCH   2   4
ATOM      4  O   UNL     1       7.305  -2.315  -3.317  1.00  0.00    -0.481 OA
ATOM      5  H   UNL     1       6.424  -2.221  -2.805  1.00  0.00     0.296 HD
ENDBRANCH   2   4
ENDBRANCH   1   2
BRANCH   1   6
ATOM      6  C   UNL     1       6.945   0.010  -2.049  1.00  0.00     0.047 C 
BRANCH   6   7
ATOM      7  C   UNL     1       6.401   0.134  -0.698  1.00  0.00    -0.047 A 
ATOM      8  C   UNL     1       5.749   1.279  -0.304  1.00  0.00     0.004 A 
ATOM      9  C   UNL     1       6.546  -0.914   0.183  1.00  0.00     0.004 A 
ATOM     10  C   UNL     1       5.254   1.327   1.001  1.00  0.00     0.000 A 
ATOM     11  C   UNL     1       6.057  -0.864   1.473  1.00  0.00     0.000 A 
ATOM     12  C   UNL     1       5.403   0.280   1.875  1.00  0.00     0.000 A 
ENDBRANCH   6   7
ENDBRANCH   1   6
TORSDOF 4
ENDMDL
MODEL 4
REMARK VINA RESULT:      -6.7      3.311      5.119
REMARK SMILES O=C(O)CCc1ccccc1
REMARK SMILES IDX 4 1 2 2 1 3 3 4 5 6 6 7 7 8 11 9 8 10 10 11 9 12
REMARK H PARENT 3 5
REMARK Flexibility Score: inf
ROOT
ATOM      1  C   UNL     1       8.378  -0.420  -2.161  1.00  0.00     0.127 C 
ENDROOT
BRANCH   1   2
ATOM      2  C   UNL     1       8.445  -1.735  -2.840  1.00  0.00     0.303 C 
ATOM      3  O   UNL     1       7.410  -2.295  -3.278  1.00  0.00    -0.252 OA
BRANCH   2   4
ATOM      4  O   UNL     1       9.657  -2.386  -3.010  1.00  0.00    -0.481 OA
ATOM      5  H   UNL     1      10.339  -2.383  -2.246  1.00  0.00     0.296 HD
ENDBRANCH   2   4
ENDBRANCH   1   2
BRANCH   1   6
ATOM      6  C   UNL     1       6.943   0.004  -2.096  1.00  0.00     0.047 C 
BRANCH   6   7
ATOM      7  C   UNL     1       6.418   0.120  -0.737  1.00  0.00    -0.047 A 
ATOM      8  C   UNL     1       6.566  -0.909   0.165  1.00  0.00     0.004 A 
ATOM      9  C   UNL     1       5.772   1.275  -0.363  1.00  0.00     0.004 A 
ATOM     10  C   UNL     1       6.040  -0.729   1.446  1.00  0.00     0.000 A 
ATOM     11  C   UNL     1       5.253   1.452   0.905  1.00  0.00     0.000 A 
ATOM     12  C   UNL     1       5.396   0.426   1.813  1.00  0.00     0.000 A 
ENDBRANCH   6   7
ENDBRANCH   1   6
TORSDOF 4
ENDMDL
MODEL 5
REMARK VINA RESULT:      -6.7      3.589      5.136
REMARK SMILES O=C(O)CCc1ccccc1
REMARK SMILES IDX 4 1 2 2 1 3 3 4 5 6 6 7 7 8 11 9 8 10 10 11 9 12
REMARK H PARENT 3 5
REMARK Flexibility Score: inf
ROOT
ATOM      1  C   UNL     1       7.845  -0.769  -2.247  1.00  0.00     0.127 C 
ENDROOT
BRANCH   1   2
ATOM      2  C   UNL     1       8.311  -1.962  -2.992  1.00  0.00     0.303 C 
ATOM      3  O   UNL     1       9.513  -2.323  -2.956  1.00  0.00    -0.252 OA
BRANCH   2   4
ATOM      4  O   UNL     1       7.429  -2.714  -3.751  1.00  0.00    -0.481 OA
ATOM      5  H   UNL     1       6.426  -2.521  -3.691  1.00  0.00     0.296 HD
ENDBRANCH   2   4
ENDBRANCH   1   2
BRANCH   1   6
ATOM      6  C   UNL     1       7.372  -1.212  -0.896  1.00  0.00     0.047 C 
BRANCH   6   7
ATOM      7  C   UNL     1       6.542  -0.228  -0.204  1.00  0.00    -0.047 A 
ATOM      8  C   UNL     1       6.154  -0.428   1.101  1.00  0.00     0.004 A 
ATOM      9  C   UNL     1       6.150   0.909  -0.872  1.00  0.00     0.004 A 
ATOM     10  C   UNL     1       5.362   0.555   1.700  1.00  0.00     0.000 A 
ATOM     11  C   UNL     1       5.366   1.879  -0.279  1.00  0.00     0.000 A 
ATOM     12  C   UNL     1       4.973   1.686   1.027  1.00  0.00     0.000 A 
ENDBRANCH   6   7
ENDBRANCH   1   6
TORSDOF 4
ENDMDL
