@<TRIPOS>MOLECULE
/home/cewinharhar/GITHUB/reincatalyze/data/processed/docking_pred/2023-Apr-26-1657_maxeplen10_maxtrainstep1000_exh32_gamma099_lrac9e-4_lrcr1e-3/1e16add1d5649bf0b13dd0d86c7d3fc630d89625_ligand_2.pdbqt
 12 12 0 0 0
SMALL
GASTEIGER

@<TRIPOS>ATOM
      1  C          7.8450   -0.7690   -2.2470 C.3     1  UNL1        0.1270
      2  C          8.3110   -1.9620   -2.9920 C.2     1  UNL1        0.3030
      3  O          9.5130   -2.3230   -2.9560 O.2     1  UNL1       -0.2520
      4  O          7.4290   -2.7140   -3.7510 O.3     1  UNL1       -0.4810
      5  H          6.4260   -2.5210   -3.6910 H       1  UNL1        0.2960
      6  C          7.3720   -1.2120   -0.8960 C.3     1  UNL1        0.0470
      7  C          6.5420   -0.2280   -0.2040 C.2     1  UNL1       -0.0470
      8  C          6.1540   -0.4280    1.1010 C.2     1  UNL1        0.0040
      9  C          6.1500    0.9090   -0.8720 C.2     1  UNL1        0.0040
     10  C          5.3620    0.5550    1.7000 C.2     1  UNL1        0.0000
     11  C          5.3660    1.8790   -0.2790 C.2     1  UNL1        0.0000
     12  C          4.9730    1.6860    1.0270 C.2     1  UNL1        0.0000
@<TRIPOS>BOND
     1     4     5    1
     2     4     2    1
     3     2     3    2
     4     2     1    1
     5     1     6    1
     6     6     7    1
     7     9    11    1
     8     9     7    2
     9    11    12    2
    10     7     8    1
    11    12    10    1
    12     8    10    2
