@<TRIPOS>MOLECULE
/home/cewinharhar/GITHUB/reincatalyze/data/processed/docking_pred/2023-Apr-26-1657_maxeplen10_maxtrainstep1000_exh32_gamma099_lrac9e-4_lrcr1e-3/1e16add1d5649bf0b13dd0d86c7d3fc630d89625_ligand_2.pdbqt
 12 12 0 0 0
SMALL
GASTEIGER

@<TRIPOS>ATOM
      1  C          8.3780   -0.4200   -2.1610 C.3     1  UNL1        0.1270
      2  C          8.4450   -1.7350   -2.8400 C.2     1  UNL1        0.3030
      3  O          7.4100   -2.2950   -3.2780 O.2     1  UNL1       -0.2520
      4  O          9.6570   -2.3860   -3.0100 O.3     1  UNL1       -0.4810
      5  H         10.3390   -2.3830   -2.2460 H       1  UNL1        0.2960
      6  C          6.9430    0.0040   -2.0960 C.3     1  UNL1        0.0470
      7  C          6.4180    0.1200   -0.7370 C.2     1  UNL1       -0.0470
      8  C          6.5660   -0.9090    0.1650 C.2     1  UNL1        0.0040
      9  C          5.7720    1.2750   -0.3630 C.2     1  UNL1        0.0040
     10  C          6.0400   -0.7290    1.4460 C.2     1  UNL1        0.0000
     11  C          5.2530    1.4520    0.9050 C.2     1  UNL1        0.0000
     12  C          5.3960    0.4260    1.8130 C.2     1  UNL1        0.0000
@<TRIPOS>BOND
     1     3     2    2
     2     4     2    1
     3     4     5    1
     4     2     1    1
     5     1     6    1
     6     6     7    1
     7     7     9    2
     8     7     8    1
     9     9    11    1
    10     8    10    2
    11    11    12    2
    12    10    12    1
