@<TRIPOS>MOLECULE
/home/cewinharhar/GITHUB/reincatalyze/data/processed/docking_pred/2023-Apr-26-1657_maxeplen10_maxtrainstep1000_exh32_gamma099_lrac9e-4_lrcr1e-3/1e16add1d5649bf0b13dd0d86c7d3fc630d89625_ligand_2.pdbqt
 12 12 0 0 0
SMALL
GASTEIGER

@<TRIPOS>ATOM
      1  C          4.9850    1.7780    0.6690 C.3     1  UNL1        0.1270
      2  C          4.4800    1.1170    1.8950 C.2     1  UNL1        0.3030
      3  O          5.1410    0.2150    2.4680 O.2     1  UNL1       -0.2520
      4  O          3.2610    1.4760    2.4450 O.3     1  UNL1       -0.4810
      5  H          2.5580    0.7530    2.6220 H       1  UNL1        0.2960
      6  C          6.4830    1.7900    0.7230 C.3     1  UNL1        0.0470
      7  C          7.1230    1.0430   -0.3580 C.2     1  UNL1       -0.0470
      8  C          6.4020    0.1570   -1.1230 C.2     1  UNL1        0.0040
      9  C          8.4620    1.2370   -0.6060 C.2     1  UNL1        0.0040
     10  C          7.0780   -0.5220   -2.1400 C.2     1  UNL1        0.0000
     11  C          9.1290    0.5650   -1.6110 C.2     1  UNL1        0.0000
     12  C          8.4140   -0.3250   -2.3820 C.2     1  UNL1        0.0000
@<TRIPOS>BOND
     1    12    10    2
     2    12    11    1
     3    10     8    1
     4    11     9    2
     5     8     7    2
     6     9     7    1
     7     7     6    1
     8     1     6    1
     9     1     2    1
    10     2     4    1
    11     2     3    2
    12     4     5    1
