@<TRIPOS>MOLECULE
/home/cewinharhar/GITHUB/reincatalyze/data/processed/docking_pred/2023-Apr-26-1657_maxeplen10_maxtrainstep1000_exh32_gamma099_lrac9e-4_lrcr1e-3/1e20ac6c45a20644dde897fa0fc5711864bcd284_ligand_2.pdbqt
 12 12 0 0 0
SMALL
GASTEIGER

@<TRIPOS>ATOM
      1  C          5.0100    1.7720    0.6860 C.3     1  UNL1        0.1270
      2  C          4.4960    1.1050    1.9060 C.2     1  UNL1        0.3030
      3  O          5.1520    0.1990    2.4780 O.2     1  UNL1       -0.2520
      4  O          3.2740    1.4640    2.4500 O.3     1  UNL1       -0.4810
      5  H          3.2260    1.7440    3.4340 H       1  UNL1        0.2960
      6  C          6.5070    1.7750    0.7470 C.3     1  UNL1        0.0470
      7  C          7.1470    1.0290   -0.3350 C.2     1  UNL1       -0.0470
      8  C          8.4710    1.2380   -0.6460 C.2     1  UNL1        0.0040
      9  C          6.4110    0.1070   -1.0430 C.2     1  UNL1        0.0040
     10  C          9.0170    0.4890   -1.6910 C.2     1  UNL1        0.0000
     11  C          6.9520   -0.6320   -2.0760 C.2     1  UNL1        0.0000
     12  C          8.2770   -0.4280   -2.3940 C.2     1  UNL1        0.0000
@<TRIPOS>BOND
     1    12    11    2
     2    12    10    1
     3    11     9    1
     4    10     8    2
     5     9     7    2
     6     8     7    1
     7     7     6    1
     8     1     6    1
     9     1     2    1
    10     2     4    1
    11     2     3    2
    12     4     5    1
