@<TRIPOS>MOLECULE
/home/cewinharhar/GITHUB/reincatalyze/data/processed/docking_pred/2023-Apr-26-1657_maxeplen10_maxtrainstep1000_exh32_gamma099_lrac9e-4_lrcr1e-3/1e20ac6c45a20644dde897fa0fc5711864bcd284_ligand_2.pdbqt
 12 12 0 0 0
SMALL
GASTEIGER

@<TRIPOS>ATOM
      1  C          8.2850   -0.9190   -1.8980 C.3     1  UNL1        0.1270
      2  C          8.4100   -2.0390   -2.8610 C.2     1  UNL1        0.3030
      3  O          9.5250   -2.5540   -3.1190 O.2     1  UNL1       -0.2520
      4  O          7.2940   -2.5490   -3.5050 O.3     1  UNL1       -0.4810
      5  H          7.4160   -3.0920   -4.3640 H       1  UNL1        0.2960
      6  C          7.5160   -1.4060   -0.7080 C.3     1  UNL1        0.0470
      7  C          6.6490   -0.3940   -0.1060 C.2     1  UNL1       -0.0470
      8  C          6.1870   -0.5400    1.1820 C.2     1  UNL1        0.0040
      9  C          6.2990    0.7140   -0.8420 C.2     1  UNL1        0.0040
     10  C          5.3630    0.4660    1.6920 C.2     1  UNL1        0.0000
     11  C          5.4840    1.7070   -0.3360 C.2     1  UNL1        0.0000
     12  C          5.0160    1.5690    0.9530 C.2     1  UNL1        0.0000
@<TRIPOS>BOND
     1     5     4    1
     2     4     2    1
     3     3     2    2
     4     2     1    1
     5     1     6    1
     6     9    11    1
     7     9     7    2
     8     6     7    1
     9    11    12    2
    10     7     8    1
    11    12    10    1
    12     8    10    2
