@<TRIPOS>MOLECULE
/home/cewinharhar/GITHUB/reincatalyze/data/processed/docking_pred/2023-Apr-26-1657_maxeplen10_maxtrainstep1000_exh32_gamma099_lrac9e-4_lrcr1e-3/1e20ac6c45a20644dde897fa0fc5711864bcd284_ligand_2.pdbqt
 12 12 0 0 0
SMALL
GASTEIGER

@<TRIPOS>ATOM
      1  C          8.2400    0.1530   -2.1680 C.3     1  UNL1        0.1270
      2  C          9.3730    0.3330   -1.2300 C.2     1  UNL1        0.3030
      3  O          9.4870   -0.3800   -0.2030 O.2     1  UNL1       -0.2520
      4  O         10.3410    1.2970   -1.4630 O.3     1  UNL1       -0.4810
      5  H         10.5000    2.0260   -0.7620 H       1  UNL1        0.2960
      6  C          7.1580   -0.6040   -1.4590 C.3     1  UNL1        0.0470
      7  C          6.3670    0.2120   -0.5390 C.2     1  UNL1       -0.0470
      8  C          6.1370   -0.2070    0.7510 C.2     1  UNL1        0.0040
      9  C          5.8530    1.4100   -0.9760 C.2     1  UNL1        0.0040
     10  C          5.3750    0.6230    1.5760 C.2     1  UNL1        0.0000
     11  C          5.0990    2.2290   -0.1590 C.2     1  UNL1        0.0000
     12  C          4.8630    1.8170    1.1340 C.2     1  UNL1        0.0000
@<TRIPOS>BOND
     1     1     6    1
     2     1     2    1
     3     4     2    1
     4     4     5    1
     5     6     7    1
     6     2     3    2
     7     9     7    2
     8     9    11    1
     9     7     8    1
    10    11    12    2
    11     8    10    2
    12    12    10    1
