@<TRIPOS>MOLECULE
/home/cewinharhar/GITHUB/reincatalyze/data/processed/docking_pred/2023-Apr-26-1657_maxeplen10_maxtrainstep1000_exh32_gamma099_lrac9e-4_lrcr1e-3/1e20ac6c45a20644dde897fa0fc5711864bcd284_ligand_2.pdbqt
 12 12 0 0 0
SMALL
GASTEIGER

@<TRIPOS>ATOM
      1  C          8.4360   -0.6930   -2.0060 C.3     1  UNL1        0.1270
      2  C          8.3910   -1.9060   -2.8560 C.2     1  UNL1        0.3030
      3  O          7.2980   -2.4040   -3.2220 O.2     1  UNL1       -0.2520
      4  O          9.5590   -2.5250   -3.2720 O.3     1  UNL1       -0.4810
      5  H         10.3250   -1.9540   -3.6410 H       1  UNL1        0.2960
      6  C          7.0880   -0.0400   -2.0460 C.3     1  UNL1        0.0470
      7  C          6.4760    0.1410   -0.7310 C.2     1  UNL1       -0.0470
      8  C          5.7720    1.2850   -0.4350 C.2     1  UNL1        0.0040
      9  C          6.6090   -0.8500    0.2130 C.2     1  UNL1        0.0040
     10  C          5.2130    1.3900    0.8410 C.2     1  UNL1        0.0000
     11  C          6.0560   -0.7450    1.4740 C.2     1  UNL1        0.0000
     12  C          5.3500    0.3990    1.7800 C.2     1  UNL1        0.0000
@<TRIPOS>BOND
     1     5     4    1
     2     4     2    1
     3     3     2    2
     4     2     1    1
     5     6     1    1
     6     6     7    1
     7     7     8    2
     8     7     9    1
     9     8    10    1
    10     9    11    2
    11    10    12    2
    12    11    12    1
