@<TRIPOS>MOLECULE
/home/cewinharhar/GITHUB/reincatalyze/data/processed/docking_pred/2023-Apr-26-1657_maxeplen10_maxtrainstep1000_exh32_gamma099_lrac9e-4_lrcr1e-3/1e20ac6c45a20644dde897fa0fc5711864bcd284_ligand_2.pdbqt
 12 12 0 0 0
SMALL
GASTEIGER

@<TRIPOS>ATOM
      1  C          8.4730   -0.6020   -2.1830 C.3     1  UNL1        0.1270
      2  C          8.4910   -1.8900   -2.9160 C.2     1  UNL1        0.3030
      3  O          9.5610   -2.5210   -3.0960 O.2     1  UNL1       -0.2520
      4  O          7.3220   -2.4340   -3.4240 O.3     1  UNL1       -0.4810
      5  H          6.4560   -1.8900   -3.3780 H       1  UNL1        0.2960
      6  C          7.0630   -0.0970   -2.1530 C.3     1  UNL1        0.0470
      7  C          6.5110    0.0470   -0.8060 C.2     1  UNL1       -0.0470
      8  C          6.6360   -0.9650    0.1160 C.2     1  UNL1        0.0040
      9  C          5.8640    1.2130   -0.4670 C.2     1  UNL1        0.0040
     10  C          6.0860   -0.7590    1.3840 C.2     1  UNL1        0.0000
     11  C          5.3210    1.4150    0.7860 C.2     1  UNL1        0.0000
     12  C          5.4400    0.4050    1.7160 C.2     1  UNL1        0.0000
@<TRIPOS>BOND
     1     4     5    1
     2     4     2    1
     3     3     2    2
     4     2     1    1
     5     1     6    1
     6     6     7    1
     7     7     9    2
     8     7     8    1
     9     9    11    1
    10     8    10    2
    11    11    12    2
    12    10    12    1
