MODEL 1
REMARK VINA RESULT:      -5.5      0.000      0.000
REMARK SMILES O=C(O)CCc1ccccc1
REMARK SMILES IDX 4 1 2 2 1 3 3 4 5 6 6 7 7 8 11 9 8 10 10 11 9 12
REMARK H PARENT 3 5
REMARK Flexibility Score: inf
ROOT
ATOM      1  C   UNL     1       6.314  -0.517   2.745  1.00  0.00     0.127 C 
ENDROOT
BRANCH   1   2
ATOM      2  C   UNL     1       7.078  -1.476   1.912  1.00  0.00     0.303 C 
ATOM      3  O   UNL     1       8.247  -1.220   1.532  1.00  0.00    -0.252 OA
BRANCH   2   4
ATOM      4  O   UNL     1       6.519  -2.685   1.528  1.00  0.00    -0.481 OA
ATOM      5  H   UNL     1       6.423  -2.898   0.531  1.00  0.00     0.296 HD
ENDBRANCH   2   4
ENDBRANCH   1   2
BRANCH   1   6
ATOM      6  C   UNL     1       5.205   0.051   1.913  1.00  0.00     0.047 C 
BRANCH   6   7
ATOM      7  C   UNL     1       5.521   1.342   1.304  1.00  0.00    -0.047 A 
ATOM      8  C   UNL     1       4.896   1.745   0.146  1.00  0.00     0.004 A 
ATOM      9  C   UNL     1       6.452   2.157   1.904  1.00  0.00     0.004 A 
ATOM     10  C   UNL     1       5.246   2.991  -0.379  1.00  0.00     0.000 A 
ATOM     11  C   UNL     1       6.796   3.389   1.383  1.00  0.00     0.000 A 
ATOM     12  C   UNL     1       6.176   3.800   0.223  1.00  0.00     0.000 A 
ENDBRANCH   6   7
ENDBRANCH   1   6
TORSDOF 4
ENDMDL
MODEL 2
REMARK VINA RESULT:      -5.5      0.140      1.440
REMARK SMILES O=C(O)CCc1ccccc1
REMARK SMILES IDX 4 1 2 2 1 3 3 4 5 6 6 7 7 8 11 9 8 10 10 11 9 12
REMARK H PARENT 3 5
REMARK Flexibility Score: inf
ROOT
ATOM      1  C   UNL     1       6.448  -0.568   2.772  1.00  0.00     0.127 C 
ENDROOT
BRANCH   1   2
ATOM      2  C   UNL     1       7.169  -1.524   1.899  1.00  0.00     0.303 C 
ATOM      3  O   UNL     1       8.325  -1.276   1.477  1.00  0.00    -0.252 OA
BRANCH   2   4
ATOM      4  O   UNL     1       6.583  -2.723   1.523  1.00  0.00    -0.481 OA
ATOM      5  H   UNL     1       5.615  -2.914   1.795  1.00  0.00     0.296 HD
ENDBRANCH   2   4
ENDBRANCH   1   2
BRANCH   1   6
ATOM      6  C   UNL     1       5.296  -0.001   2.000  1.00  0.00     0.047 C 
BRANCH   6   7
ATOM      7  C   UNL     1       5.572   1.299   1.390  1.00  0.00    -0.047 A 
ATOM      8  C   UNL     1       6.553   2.120   1.897  1.00  0.00     0.004 A 
ATOM      9  C   UNL     1       4.837   1.697   0.297  1.00  0.00     0.004 A 
ATOM     10  C   UNL     1       6.762   3.347   1.264  1.00  0.00     0.000 A 
ATOM     11  C   UNL     1       5.045   2.911  -0.327  1.00  0.00     0.000 A 
ATOM     12  C   UNL     1       6.026   3.739   0.174  1.00  0.00     0.000 A 
ENDBRANCH   6   7
ENDBRANCH   1   6
TORSDOF 4
ENDMDL
MODEL 3
REMARK VINA RESULT:      -3.8     11.808     14.226
REMARK SMILES O=C(O)CCc1ccccc1
REMARK SMILES IDX 4 1 2 2 1 3 3 4 5 6 6 7 7 8 11 9 8 10 10 11 9 12
REMARK H PARENT 3 5
REMARK Flexibility Score: inf
ROOT
ATOM      1  C   UNL     1       8.285  -6.298  10.552  1.00  0.00     0.127 C 
ENDROOT
BRANCH   1   2
ATOM      2  C   UNL     1       8.427  -4.948  11.145  1.00  0.00     0.303 C 
ATOM      3  O   UNL     1       9.339  -4.692  11.970  1.00  0.00    -0.252 OA
BRANCH   2   4
ATOM      4  O   UNL     1       7.555  -3.927  10.803  1.00  0.00    -0.481 OA
ATOM      5  H   UNL     1       7.907  -2.968  10.736  1.00  0.00     0.296 HD
ENDBRANCH   2   4
ENDBRANCH   1   2
BRANCH   1   6
ATOM      6  C   UNL     1       9.654  -6.828  10.253  1.00  0.00     0.047 C 
BRANCH   6   7
ATOM      7  C   UNL     1       9.930  -8.133  10.851  1.00  0.00    -0.047 A 
ATOM      8  C   UNL     1       9.200  -8.582  11.927  1.00  0.00     0.004 A 
ATOM      9  C   UNL     1      10.932  -8.915  10.324  1.00  0.00     0.004 A 
ATOM     10  C   UNL     1       9.517  -9.839  12.447  1.00  0.00     0.000 A 
ATOM     11  C   UNL     1      11.245 -10.157  10.840  1.00  0.00     0.000 A 
ATOM     12  C   UNL     1      10.518 -10.614  11.918  1.00  0.00     0.000 A 
ENDBRANCH   6   7
ENDBRANCH   1   6
TORSDOF 4
ENDMDL
MODEL 4
REMARK VINA RESULT:      -3.7     11.400     13.195
REMARK SMILES O=C(O)CCc1ccccc1
REMARK SMILES IDX 4 1 2 2 1 3 3 4 5 6 6 7 7 8 11 9 8 10 10 11 9 12
REMARK H PARENT 3 5
REMARK Flexibility Score: inf
ROOT
ATOM      1  C   UNL     1       8.054  -5.512  11.795  1.00  0.00     0.127 C 
ENDROOT
BRANCH   1   2
ATOM      2  C   UNL     1       7.695  -4.148  11.340  1.00  0.00     0.303 C 
ATOM      3  O   UNL     1       7.540  -3.889  10.121  1.00  0.00    -0.252 OA
BRANCH   2   4
ATOM      4  O   UNL     1       7.521  -3.118  12.250  1.00  0.00    -0.481 OA
ATOM      5  H   UNL     1       7.761  -2.161  11.976  1.00  0.00     0.296 HD
ENDBRANCH   2   4
ENDBRANCH   1   2
BRANCH   1   6
ATOM      6  C   UNL     1       8.522  -6.297  10.608  1.00  0.00     0.047 C 
BRANCH   6   7
ATOM      7  C   UNL     1       9.878  -6.826  10.742  1.00  0.00    -0.047 A 
ATOM      8  C   UNL     1      10.142  -8.154  10.500  1.00  0.00     0.004 A 
ATOM      9  C   UNL     1      10.896  -5.977  11.113  1.00  0.00     0.004 A 
ATOM     10  C   UNL     1      11.461  -8.589  10.647  1.00  0.00     0.000 A 
ATOM     11  C   UNL     1      12.199  -6.410  11.258  1.00  0.00     0.000 A 
ATOM     12  C   UNL     1      12.472  -7.739  11.018  1.00  0.00     0.000 A 
ENDBRANCH   6   7
ENDBRANCH   1   6
TORSDOF 4
ENDMDL
MODEL 5
REMARK VINA RESULT:      -3.6     11.521     13.317
REMARK SMILES O=C(O)CCc1ccccc1
REMARK SMILES IDX 4 1 2 2 1 3 3 4 5 6 6 7 7 8 11 9 8 10 10 11 9 12
REMARK H PARENT 3 5
REMARK Flexibility Score: inf
ROOT
ATOM      1  C   UNL     1       8.083  -5.758  11.675  1.00  0.00     0.127 C 
ENDROOT
BRANCH   1   2
ATOM      2  C   UNL     1       7.860  -4.322  11.383  1.00  0.00     0.303 C 
ATOM      3  O   UNL     1       7.927  -3.455  12.290  1.00  0.00    -0.252 OA
BRANCH   2   4
ATOM      4  O   UNL     1       7.569  -3.896  10.098  1.00  0.00    -0.481 OA
ATOM      5  H   UNL     1       7.831  -2.948   9.813  1.00  0.00     0.296 HD
ENDBRANCH   2   4
ENDBRANCH   1   2
BRANCH   1   6
ATOM      6  C   UNL     1       8.524  -6.431  10.411  1.00  0.00     0.047 C 
BRANCH   6   7
ATOM      7  C   UNL     1       9.809  -7.120  10.522  1.00  0.00    -0.047 A 
ATOM      8  C   UNL     1      10.987  -6.452  10.283  1.00  0.00     0.004 A 
ATOM      9  C   UNL     1       9.829  -8.451  10.871  1.00  0.00     0.004 A 
ATOM     10  C   UNL     1      12.177  -7.173  10.408  1.00  0.00     0.000 A 
ATOM     11  C   UNL     1      11.007  -9.161  10.994  1.00  0.00     0.000 A 
ATOM     12  C   UNL     1      12.192  -8.500  10.755  1.00  0.00     0.000 A 
ENDBRANCH   6   7
ENDBRANCH   1   6
TORSDOF 4
ENDMDL
