@<TRIPOS>MOLECULE
/home/cewinharhar/GITHUB/reincatalyze/data/processed/docking_pred/2023-Apr-26-1657_maxeplen10_maxtrainstep1000_exh32_gamma099_lrac9e-4_lrcr1e-3/1e8ffecbec14ce573bf52adb8829230239be76a8_ligand_2.pdbqt
 12 12 0 0 0
SMALL
GASTEIGER

@<TRIPOS>ATOM
      1  C          8.0540   -5.5120   11.7950 C.3     1  UNL1        0.1270
      2  C          7.6950   -4.1480   11.3400 C.2     1  UNL1        0.3030
      3  O          7.5400   -3.8890   10.1210 O.2     1  UNL1       -0.2520
      4  O          7.5210   -3.1180   12.2500 O.3     1  UNL1       -0.4810
      5  H          7.7610   -2.1610   11.9760 H       1  UNL1        0.2960
      6  C          8.5220   -6.2970   10.6080 C.3     1  UNL1        0.0470
      7  C          9.8780   -6.8260   10.7420 C.2     1  UNL1       -0.0470
      8  C         10.1420   -8.1540   10.5000 C.2     1  UNL1        0.0040
      9  C         10.8960   -5.9770   11.1130 C.2     1  UNL1        0.0040
     10  C         11.4610   -8.5890   10.6470 C.2     1  UNL1        0.0000
     11  C         12.1990   -6.4100   11.2580 C.2     1  UNL1        0.0000
     12  C         12.4720   -7.7390   11.0180 C.2     1  UNL1        0.0000
@<TRIPOS>BOND
     1     3     2    2
     2     8    10    1
     3     8     7    2
     4     6     7    1
     5     6     1    1
     6    10    12    2
     7     7     9    1
     8    12    11    1
     9     9    11    2
    10     2     1    1
    11     2     4    1
    12     5     4    1
