@<TRIPOS>MOLECULE
/home/cewinharhar/GITHUB/reincatalyze/data/processed/docking_pred/2023-Apr-26-1657_maxeplen10_maxtrainstep1000_exh32_gamma099_lrac9e-4_lrcr1e-3/1e8ffecbec14ce573bf52adb8829230239be76a8_ligand_2.pdbqt
 12 12 0 0 0
SMALL
GASTEIGER

@<TRIPOS>ATOM
      1  C          6.4480   -0.5680    2.7720 C.3     1  UNL1        0.1270
      2  C          7.1690   -1.5240    1.8990 C.2     1  UNL1        0.3030
      3  O          8.3250   -1.2760    1.4770 O.2     1  UNL1       -0.2520
      4  O          6.5830   -2.7230    1.5230 O.3     1  UNL1       -0.4810
      5  H          5.6150   -2.9140    1.7950 H       1  UNL1        0.2960
      6  C          5.2960   -0.0010    2.0000 C.3     1  UNL1        0.0470
      7  C          5.5720    1.2990    1.3900 C.2     1  UNL1       -0.0470
      8  C          6.5530    2.1200    1.8970 C.2     1  UNL1        0.0040
      9  C          4.8370    1.6970    0.2970 C.2     1  UNL1        0.0040
     10  C          6.7620    3.3470    1.2640 C.2     1  UNL1        0.0000
     11  C          5.0450    2.9110   -0.3270 C.2     1  UNL1        0.0000
     12  C          6.0260    3.7390    0.1740 C.2     1  UNL1        0.0000
@<TRIPOS>BOND
     1    11    12    2
     2    11     9    1
     3    12    10    1
     4     9     7    2
     5    10     8    2
     6     7     8    1
     7     7     6    1
     8     3     2    2
     9     4     5    1
    10     4     2    1
    11     2     1    1
    12     6     1    1
