@<TRIPOS>MOLECULE
/home/cewinharhar/GITHUB/reincatalyze/data/processed/docking_pred/2023-Apr-26-1657_maxeplen10_maxtrainstep1000_exh32_gamma099_lrac9e-4_lrcr1e-3/1e8ffecbec14ce573bf52adb8829230239be76a8_ligand_2.pdbqt
 12 12 0 0 0
SMALL
GASTEIGER

@<TRIPOS>ATOM
      1  C          8.0830   -5.7580   11.6750 C.3     1  UNL1        0.1270
      2  C          7.8600   -4.3220   11.3830 C.2     1  UNL1        0.3030
      3  O          7.9270   -3.4550   12.2900 O.2     1  UNL1       -0.2520
      4  O          7.5690   -3.8960   10.0980 O.3     1  UNL1       -0.4810
      5  H          7.8310   -2.9480    9.8130 H       1  UNL1        0.2960
      6  C          8.5240   -6.4310   10.4110 C.3     1  UNL1        0.0470
      7  C          9.8090   -7.1200   10.5220 C.2     1  UNL1       -0.0470
      8  C         10.9870   -6.4520   10.2830 C.2     1  UNL1        0.0040
      9  C          9.8290   -8.4510   10.8710 C.2     1  UNL1        0.0040
     10  C         12.1770   -7.1730   10.4080 C.2     1  UNL1        0.0000
     11  C         11.0070   -9.1610   10.9940 C.2     1  UNL1        0.0000
     12  C         12.1920   -8.5000   10.7550 C.2     1  UNL1        0.0000
@<TRIPOS>BOND
     1     5     4    1
     2     4     2    1
     3     8    10    1
     4     8     7    2
     5    10    12    2
     6     6     7    1
     7     6     1    1
     8     7     9    1
     9    12    11    1
    10     9    11    2
    11     2     1    1
    12     2     3    2
