@<TRIPOS>MOLECULE
/home/cewinharhar/GITHUB/reincatalyze/data/processed/docking_pred/2023-Apr-26-1657_maxeplen10_maxtrainstep1000_exh32_gamma099_lrac9e-4_lrcr1e-3/1e8ffecbec14ce573bf52adb8829230239be76a8_ligand_2.pdbqt
 12 12 0 0 0
SMALL
GASTEIGER

@<TRIPOS>ATOM
      1  C          6.3140   -0.5170    2.7450 C.3     1  UNL1        0.1270
      2  C          7.0780   -1.4760    1.9120 C.2     1  UNL1        0.3030
      3  O          8.2470   -1.2200    1.5320 O.2     1  UNL1       -0.2520
      4  O          6.5190   -2.6850    1.5280 O.3     1  UNL1       -0.4810
      5  H          6.4230   -2.8980    0.5310 H       1  UNL1        0.2960
      6  C          5.2050    0.0510    1.9130 C.3     1  UNL1        0.0470
      7  C          5.5210    1.3420    1.3040 C.2     1  UNL1       -0.0470
      8  C          4.8960    1.7450    0.1460 C.2     1  UNL1        0.0040
      9  C          6.4520    2.1570    1.9040 C.2     1  UNL1        0.0040
     10  C          5.2460    2.9910   -0.3790 C.2     1  UNL1        0.0000
     11  C          6.7960    3.3890    1.3830 C.2     1  UNL1        0.0000
     12  C          6.1760    3.8000    0.2230 C.2     1  UNL1        0.0000
@<TRIPOS>BOND
     1    10     8    1
     2    10    12    2
     3     8     7    2
     4    12    11    1
     5     5     4    1
     6     7     9    1
     7     7     6    1
     8    11     9    2
     9     4     2    1
    10     3     2    2
    11     2     1    1
    12     6     1    1
