@<TRIPOS>MOLECULE
/home/cewinharhar/GITHUB/reincatalyze/data/processed/docking_pred/2023-Apr-26-1657_maxeplen10_maxtrainstep1000_exh32_gamma099_lrac9e-4_lrcr1e-3/1e8ffecbec14ce573bf52adb8829230239be76a8_ligand_2.pdbqt
 12 12 0 0 0
SMALL
GASTEIGER

@<TRIPOS>ATOM
      1  C          8.2850   -6.2980   10.5520 C.3     1  UNL1        0.1270
      2  C          8.4270   -4.9480   11.1450 C.2     1  UNL1        0.3030
      3  O          9.3390   -4.6920   11.9700 O.2     1  UNL1       -0.2520
      4  O          7.5550   -3.9270   10.8030 O.3     1  UNL1       -0.4810
      5  H          7.9070   -2.9680   10.7360 H       1  UNL1        0.2960
      6  C          9.6540   -6.8280   10.2530 C.3     1  UNL1        0.0470
      7  C          9.9300   -8.1330   10.8510 C.2     1  UNL1       -0.0470
      8  C          9.2000   -8.5820   11.9270 C.2     1  UNL1        0.0040
      9  C         10.9320   -8.9150   10.3240 C.2     1  UNL1        0.0040
     10  C          9.5170   -9.8390   12.4470 C.2     1  UNL1        0.0000
     11  C         11.2450  -10.1570   10.8400 C.2     1  UNL1        0.0000
     12  C         10.5180  -10.6140   11.9180 C.2     1  UNL1        0.0000
@<TRIPOS>BOND
     1     6     1    1
     2     6     7    1
     3     9    11    1
     4     9     7    2
     5     1     2    1
     6     5     4    1
     7     4     2    1
     8    11    12    2
     9     7     8    1
    10     2     3    2
    11    12    10    1
    12     8    10    2
