@<TRIPOS>MOLECULE
/home/cewinharhar/GITHUB/reincatalyze/data/processed/docking_pred/2023-Apr-26-1657_maxeplen10_maxtrainstep1000_exh32_gamma099_lrac9e-4_lrcr1e-3/1ec3d4ded79b7f38a98788c4b0a5da992fc20b58_ligand_2.pdbqt
 12 12 0 0 0
SMALL
GASTEIGER

@<TRIPOS>ATOM
      1  C          8.4130   -0.6160   -2.1220 C.3     1  UNL1        0.1270
      2  C          8.4650   -1.8870   -2.8830 C.2     1  UNL1        0.3030
      3  O          9.5540   -2.4790   -3.0860 O.2     1  UNL1       -0.2520
      4  O          7.3100   -2.4560   -3.3940 O.3     1  UNL1       -0.4810
      5  H          7.3130   -3.4460   -3.6550 H       1  UNL1        0.2960
      6  C          6.9940   -0.1350   -2.1070 C.3     1  UNL1        0.0470
      7  C          6.4500    0.0690   -0.7650 C.2     1  UNL1       -0.0470
      8  C          5.8180    1.2450   -0.4340 C.2     1  UNL1        0.0040
      9  C          6.5730   -0.9340    0.1680 C.2     1  UNL1        0.0040
     10  C          5.3210    1.3700    0.8660 C.2     1  UNL1        0.0000
     11  C          6.0810   -0.8090    1.4520 C.2     1  UNL1        0.0000
     12  C          5.4480    0.3660    1.7930 C.2     1  UNL1        0.0000
@<TRIPOS>BOND
     1     5     4    1
     2     4     2    1
     3     3     2    2
     4     2     1    1
     5     1     6    1
     6     6     7    1
     7     7     8    2
     8     7     9    1
     9     8    10    1
    10     9    11    2
    11    10    12    2
    12    11    12    1
