@<TRIPOS>MOLECULE
/home/cewinharhar/GITHUB/reincatalyze/data/processed/docking_pred/2023-Apr-26-1657_maxeplen10_maxtrainstep1000_exh32_gamma099_lrac9e-4_lrcr1e-3/1ec3d4ded79b7f38a98788c4b0a5da992fc20b58_ligand_2.pdbqt
 12 12 0 0 0
SMALL
GASTEIGER

@<TRIPOS>ATOM
      1  C          8.4180   -0.6340   -2.0920 C.3     1  UNL1        0.1270
      2  C          8.4580   -1.8880   -2.8810 C.2     1  UNL1        0.3030
      3  O          9.5390   -2.4940   -3.0850 O.2     1  UNL1       -0.2520
      4  O          7.3000   -2.4270   -3.4170 O.3     1  UNL1       -0.4810
      5  H          6.5840   -1.8000   -3.7940 H       1  UNL1        0.2960
      6  C          7.0070   -0.1300   -2.0810 C.3     1  UNL1        0.0470
      7  C          6.4540    0.0630   -0.7420 C.2     1  UNL1       -0.0470
      8  C          6.5690   -0.9200    0.2140 C.2     1  UNL1        0.0040
      9  C          5.8150    1.2440   -0.4430 C.2     1  UNL1        0.0040
     10  C          6.0180   -0.6670    1.4730 C.2     1  UNL1        0.0000
     11  C          5.2710    1.4910    0.8020 C.2     1  UNL1        0.0000
     12  C          5.3810    0.5120    1.7650 C.2     1  UNL1        0.0000
@<TRIPOS>BOND
     1     5     4    1
     2     4     2    1
     3     3     2    2
     4     2     1    1
     5     1     6    1
     6     6     7    1
     7     7     9    2
     8     7     8    1
     9     9    11    1
    10     8    10    2
    11    11    12    2
    12    10    12    1
