@<TRIPOS>MOLECULE
/home/cewinharhar/GITHUB/reincatalyze/data/processed/docking_pred/2023-Apr-26-1657_maxeplen10_maxtrainstep1000_exh32_gamma099_lrac9e-4_lrcr1e-3/1ec3d4ded79b7f38a98788c4b0a5da992fc20b58_ligand_2.pdbqt
 12 12 0 0 0
SMALL
GASTEIGER

@<TRIPOS>ATOM
      1  C          8.0790    0.2580   -2.0310 C.3     1  UNL1        0.1270
      2  C          9.2740    0.3300   -1.1570 C.2     1  UNL1        0.3030
      3  O          9.4170   -0.4510   -0.1840 O.2     1  UNL1       -0.2520
      4  O         10.2690    1.2660   -1.3920 O.3     1  UNL1       -0.4810
      5  H         10.8200    1.2060   -2.2520 H       1  UNL1        0.2960
      6  C          7.0380   -0.5660   -1.3370 C.3     1  UNL1        0.0470
      7  C          6.2910    0.1600   -0.3120 C.2     1  UNL1       -0.0470
      8  C          5.7630    1.4030   -0.5750 C.2     1  UNL1        0.0040
      9  C          6.1160   -0.4150    0.9250 C.2     1  UNL1        0.0040
     10  C          5.0590    2.0380    0.4510 C.2     1  UNL1        0.0000
     11  C          5.4210    0.2150    1.9380 C.2     1  UNL1        0.0000
     12  C          4.8890    1.4610    1.6840 C.2     1  UNL1        0.0000
@<TRIPOS>BOND
     1     5     4    1
     2     1     6    1
     3     1     2    1
     4     4     2    1
     5     6     7    1
     6     2     3    2
     7     8     7    2
     8     8    10    1
     9     7     9    1
    10    10    12    2
    11     9    11    2
    12    12    11    1
