MODEL 1
REMARK VINA RESULT:      -7.2      0.000      0.000
REMARK SMILES O=C(O)CCc1ccccc1
REMARK SMILES IDX 4 1 2 2 1 3 3 4 5 6 6 7 7 8 11 9 8 10 10 11 9 12
REMARK H PARENT 3 5
REMARK Flexibility Score: inf
ROOT
ATOM      1  C   UNL     1       8.418  -0.634  -2.092  1.00  0.00     0.127 C 
ENDROOT
BRANCH   1   2
ATOM      2  C   UNL     1       8.458  -1.888  -2.881  1.00  0.00     0.303 C 
ATOM      3  O   UNL     1       9.539  -2.494  -3.085  1.00  0.00    -0.252 OA
BRANCH   2   4
ATOM      4  O   UNL     1       7.300  -2.427  -3.417  1.00  0.00    -0.481 OA
ATOM      5  H   UNL     1       6.584  -1.800  -3.794  1.00  0.00     0.296 HD
ENDBRANCH   2   4
ENDBRANCH   1   2
BRANCH   1   6
ATOM      6  C   UNL     1       7.007  -0.130  -2.081  1.00  0.00     0.047 C 
BRANCH   6   7
ATOM      7  C   UNL     1       6.454   0.063  -0.742  1.00  0.00    -0.047 A 
ATOM      8  C   UNL     1       6.569  -0.920   0.214  1.00  0.00     0.004 A 
ATOM      9  C   UNL     1       5.815   1.244  -0.443  1.00  0.00     0.004 A 
ATOM     10  C   UNL     1       6.018  -0.667   1.473  1.00  0.00     0.000 A 
ATOM     11  C   UNL     1       5.271   1.491   0.802  1.00  0.00     0.000 A 
ATOM     12  C   UNL     1       5.381   0.512   1.765  1.00  0.00     0.000 A 
ENDBRANCH   6   7
ENDBRANCH   1   6
TORSDOF 4
ENDMDL
MODEL 2
REMARK VINA RESULT:      -7.2      0.085      1.439
REMARK SMILES O=C(O)CCc1ccccc1
REMARK SMILES IDX 4 1 2 2 1 3 3 4 5 6 6 7 7 8 11 9 8 10 10 11 9 12
REMARK H PARENT 3 5
REMARK Flexibility Score: inf
ROOT
ATOM      1  C   UNL     1       8.413  -0.616  -2.122  1.00  0.00     0.127 C 
ENDROOT
BRANCH   1   2
ATOM      2  C   UNL     1       8.465  -1.887  -2.883  1.00  0.00     0.303 C 
ATOM      3  O   UNL     1       9.554  -2.479  -3.086  1.00  0.00    -0.252 OA
BRANCH   2   4
ATOM      4  O   UNL     1       7.310  -2.456  -3.394  1.00  0.00    -0.481 OA
ATOM      5  H   UNL     1       7.313  -3.446  -3.655  1.00  0.00     0.296 HD
ENDBRANCH   2   4
ENDBRANCH   1   2
BRANCH   1   6
ATOM      6  C   UNL     1       6.994  -0.135  -2.107  1.00  0.00     0.047 C 
BRANCH   6   7
ATOM      7  C   UNL     1       6.450   0.069  -0.765  1.00  0.00    -0.047 A 
ATOM      8  C   UNL     1       5.818   1.245  -0.434  1.00  0.00     0.004 A 
ATOM      9  C   UNL     1       6.573  -0.934   0.168  1.00  0.00     0.004 A 
ATOM     10  C   UNL     1       5.321   1.370   0.866  1.00  0.00     0.000 A 
ATOM     11  C   UNL     1       6.081  -0.809   1.452  1.00  0.00     0.000 A 
ATOM     12  C   UNL     1       5.448   0.366   1.793  1.00  0.00     0.000 A 
ENDBRANCH   6   7
ENDBRANCH   1   6
TORSDOF 4
ENDMDL
MODEL 3
REMARK VINA RESULT:      -7.2      0.915      1.081
REMARK SMILES O=C(O)CCc1ccccc1
REMARK SMILES IDX 4 1 2 2 1 3 3 4 5 6 6 7 7 8 11 9 8 10 10 11 9 12
REMARK H PARENT 3 5
REMARK Flexibility Score: inf
ROOT
ATOM      1  C   UNL     1       7.189  -1.247  -2.088  1.00  0.00     0.127 C 
ENDROOT
BRANCH   1   2
ATOM      2  C   UNL     1       8.624  -1.332  -2.448  1.00  0.00     0.303 C 
ATOM      3  O   UNL     1       9.446  -0.468  -2.054  1.00  0.00    -0.252 OA
BRANCH   2   4
ATOM      4  O   UNL     1       9.098  -2.371  -3.233  1.00  0.00    -0.481 OA
ATOM      5  H   UNL     1      10.108  -2.522  -3.307  1.00  0.00     0.296 HD
ENDBRANCH   2   4
ENDBRANCH   1   2
BRANCH   1   6
ATOM      6  C   UNL     1       6.849   0.192  -1.843  1.00  0.00     0.047 C 
BRANCH   6   7
ATOM      7  C   UNL     1       6.245   0.447  -0.537  1.00  0.00    -0.047 A 
ATOM      8  C   UNL     1       6.375  -0.462   0.488  1.00  0.00     0.004 A 
ATOM      9  C   UNL     1       5.541   1.612  -0.339  1.00  0.00     0.004 A 
ATOM     10  C   UNL     1       5.772  -0.153   1.709  1.00  0.00     0.000 A 
ATOM     11  C   UNL     1       4.946   1.916   0.869  1.00  0.00     0.000 A 
ATOM     12  C   UNL     1       5.071   1.011   1.901  1.00  0.00     0.000 A 
ENDBRANCH   6   7
ENDBRANCH   1   6
TORSDOF 4
ENDMDL
MODEL 4
REMARK VINA RESULT:      -6.9      3.362      5.069
REMARK SMILES O=C(O)CCc1ccccc1
REMARK SMILES IDX 4 1 2 2 1 3 3 4 5 6 6 7 7 8 11 9 8 10 10 11 9 12
REMARK H PARENT 3 5
REMARK Flexibility Score: inf
ROOT
ATOM      1  C   UNL     1       5.081   1.700   0.682  1.00  0.00     0.127 C 
ENDROOT
BRANCH   1   2
ATOM      2  C   UNL     1       4.657   1.103   1.970  1.00  0.00     0.303 C 
ATOM      3  O   UNL     1       5.308   0.169   2.500  1.00  0.00    -0.252 OA
BRANCH   2   4
ATOM      4  O   UNL     1       3.526   1.560   2.627  1.00  0.00    -0.481 OA
ATOM      5  H   UNL     1       2.959   0.901   3.168  1.00  0.00     0.296 HD
ENDBRANCH   2   4
ENDBRANCH   1   2
BRANCH   1   6
ATOM      6  C   UNL     1       6.577   1.785   0.673  1.00  0.00     0.047 C 
BRANCH   6   7
ATOM      7  C   UNL     1       7.210   1.006  -0.391  1.00  0.00    -0.047 A 
ATOM      8  C   UNL     1       8.534   1.199  -0.710  1.00  0.00     0.004 A 
ATOM      9  C   UNL     1       6.465   0.071  -1.072  1.00  0.00     0.004 A 
ATOM     10  C   UNL     1       9.072   0.419  -1.736  1.00  0.00     0.000 A 
ATOM     11  C   UNL     1       6.999  -0.698  -2.086  1.00  0.00     0.000 A 
ATOM     12  C   UNL     1       8.325  -0.511  -2.413  1.00  0.00     0.000 A 
ENDBRANCH   6   7
ENDBRANCH   1   6
TORSDOF 4
ENDMDL
MODEL 5
REMARK VINA RESULT:      -6.8      1.925      2.600
REMARK SMILES O=C(O)CCc1ccccc1
REMARK SMILES IDX 4 1 2 2 1 3 3 4 5 6 6 7 7 8 11 9 8 10 10 11 9 12
REMARK H PARENT 3 5
REMARK Flexibility Score: inf
ROOT
ATOM      1  C   UNL     1       8.079   0.258  -2.031  1.00  0.00     0.127 C 
ENDROOT
BRANCH   1   2
ATOM      2  C   UNL     1       9.274   0.330  -1.157  1.00  0.00     0.303 C 
ATOM      3  O   UNL     1       9.417  -0.451  -0.184  1.00  0.00    -0.252 OA
BRANCH   2   4
ATOM      4  O   UNL     1      10.269   1.266  -1.392  1.00  0.00    -0.481 OA
ATOM      5  H   UNL     1      10.820   1.206  -2.252  1.00  0.00     0.296 HD
ENDBRANCH   2   4
ENDBRANCH   1   2
BRANCH   1   6
ATOM      6  C   UNL     1       7.038  -0.566  -1.337  1.00  0.00     0.047 C 
BRANCH   6   7
ATOM      7  C   UNL     1       6.291   0.160  -0.312  1.00  0.00    -0.047 A 
ATOM      8  C   UNL     1       5.763   1.403  -0.575  1.00  0.00     0.004 A 
ATOM      9  C   UNL     1       6.116  -0.415   0.925  1.00  0.00     0.004 A 
ATOM     10  C   UNL     1       5.059   2.038   0.451  1.00  0.00     0.000 A 
ATOM     11  C   UNL     1       5.421   0.215   1.938  1.00  0.00     0.000 A 
ATOM     12  C   UNL     1       4.889   1.461   1.684  1.00  0.00     0.000 A 
ENDBRANCH   6   7
ENDBRANCH   1   6
TORSDOF 4
ENDMDL
