@<TRIPOS>MOLECULE
/home/cewinharhar/GITHUB/reincatalyze/data/processed/docking_pred/2023-Apr-26-1657_maxeplen10_maxtrainstep1000_exh32_gamma099_lrac9e-4_lrcr1e-3/1ec3d4ded79b7f38a98788c4b0a5da992fc20b58_ligand_2.pdbqt
 12 12 0 0 0
SMALL
GASTEIGER

@<TRIPOS>ATOM
      1  C          7.1890   -1.2470   -2.0880 C.3     1  UNL1        0.1270
      2  C          8.6240   -1.3320   -2.4480 C.2     1  UNL1        0.3030
      3  O          9.4460   -0.4680   -2.0540 O.2     1  UNL1       -0.2520
      4  O          9.0980   -2.3710   -3.2330 O.3     1  UNL1       -0.4810
      5  H         10.1080   -2.5220   -3.3070 H       1  UNL1        0.2960
      6  C          6.8490    0.1920   -1.8430 C.3     1  UNL1        0.0470
      7  C          6.2450    0.4470   -0.5370 C.2     1  UNL1       -0.0470
      8  C          6.3750   -0.4620    0.4880 C.2     1  UNL1        0.0040
      9  C          5.5410    1.6120   -0.3390 C.2     1  UNL1        0.0040
     10  C          5.7720   -0.1530    1.7090 C.2     1  UNL1        0.0000
     11  C          4.9460    1.9160    0.8690 C.2     1  UNL1        0.0000
     12  C          5.0710    1.0110    1.9010 C.2     1  UNL1        0.0000
@<TRIPOS>BOND
     1     5     4    1
     2     4     2    1
     3     2     1    1
     4     2     3    2
     5     1     6    1
     6     6     7    1
     7     7     9    2
     8     7     8    1
     9     9    11    1
    10     8    10    2
    11    11    12    2
    12    10    12    1
