@<TRIPOS>MOLECULE
/home/cewinharhar/GITHUB/reincatalyze/data/processed/docking_pred/2023-Apr-26-1657_maxeplen10_maxtrainstep1000_exh32_gamma099_lrac9e-4_lrcr1e-3/1ec3d4ded79b7f38a98788c4b0a5da992fc20b58_ligand_2.pdbqt
 12 12 0 0 0
SMALL
GASTEIGER

@<TRIPOS>ATOM
      1  C          5.0810    1.7000    0.6820 C.3     1  UNL1        0.1270
      2  C          4.6570    1.1030    1.9700 C.2     1  UNL1        0.3030
      3  O          5.3080    0.1690    2.5000 O.2     1  UNL1       -0.2520
      4  O          3.5260    1.5600    2.6270 O.3     1  UNL1       -0.4810
      5  H          2.9590    0.9010    3.1680 H       1  UNL1        0.2960
      6  C          6.5770    1.7850    0.6730 C.3     1  UNL1        0.0470
      7  C          7.2100    1.0060   -0.3910 C.2     1  UNL1       -0.0470
      8  C          8.5340    1.1990   -0.7100 C.2     1  UNL1        0.0040
      9  C          6.4650    0.0710   -1.0720 C.2     1  UNL1        0.0040
     10  C          9.0720    0.4190   -1.7360 C.2     1  UNL1        0.0000
     11  C          6.9990   -0.6980   -2.0860 C.2     1  UNL1        0.0000
     12  C          8.3250   -0.5110   -2.4130 C.2     1  UNL1        0.0000
@<TRIPOS>BOND
     1    12    11    2
     2    12    10    1
     3    11     9    1
     4    10     8    2
     5     9     7    2
     6     8     7    1
     7     7     6    1
     8     6     1    1
     9     1     2    1
    10     2     3    2
    11     2     4    1
    12     4     5    1
