@<TRIPOS>MOLECULE
/home/cewinharhar/GITHUB/reincatalyze/data/processed/docking_pred/2023-Apr-26-1657_maxeplen10_maxtrainstep1000_exh32_gamma099_lrac9e-4_lrcr1e-3/1f3204452a604bf2b5a1468570937d609aafa137_ligand_2.pdbqt
 12 12 0 0 0
SMALL
GASTEIGER

@<TRIPOS>ATOM
      1  C          8.3970   -0.6290   -2.1090 C.3     1  UNL1        0.1270
      2  C          8.3690   -1.8880   -2.8910 C.2     1  UNL1        0.3030
      3  O          7.2820   -2.4080   -3.2480 O.2     1  UNL1       -0.2520
      4  O          9.5440   -2.5270   -3.2510 O.3     1  UNL1       -0.4810
      5  H         10.2350   -2.0250   -3.8160 H       1  UNL1        0.2960
      6  C          7.0130   -0.0570   -2.0860 C.3     1  UNL1        0.0470
      7  C          6.4560    0.0980   -0.7430 C.2     1  UNL1       -0.0470
      8  C          5.8130    1.2580   -0.3780 C.2     1  UNL1        0.0040
      9  C          6.5790   -0.9340    0.1580 C.2     1  UNL1        0.0040
     10  C          5.3040    1.3370    0.9200 C.2     1  UNL1        0.0000
     11  C          6.0760   -0.8540    1.4420 C.2     1  UNL1        0.0000
     12  C          5.4310    0.3050    1.8150 C.2     1  UNL1        0.0000
@<TRIPOS>BOND
     1     5     4    1
     2     4     2    1
     3     3     2    2
     4     2     1    1
     5     1     6    1
     6     6     7    1
     7     7     8    2
     8     7     9    1
     9     8    10    1
    10     9    11    2
    11    10    12    2
    12    11    12    1
