@<TRIPOS>MOLECULE
/home/cewinharhar/GITHUB/reincatalyze/data/processed/docking_pred/2023-Apr-26-1657_maxeplen10_maxtrainstep1000_exh32_gamma099_lrac9e-4_lrcr1e-3/1f3204452a604bf2b5a1468570937d609aafa137_ligand_2.pdbqt
 12 12 0 0 0
SMALL
GASTEIGER

@<TRIPOS>ATOM
      1  C          5.4630    2.8790   -0.0200 C.3     1  UNL1        0.1270
      2  C          6.2350    3.8540    0.7860 C.2     1  UNL1        0.3030
      3  O          6.8910    4.7750    0.2400 O.2     1  UNL1       -0.2520
      4  O          6.2530    3.7760    2.1690 O.3     1  UNL1       -0.4810
      5  H          6.0150    2.8900    2.6240 H       1  UNL1        0.2960
      6  C          4.9260    1.8270    0.9030 C.3     1  UNL1        0.0470
      7  C          5.7180    0.5980    0.9280 C.2     1  UNL1       -0.0470
      8  C          5.8130   -0.1540    2.0760 C.2     1  UNL1        0.0040
      9  C          6.3690    0.1950   -0.2150 C.2     1  UNL1        0.0040
     10  C          6.5850   -1.3170    2.0270 C.2     1  UNL1        0.0000
     11  C          7.1320   -0.9540   -0.2620 C.2     1  UNL1        0.0000
     12  C          7.2340   -1.7130    0.8840 C.2     1  UNL1        0.0000
@<TRIPOS>BOND
     1    11     9    1
     2    11    12    2
     3     9     7    2
     4     1     2    1
     5     1     6    1
     6     3     2    2
     7     2     4    1
     8    12    10    1
     9     6     7    1
    10     7     8    1
    11    10     8    2
    12     4     5    1
