@<TRIPOS>MOLECULE
/home/cewinharhar/GITHUB/reincatalyze/data/processed/docking_pred/2023-Apr-26-1657_maxeplen10_maxtrainstep1000_exh32_gamma099_lrac9e-4_lrcr1e-3/1f3204452a604bf2b5a1468570937d609aafa137_ligand_2.pdbqt
 12 12 0 0 0
SMALL
GASTEIGER

@<TRIPOS>ATOM
      1  C          8.2650    0.1390   -2.1580 C.3     1  UNL1        0.1270
      2  C          9.3930    0.3200   -1.2150 C.2     1  UNL1        0.3030
      3  O          9.4920   -0.3800   -0.1770 O.2     1  UNL1       -0.2520
      4  O         10.3730    1.2700   -1.4530 O.3     1  UNL1       -0.4810
      5  H         10.3570    2.1490   -0.9290 H       1  UNL1        0.2960
      6  C          7.1850   -0.6280   -1.4590 C.3     1  UNL1        0.0470
      7  C          6.3880    0.1770   -0.5340 C.2     1  UNL1       -0.0470
      8  C          6.1490   -0.2570    0.7490 C.2     1  UNL1        0.0040
      9  C          5.8780    1.3810   -0.9600 C.2     1  UNL1        0.0040
     10  C          5.3800    0.5630    1.5780 C.2     1  UNL1        0.0000
     11  C          5.1180    2.1910   -0.1390 C.2     1  UNL1        0.0000
     12  C          4.8730    1.7630    1.1480 C.2     1  UNL1        0.0000
@<TRIPOS>BOND
     1     1     6    1
     2     1     2    1
     3     6     7    1
     4     4     2    1
     5     4     5    1
     6     2     3    2
     7     9     7    2
     8     9    11    1
     9     7     8    1
    10    11    12    2
    11     8    10    2
    12    12    10    1
