MODEL 1
REMARK VINA RESULT:      -7.4      0.000      0.000
REMARK SMILES O=C(O)CCc1ccccc1
REMARK SMILES IDX 4 1 2 2 1 3 3 4 5 6 6 7 7 8 11 9 8 10 10 11 9 12
REMARK H PARENT 3 5
REMARK Flexibility Score: inf
ROOT
ATOM      1  C   UNL     1       8.461  -0.597  -2.187  1.00  0.00     0.127 C 
ENDROOT
BRANCH   1   2
ATOM      2  C   UNL     1       8.482  -1.893  -2.905  1.00  0.00     0.303 C 
ATOM      3  O   UNL     1       9.554  -2.523  -3.080  1.00  0.00    -0.252 OA
BRANCH   2   4
ATOM      4  O   UNL     1       7.314  -2.447  -3.405  1.00  0.00    -0.481 OA
ATOM      5  H   UNL     1       6.913  -3.269  -2.945  1.00  0.00     0.296 HD
ENDBRANCH   2   4
ENDBRANCH   1   2
BRANCH   1   6
ATOM      6  C   UNL     1       7.047  -0.100  -2.154  1.00  0.00     0.047 C 
BRANCH   6   7
ATOM      7  C   UNL     1       6.500   0.048  -0.807  1.00  0.00    -0.047 A 
ATOM      8  C   UNL     1       6.619  -0.966   0.116  1.00  0.00     0.004 A 
ATOM      9  C   UNL     1       5.864   1.219  -0.466  1.00  0.00     0.004 A 
ATOM     10  C   UNL     1       6.074  -0.755   1.384  1.00  0.00     0.000 A 
ATOM     11  C   UNL     1       5.325   1.425   0.789  1.00  0.00     0.000 A 
ATOM     12  C   UNL     1       5.439   0.415   1.719  1.00  0.00     0.000 A 
ENDBRANCH   6   7
ENDBRANCH   1   6
TORSDOF 4
ENDMDL
MODEL 2
REMARK VINA RESULT:      -7.3      0.126      1.732
REMARK SMILES O=C(O)CCc1ccccc1
REMARK SMILES IDX 4 1 2 2 1 3 3 4 5 6 6 7 7 8 11 9 8 10 10 11 9 12
REMARK H PARENT 3 5
REMARK Flexibility Score: inf
ROOT
ATOM      1  C   UNL     1       8.397  -0.629  -2.109  1.00  0.00     0.127 C 
ENDROOT
BRANCH   1   2
ATOM      2  C   UNL     1       8.369  -1.888  -2.891  1.00  0.00     0.303 C 
ATOM      3  O   UNL     1       7.282  -2.408  -3.248  1.00  0.00    -0.252 OA
BRANCH   2   4
ATOM      4  O   UNL     1       9.544  -2.527  -3.251  1.00  0.00    -0.481 OA
ATOM      5  H   UNL     1      10.235  -2.025  -3.816  1.00  0.00     0.296 HD
ENDBRANCH   2   4
ENDBRANCH   1   2
BRANCH   1   6
ATOM      6  C   UNL     1       7.013  -0.057  -2.086  1.00  0.00     0.047 C 
BRANCH   6   7
ATOM      7  C   UNL     1       6.456   0.098  -0.743  1.00  0.00    -0.047 A 
ATOM      8  C   UNL     1       5.813   1.258  -0.378  1.00  0.00     0.004 A 
ATOM      9  C   UNL     1       6.579  -0.934   0.158  1.00  0.00     0.004 A 
ATOM     10  C   UNL     1       5.304   1.337   0.920  1.00  0.00     0.000 A 
ATOM     11  C   UNL     1       6.076  -0.854   1.442  1.00  0.00     0.000 A 
ATOM     12  C   UNL     1       5.431   0.305   1.815  1.00  0.00     0.000 A 
ENDBRANCH   6   7
ENDBRANCH   1   6
TORSDOF 4
ENDMDL
MODEL 3
REMARK VINA RESULT:      -6.8      3.369      5.055
REMARK SMILES O=C(O)CCc1ccccc1
REMARK SMILES IDX 4 1 2 2 1 3 3 4 5 6 6 7 7 8 11 9 8 10 10 11 9 12
REMARK H PARENT 3 5
REMARK Flexibility Score: inf
ROOT
ATOM      1  C   UNL     1       4.999   1.792   0.709  1.00  0.00     0.127 C 
ENDROOT
BRANCH   1   2
ATOM      2  C   UNL     1       4.479   1.108   1.917  1.00  0.00     0.303 C 
ATOM      3  O   UNL     1       5.133   0.196   2.481  1.00  0.00    -0.252 OA
BRANCH   2   4
ATOM      4  O   UNL     1       3.252   1.458   2.458  1.00  0.00    -0.481 OA
ATOM      5  H   UNL     1       2.889   0.932   3.258  1.00  0.00     0.296 HD
ENDBRANCH   2   4
ENDBRANCH   1   2
BRANCH   1   6
ATOM      6  C   UNL     1       6.496   1.764   0.760  1.00  0.00     0.047 C 
BRANCH   6   7
ATOM      7  C   UNL     1       7.114   1.012  -0.330  1.00  0.00    -0.047 A 
ATOM      8  C   UNL     1       6.388   0.091  -1.050  1.00  0.00     0.004 A 
ATOM      9  C   UNL     1       8.436   1.236  -0.635  1.00  0.00     0.004 A 
ATOM     10  C   UNL     1       7.043  -0.590  -2.078  1.00  0.00     0.000 A 
ATOM     11  C   UNL     1       9.082   0.562  -1.653  1.00  0.00     0.000 A 
ATOM     12  C   UNL     1       8.362  -0.363  -2.377  1.00  0.00     0.000 A 
ENDBRANCH   6   7
ENDBRANCH   1   6
TORSDOF 4
ENDMDL
MODEL 4
REMARK VINA RESULT:      -6.7      3.821      4.929
REMARK SMILES O=C(O)CCc1ccccc1
REMARK SMILES IDX 4 1 2 2 1 3 3 4 5 6 6 7 7 8 11 9 8 10 10 11 9 12
REMARK H PARENT 3 5
REMARK Flexibility Score: inf
ROOT
ATOM      1  C   UNL     1       5.463   2.879  -0.020  1.00  0.00     0.127 C 
ENDROOT
BRANCH   1   2
ATOM      2  C   UNL     1       6.235   3.854   0.786  1.00  0.00     0.303 C 
ATOM      3  O   UNL     1       6.891   4.775   0.240  1.00  0.00    -0.252 OA
BRANCH   2   4
ATOM      4  O   UNL     1       6.253   3.776   2.169  1.00  0.00    -0.481 OA
ATOM      5  H   UNL     1       6.015   2.890   2.624  1.00  0.00     0.296 HD
ENDBRANCH   2   4
ENDBRANCH   1   2
BRANCH   1   6
ATOM      6  C   UNL     1       4.926   1.827   0.903  1.00  0.00     0.047 C 
BRANCH   6   7
ATOM      7  C   UNL     1       5.718   0.598   0.928  1.00  0.00    -0.047 A 
ATOM      8  C   UNL     1       5.813  -0.154   2.076  1.00  0.00     0.004 A 
ATOM      9  C   UNL     1       6.369   0.195  -0.215  1.00  0.00     0.004 A 
ATOM     10  C   UNL     1       6.585  -1.317   2.027  1.00  0.00     0.000 A 
ATOM     11  C   UNL     1       7.132  -0.954  -0.262  1.00  0.00     0.000 A 
ATOM     12  C   UNL     1       7.234  -1.713   0.884  1.00  0.00     0.000 A 
ENDBRANCH   6   7
ENDBRANCH   1   6
TORSDOF 4
ENDMDL
MODEL 5
REMARK VINA RESULT:      -6.6      1.935      2.290
REMARK SMILES O=C(O)CCc1ccccc1
REMARK SMILES IDX 4 1 2 2 1 3 3 4 5 6 6 7 7 8 11 9 8 10 10 11 9 12
REMARK H PARENT 3 5
REMARK Flexibility Score: inf
ROOT
ATOM      1  C   UNL     1       8.265   0.139  -2.158  1.00  0.00     0.127 C 
ENDROOT
BRANCH   1   2
ATOM      2  C   UNL     1       9.393   0.320  -1.215  1.00  0.00     0.303 C 
ATOM      3  O   UNL     1       9.492  -0.380  -0.177  1.00  0.00    -0.252 OA
BRANCH   2   4
ATOM      4  O   UNL     1      10.373   1.270  -1.453  1.00  0.00    -0.481 OA
ATOM      5  H   UNL     1      10.357   2.149  -0.929  1.00  0.00     0.296 HD
ENDBRANCH   2   4
ENDBRANCH   1   2
BRANCH   1   6
ATOM      6  C   UNL     1       7.185  -0.628  -1.459  1.00  0.00     0.047 C 
BRANCH   6   7
ATOM      7  C   UNL     1       6.388   0.177  -0.534  1.00  0.00    -0.047 A 
ATOM      8  C   UNL     1       6.149  -0.257   0.749  1.00  0.00     0.004 A 
ATOM      9  C   UNL     1       5.878   1.381  -0.960  1.00  0.00     0.004 A 
ATOM     10  C   UNL     1       5.380   0.563   1.578  1.00  0.00     0.000 A 
ATOM     11  C   UNL     1       5.118   2.191  -0.139  1.00  0.00     0.000 A 
ATOM     12  C   UNL     1       4.873   1.763   1.148  1.00  0.00     0.000 A 
ENDBRANCH   6   7
ENDBRANCH   1   6
TORSDOF 4
ENDMDL
