@<TRIPOS>MOLECULE
/home/cewinharhar/GITHUB/reincatalyze/data/processed/docking_pred/2023-Apr-26-1657_maxeplen10_maxtrainstep1000_exh32_gamma099_lrac9e-4_lrcr1e-3/1f3204452a604bf2b5a1468570937d609aafa137_ligand_2.pdbqt
 12 12 0 0 0
SMALL
GASTEIGER

@<TRIPOS>ATOM
      1  C          8.4610   -0.5970   -2.1870 C.3     1  UNL1        0.1270
      2  C          8.4820   -1.8930   -2.9050 C.2     1  UNL1        0.3030
      3  O          9.5540   -2.5230   -3.0800 O.2     1  UNL1       -0.2520
      4  O          7.3140   -2.4470   -3.4050 O.3     1  UNL1       -0.4810
      5  H          6.9130   -3.2690   -2.9450 H       1  UNL1        0.2960
      6  C          7.0470   -0.1000   -2.1540 C.3     1  UNL1        0.0470
      7  C          6.5000    0.0480   -0.8070 C.2     1  UNL1       -0.0470
      8  C          6.6190   -0.9660    0.1160 C.2     1  UNL1        0.0040
      9  C          5.8640    1.2190   -0.4660 C.2     1  UNL1        0.0040
     10  C          6.0740   -0.7550    1.3840 C.2     1  UNL1        0.0000
     11  C          5.3250    1.4250    0.7890 C.2     1  UNL1        0.0000
     12  C          5.4390    0.4150    1.7190 C.2     1  UNL1        0.0000
@<TRIPOS>BOND
     1     4     5    1
     2     4     2    1
     3     3     2    2
     4     2     1    1
     5     1     6    1
     6     6     7    1
     7     7     9    2
     8     7     8    1
     9     9    11    1
    10     8    10    2
    11    11    12    2
    12    10    12    1
