@<TRIPOS>MOLECULE
/home/cewinharhar/GITHUB/reincatalyze/data/processed/docking_pred/2023-Apr-26-1657_maxeplen10_maxtrainstep1000_exh32_gamma099_lrac9e-4_lrcr1e-3/1f53ccdef65850680f3a99c865464637782ca6a5_ligand_2.pdbqt
 12 12 0 0 0
SMALL
GASTEIGER

@<TRIPOS>ATOM
      1  C          8.1930    0.3620   -2.0400 C.3     1  UNL1        0.1270
      2  C          9.3880    0.4090   -1.1660 C.2     1  UNL1        0.3030
      3  O          9.5070   -0.3660   -0.1850 O.2     1  UNL1       -0.2520
      4  O         10.4090    1.3130   -1.4080 O.3     1  UNL1       -0.4810
      5  H         11.0490    1.1490   -2.1900 H       1  UNL1        0.2960
      6  C          7.1680   -0.5180   -1.3910 C.3     1  UNL1        0.0470
      7  C          6.3630    0.1570   -0.3750 C.2     1  UNL1       -0.0470
      8  C          5.8050    1.3890   -0.6240 C.2     1  UNL1        0.0040
      9  C          6.1650   -0.4560    0.8410 C.2     1  UNL1        0.0040
     10  C          5.0470    1.9750    0.3920 C.2     1  UNL1        0.0000
     11  C          5.4150    0.1250    1.8450 C.2     1  UNL1        0.0000
     12  C          4.8530    1.3600    1.6030 C.2     1  UNL1        0.0000
@<TRIPOS>BOND
     1     5     4    1
     2     1     6    1
     3     1     2    1
     4     4     2    1
     5     6     7    1
     6     2     3    2
     7     8     7    2
     8     8    10    1
     9     7     9    1
    10    10    12    2
    11     9    11    2
    12    12    11    1
