@<TRIPOS>MOLECULE
/home/cewinharhar/GITHUB/reincatalyze/data/processed/docking_pred/2023-Apr-26-1657_maxeplen10_maxtrainstep1000_exh32_gamma099_lrac9e-4_lrcr1e-3/1f53ccdef65850680f3a99c865464637782ca6a5_ligand_2.pdbqt
 12 12 0 0 0
SMALL
GASTEIGER

@<TRIPOS>ATOM
      1  C          8.4680   -0.6650   -2.0850 C.3     1  UNL1        0.1270
      2  C          8.4810   -1.9120   -2.8860 C.2     1  UNL1        0.3030
      3  O          9.5500   -2.5340   -3.1060 O.2     1  UNL1       -0.2520
      4  O          7.3090   -2.4270   -3.4170 O.3     1  UNL1       -0.4810
      5  H          7.2700   -2.6580   -4.4140 H       1  UNL1        0.2960
      6  C          7.0650   -0.1410   -2.0520 C.3     1  UNL1        0.0470
      7  C          6.5090   -0.0130   -0.7060 C.2     1  UNL1       -0.0470
      8  C          6.6490   -1.0270    0.2120 C.2     1  UNL1        0.0040
      9  C          5.8430    1.1410   -0.3620 C.2     1  UNL1        0.0040
     10  C          6.0930   -0.8350    1.4790 C.2     1  UNL1        0.0000
     11  C          5.2940    1.3290    0.8910 C.2     1  UNL1        0.0000
     12  C          5.4290    0.3170    1.8160 C.2     1  UNL1        0.0000
@<TRIPOS>BOND
     1     5     4    1
     2     4     2    1
     3     3     2    2
     4     2     1    1
     5     1     6    1
     6     6     7    1
     7     7     9    2
     8     7     8    1
     9     9    11    1
    10     8    10    2
    11    11    12    2
    12    10    12    1
