@<TRIPOS>MOLECULE
/home/cewinharhar/GITHUB/reincatalyze/data/processed/docking_pred/2023-Apr-26-1657_maxeplen10_maxtrainstep1000_exh32_gamma099_lrac9e-4_lrcr1e-3/1f53ccdef65850680f3a99c865464637782ca6a5_ligand_2.pdbqt
 12 12 0 0 0
SMALL
GASTEIGER

@<TRIPOS>ATOM
      1  C          5.2560    2.7440   -0.0590 C.3     1  UNL1        0.1270
      2  C          6.1160    3.6500    0.7380 C.2     1  UNL1        0.3030
      3  O          6.6920    4.6330    0.2090 O.2     1  UNL1       -0.2520
      4  O          6.3100    3.4350    2.0930 O.3     1  UNL1       -0.4810
      5  H          7.2420    3.1840    2.4320 H       1  UNL1        0.2960
      6  C          5.6680    1.3320    0.2250 C.3     1  UNL1        0.0470
      7  C          6.7550    0.8480   -0.6240 C.2     1  UNL1       -0.0470
      8  C          6.4980    0.0230   -1.6940 C.2     1  UNL1        0.0040
      9  C          8.0470    1.2290   -0.3440 C.2     1  UNL1        0.0040
     10  C          7.5840   -0.4000   -2.4630 C.2     1  UNL1        0.0000
     11  C          9.1200    0.8090   -1.1040 C.2     1  UNL1        0.0000
     12  C          8.8710   -0.0180   -2.1780 C.2     1  UNL1        0.0000
@<TRIPOS>BOND
     1    10    12    2
     2    10     8    1
     3    12    11    1
     4     8     7    2
     5    11     9    2
     6     7     9    1
     7     7     6    1
     8     1     6    1
     9     1     2    1
    10     3     2    2
    11     2     4    1
    12     4     5    1
