@<TRIPOS>MOLECULE
/home/cewinharhar/GITHUB/reincatalyze/data/processed/docking_pred/2023-Apr-26-1657_maxeplen10_maxtrainstep1000_exh32_gamma099_lrac9e-4_lrcr1e-3/1f53ccdef65850680f3a99c865464637782ca6a5_ligand_2.pdbqt
 12 12 0 0 0
SMALL
GASTEIGER

@<TRIPOS>ATOM
      1  C          8.4120   -0.6140   -2.1220 C.3     1  UNL1        0.1270
      2  C          8.3750   -1.8840   -2.8850 C.2     1  UNL1        0.3030
      3  O          7.2850   -2.4020   -3.2330 O.2     1  UNL1       -0.2520
      4  O          9.5450   -2.5370   -3.2360 O.3     1  UNL1       -0.4810
      5  H          9.8780   -2.4830   -4.2030 H       1  UNL1        0.2960
      6  C          7.0350   -0.0250   -2.1200 C.3     1  UNL1        0.0470
      7  C          6.4630    0.1450   -0.7850 C.2     1  UNL1       -0.0470
      8  C          5.7790    1.2920   -0.4550 C.2     1  UNL1        0.0040
      9  C          6.6150   -0.8580    0.1430 C.2     1  UNL1        0.0040
     10  C          5.2590    1.3860    0.8380 C.2     1  UNL1        0.0000
     11  C          6.1000   -0.7630    1.4210 C.2     1  UNL1        0.0000
     12  C          5.4140    0.3820    1.7610 C.2     1  UNL1        0.0000
@<TRIPOS>BOND
     1     5     4    1
     2     4     2    1
     3     3     2    2
     4     2     1    1
     5     1     6    1
     6     6     7    1
     7     7     8    2
     8     7     9    1
     9     8    10    1
    10     9    11    2
    11    10    12    2
    12    11    12    1
