@<TRIPOS>MOLECULE
/home/cewinharhar/GITHUB/reincatalyze/data/processed/docking_pred/2023-Apr-26-1657_maxeplen10_maxtrainstep1000_exh32_gamma099_lrac9e-4_lrcr1e-3/1f53ccdef65850680f3a99c865464637782ca6a5_ligand_2.pdbqt
 12 12 0 0 0
SMALL
GASTEIGER

@<TRIPOS>ATOM
      1  C          4.9980    1.7690    0.6510 C.3     1  UNL1        0.1270
      2  C          4.5000    1.1190    1.8860 C.2     1  UNL1        0.3030
      3  O          5.1710    0.2330    2.4710 O.2     1  UNL1       -0.2520
      4  O          3.2760    1.4720    2.4300 O.3     1  UNL1       -0.4810
      5  H          2.4790    0.8380    2.3250 H       1  UNL1        0.2960
      6  C          6.4950    1.8040    0.7090 C.3     1  UNL1        0.0470
      7  C          7.1490    1.0450   -0.3560 C.2     1  UNL1       -0.0470
      8  C          8.4830    1.2280   -0.6340 C.2     1  UNL1        0.0040
      9  C          6.4130    0.1370   -1.0830 C.2     1  UNL1        0.0040
     10  C          9.0420    0.4680   -1.6640 C.2     1  UNL1        0.0000
     11  C          6.9660   -0.6130   -2.1010 C.2     1  UNL1        0.0000
     12  C          8.3030   -0.4350   -2.3860 C.2     1  UNL1        0.0000
@<TRIPOS>BOND
     1    12    11    2
     2    12    10    1
     3    11     9    1
     4    10     8    2
     5     9     7    2
     6     8     7    1
     7     7     6    1
     8     1     6    1
     9     1     2    1
    10     2     4    1
    11     2     3    2
    12     5     4    1
