MODEL 1
REMARK VINA RESULT:      -7.3      0.000      0.000
REMARK SMILES O=C(O)CCc1ccccc1
REMARK SMILES IDX 4 1 2 2 1 3 3 4 5 6 6 7 7 8 11 9 8 10 10 11 9 12
REMARK H PARENT 3 5
REMARK Flexibility Score: inf
ROOT
ATOM      1  C   UNL     1       8.468  -0.665  -2.085  1.00  0.00     0.127 C 
ENDROOT
BRANCH   1   2
ATOM      2  C   UNL     1       8.481  -1.912  -2.886  1.00  0.00     0.303 C 
ATOM      3  O   UNL     1       9.550  -2.534  -3.106  1.00  0.00    -0.252 OA
BRANCH   2   4
ATOM      4  O   UNL     1       7.309  -2.427  -3.417  1.00  0.00    -0.481 OA
ATOM      5  H   UNL     1       7.270  -2.658  -4.414  1.00  0.00     0.296 HD
ENDBRANCH   2   4
ENDBRANCH   1   2
BRANCH   1   6
ATOM      6  C   UNL     1       7.065  -0.141  -2.052  1.00  0.00     0.047 C 
BRANCH   6   7
ATOM      7  C   UNL     1       6.509  -0.013  -0.706  1.00  0.00    -0.047 A 
ATOM      8  C   UNL     1       6.649  -1.027   0.212  1.00  0.00     0.004 A 
ATOM      9  C   UNL     1       5.843   1.141  -0.362  1.00  0.00     0.004 A 
ATOM     10  C   UNL     1       6.093  -0.835   1.479  1.00  0.00     0.000 A 
ATOM     11  C   UNL     1       5.294   1.329   0.891  1.00  0.00     0.000 A 
ATOM     12  C   UNL     1       5.429   0.317   1.816  1.00  0.00     0.000 A 
ENDBRANCH   6   7
ENDBRANCH   1   6
TORSDOF 4
ENDMDL
MODEL 2
REMARK VINA RESULT:      -7.2      0.141      1.734
REMARK SMILES O=C(O)CCc1ccccc1
REMARK SMILES IDX 4 1 2 2 1 3 3 4 5 6 6 7 7 8 11 9 8 10 10 11 9 12
REMARK H PARENT 3 5
REMARK Flexibility Score: inf
ROOT
ATOM      1  C   UNL     1       8.412  -0.614  -2.122  1.00  0.00     0.127 C 
ENDROOT
BRANCH   1   2
ATOM      2  C   UNL     1       8.375  -1.884  -2.885  1.00  0.00     0.303 C 
ATOM      3  O   UNL     1       7.285  -2.402  -3.233  1.00  0.00    -0.252 OA
BRANCH   2   4
ATOM      4  O   UNL     1       9.545  -2.537  -3.236  1.00  0.00    -0.481 OA
ATOM      5  H   UNL     1       9.878  -2.483  -4.203  1.00  0.00     0.296 HD
ENDBRANCH   2   4
ENDBRANCH   1   2
BRANCH   1   6
ATOM      6  C   UNL     1       7.035  -0.025  -2.120  1.00  0.00     0.047 C 
BRANCH   6   7
ATOM      7  C   UNL     1       6.463   0.145  -0.785  1.00  0.00    -0.047 A 
ATOM      8  C   UNL     1       5.779   1.292  -0.455  1.00  0.00     0.004 A 
ATOM      9  C   UNL     1       6.615  -0.858   0.143  1.00  0.00     0.004 A 
ATOM     10  C   UNL     1       5.259   1.386   0.838  1.00  0.00     0.000 A 
ATOM     11  C   UNL     1       6.100  -0.763   1.421  1.00  0.00     0.000 A 
ATOM     12  C   UNL     1       5.414   0.382   1.761  1.00  0.00     0.000 A 
ENDBRANCH   6   7
ENDBRANCH   1   6
TORSDOF 4
ENDMDL
MODEL 3
REMARK VINA RESULT:      -6.8      3.371      5.077
REMARK SMILES O=C(O)CCc1ccccc1
REMARK SMILES IDX 4 1 2 2 1 3 3 4 5 6 6 7 7 8 11 9 8 10 10 11 9 12
REMARK H PARENT 3 5
REMARK Flexibility Score: inf
ROOT
ATOM      1  C   UNL     1       4.998   1.769   0.651  1.00  0.00     0.127 C 
ENDROOT
BRANCH   1   2
ATOM      2  C   UNL     1       4.500   1.119   1.886  1.00  0.00     0.303 C 
ATOM      3  O   UNL     1       5.171   0.233   2.471  1.00  0.00    -0.252 OA
BRANCH   2   4
ATOM      4  O   UNL     1       3.276   1.472   2.430  1.00  0.00    -0.481 OA
ATOM      5  H   UNL     1       2.479   0.838   2.325  1.00  0.00     0.296 HD
ENDBRANCH   2   4
ENDBRANCH   1   2
BRANCH   1   6
ATOM      6  C   UNL     1       6.495   1.804   0.709  1.00  0.00     0.047 C 
BRANCH   6   7
ATOM      7  C   UNL     1       7.149   1.045  -0.356  1.00  0.00    -0.047 A 
ATOM      8  C   UNL     1       8.483   1.228  -0.634  1.00  0.00     0.004 A 
ATOM      9  C   UNL     1       6.413   0.137  -1.083  1.00  0.00     0.004 A 
ATOM     10  C   UNL     1       9.042   0.468  -1.664  1.00  0.00     0.000 A 
ATOM     11  C   UNL     1       6.966  -0.613  -2.101  1.00  0.00     0.000 A 
ATOM     12  C   UNL     1       8.303  -0.435  -2.386  1.00  0.00     0.000 A 
ENDBRANCH   6   7
ENDBRANCH   1   6
TORSDOF 4
ENDMDL
MODEL 4
REMARK VINA RESULT:      -6.6      1.976      2.651
REMARK SMILES O=C(O)CCc1ccccc1
REMARK SMILES IDX 4 1 2 2 1 3 3 4 5 6 6 7 7 8 11 9 8 10 10 11 9 12
REMARK H PARENT 3 5
REMARK Flexibility Score: inf
ROOT
ATOM      1  C   UNL     1       8.193   0.362  -2.040  1.00  0.00     0.127 C 
ENDROOT
BRANCH   1   2
ATOM      2  C   UNL     1       9.388   0.409  -1.166  1.00  0.00     0.303 C 
ATOM      3  O   UNL     1       9.507  -0.366  -0.185  1.00  0.00    -0.252 OA
BRANCH   2   4
ATOM      4  O   UNL     1      10.409   1.313  -1.408  1.00  0.00    -0.481 OA
ATOM      5  H   UNL     1      11.049   1.149  -2.190  1.00  0.00     0.296 HD
ENDBRANCH   2   4
ENDBRANCH   1   2
BRANCH   1   6
ATOM      6  C   UNL     1       7.168  -0.518  -1.391  1.00  0.00     0.047 C 
BRANCH   6   7
ATOM      7  C   UNL     1       6.363   0.157  -0.375  1.00  0.00    -0.047 A 
ATOM      8  C   UNL     1       5.805   1.389  -0.624  1.00  0.00     0.004 A 
ATOM      9  C   UNL     1       6.165  -0.456   0.841  1.00  0.00     0.004 A 
ATOM     10  C   UNL     1       5.047   1.975   0.392  1.00  0.00     0.000 A 
ATOM     11  C   UNL     1       5.415   0.125   1.845  1.00  0.00     0.000 A 
ATOM     12  C   UNL     1       4.853   1.360   1.603  1.00  0.00     0.000 A 
ENDBRANCH   6   7
ENDBRANCH   1   6
TORSDOF 4
ENDMDL
MODEL 5
REMARK VINA RESULT:      -6.4      3.746      5.191
REMARK SMILES O=C(O)CCc1ccccc1
REMARK SMILES IDX 4 1 2 2 1 3 3 4 5 6 6 7 7 8 11 9 8 10 10 11 9 12
REMARK H PARENT 3 5
REMARK Flexibility Score: inf
ROOT
ATOM      1  C   UNL     1       5.256   2.744  -0.059  1.00  0.00     0.127 C 
ENDROOT
BRANCH   1   2
ATOM      2  C   UNL     1       6.116   3.650   0.738  1.00  0.00     0.303 C 
ATOM      3  O   UNL     1       6.692   4.633   0.209  1.00  0.00    -0.252 OA
BRANCH   2   4
ATOM      4  O   UNL     1       6.310   3.435   2.093  1.00  0.00    -0.481 OA
ATOM      5  H   UNL     1       7.242   3.184   2.432  1.00  0.00     0.296 HD
ENDBRANCH   2   4
ENDBRANCH   1   2
BRANCH   1   6
ATOM      6  C   UNL     1       5.668   1.332   0.225  1.00  0.00     0.047 C 
BRANCH   6   7
ATOM      7  C   UNL     1       6.755   0.848  -0.624  1.00  0.00    -0.047 A 
ATOM      8  C   UNL     1       6.498   0.023  -1.694  1.00  0.00     0.004 A 
ATOM      9  C   UNL     1       8.047   1.229  -0.344  1.00  0.00     0.004 A 
ATOM     10  C   UNL     1       7.584  -0.400  -2.463  1.00  0.00     0.000 A 
ATOM     11  C   UNL     1       9.120   0.809  -1.104  1.00  0.00     0.000 A 
ATOM     12  C   UNL     1       8.871  -0.018  -2.178  1.00  0.00     0.000 A 
ENDBRANCH   6   7
ENDBRANCH   1   6
TORSDOF 4
ENDMDL
