@<TRIPOS>MOLECULE
/home/cewinharhar/GITHUB/reincatalyze/data/processed/docking_pred/2023-Apr-26-1657_maxeplen10_maxtrainstep1000_exh32_gamma099_lrac9e-4_lrcr1e-3/1f774135605f6656ff2aa9e322f53f2a679c664c_ligand_2.pdbqt
 12 12 0 0 0
SMALL
GASTEIGER

@<TRIPOS>ATOM
      1  C          5.0470    1.7650    0.6810 C.3     1  UNL1        0.1270
      2  C          4.5910    1.0630    1.9040 C.2     1  UNL1        0.3030
      3  O          5.3140    0.2060    2.4700 O.2     1  UNL1       -0.2520
      4  O          3.3510    1.3350    2.4580 O.3     1  UNL1       -0.4810
      5  H          2.7470    2.0340    2.0160 H       1  UNL1        0.2960
      6  C          6.5450    1.8150    0.6980 C.3     1  UNL1        0.0470
      7  C          7.1770    1.0440   -0.3710 C.2     1  UNL1       -0.0470
      8  C          8.5130    1.2040   -0.6580 C.2     1  UNL1        0.0040
      9  C          6.4210    0.1480   -1.0910 C.2     1  UNL1        0.0040
     10  C          9.0510    0.4340   -1.6920 C.2     1  UNL1        0.0000
     11  C          6.9540   -0.6120   -2.1130 C.2     1  UNL1        0.0000
     12  C          8.2910   -0.4570   -2.4070 C.2     1  UNL1        0.0000
@<TRIPOS>BOND
     1    12    11    2
     2    12    10    1
     3    11     9    1
     4    10     8    2
     5     9     7    2
     6     8     7    1
     7     7     6    1
     8     1     6    1
     9     1     2    1
    10     2     4    1
    11     2     3    2
    12     5     4    1
