@<TRIPOS>MOLECULE
/home/cewinharhar/GITHUB/reincatalyze/data/processed/docking_pred/2023-Apr-26-1657_maxeplen10_maxtrainstep1000_exh32_gamma099_lrac9e-4_lrcr1e-3/1f774135605f6656ff2aa9e322f53f2a679c664c_ligand_2.pdbqt
 12 12 0 0 0
SMALL
GASTEIGER

@<TRIPOS>ATOM
      1  C          8.4440   -0.5870   -2.1480 C.3     1  UNL1        0.1270
      2  C          8.4990   -1.8690   -2.8890 C.2     1  UNL1        0.3030
      3  O          9.5880   -2.4630   -3.0820 O.2     1  UNL1       -0.2520
      4  O          7.3450   -2.4480   -3.3920 O.3     1  UNL1       -0.4810
      5  H          7.3480   -3.4430   -3.6330 H       1  UNL1        0.2960
      6  C          7.0210   -0.1180   -2.1240 C.3     1  UNL1        0.0470
      7  C          6.4780    0.0640   -0.7790 C.2     1  UNL1       -0.0470
      8  C          5.8460    1.2340   -0.4270 C.2     1  UNL1        0.0040
      9  C          6.6030   -0.9540    0.1390 C.2     1  UNL1        0.0040
     10  C          5.3500    1.3370    0.8740 C.2     1  UNL1        0.0000
     11  C          6.1120   -0.8500    1.4250 C.2     1  UNL1        0.0000
     12  C          5.4780    0.3190    1.7850 C.2     1  UNL1        0.0000
@<TRIPOS>BOND
     1     5     4    1
     2     4     2    1
     3     3     2    2
     4     2     1    1
     5     1     6    1
     6     6     7    1
     7     7     8    2
     8     7     9    1
     9     8    10    1
    10     9    11    2
    11    10    12    2
    12    11    12    1
