@<TRIPOS>MOLECULE
/home/cewinharhar/GITHUB/reincatalyze/data/processed/docking_pred/2023-Apr-26-1657_maxeplen10_maxtrainstep1000_exh32_gamma099_lrac9e-4_lrcr1e-3/1f774135605f6656ff2aa9e322f53f2a679c664c_ligand_2.pdbqt
 12 12 0 0 0
SMALL
GASTEIGER

@<TRIPOS>ATOM
      1  C          5.4080    2.8990    0.0280 C.3     1  UNL1        0.1270
      2  C          6.2190    3.8710    0.7990 C.2     1  UNL1        0.3030
      3  O          6.8740    4.7730    0.2220 O.2     1  UNL1       -0.2520
      4  O          6.2760    3.8090    2.1820 O.3     1  UNL1       -0.4810
      5  H          6.3960    4.6730    2.7180 H       1  UNL1        0.2960
      6  C          4.9240    1.8380    0.9700 C.3     1  UNL1        0.0470
      7  C          5.7180    0.6110    0.9420 C.2     1  UNL1       -0.0470
      8  C          6.4340    0.2620   -0.1790 C.2     1  UNL1        0.0040
      9  C          5.7450   -0.1960    2.0560 C.2     1  UNL1        0.0040
     10  C          7.1720   -0.9240   -0.1340 C.2     1  UNL1        0.0000
     11  C          6.4750   -1.3680    2.0990 C.2     1  UNL1        0.0000
     12  C          7.1940   -1.7250    0.9790 C.2     1  UNL1        0.0000
@<TRIPOS>BOND
     1     8    10    1
     2     8     7    2
     3    10    12    2
     4     1     2    1
     5     1     6    1
     6     3     2    2
     7     2     4    1
     8     7     6    1
     9     7     9    1
    10    12    11    1
    11     9    11    2
    12     4     5    1
