@<TRIPOS>MOLECULE
/home/cewinharhar/GITHUB/reincatalyze/data/processed/docking_pred/2023-Apr-26-1657_maxeplen10_maxtrainstep1000_exh32_gamma099_lrac9e-4_lrcr1e-3/1f774135605f6656ff2aa9e322f53f2a679c664c_ligand_2.pdbqt
 12 12 0 0 0
SMALL
GASTEIGER

@<TRIPOS>ATOM
      1  C          8.1310   -1.6070    1.1970 C.3     1  UNL1        0.1270
      2  C          8.4790   -2.7910    0.3760 C.2     1  UNL1        0.3030
      3  O          9.1620   -3.7330    0.8490 O.2     1  UNL1       -0.2520
      4  O          8.0580   -2.8910   -0.9400 O.3     1  UNL1       -0.4810
      5  H          7.5570   -3.7310   -1.2440 H       1  UNL1        0.2960
      6  C          6.6370   -1.4970    1.2540 C.3     1  UNL1        0.0470
      7  C          6.1170   -0.2170    0.7740 C.2     1  UNL1       -0.0470
      8  C          5.3840    0.5990    1.6040 C.2     1  UNL1        0.0040
      9  C          6.3710    0.1670   -0.5220 C.2     1  UNL1        0.0040
     10  C          4.9200    1.8070    1.0790 C.2     1  UNL1        0.0000
     11  C          5.9100    1.3610   -1.0400 C.2     1  UNL1        0.0000
     12  C          5.1740    2.1850   -0.2160 C.2     1  UNL1        0.0000
@<TRIPOS>BOND
     1     5     4    1
     2    11     9    1
     3    11    12    2
     4     4     2    1
     5     9     7    2
     6    12    10    1
     7     2     3    2
     8     2     1    1
     9     7     6    1
    10     7     8    1
    11    10     8    2
    12     1     6    1
