MODEL 1
REMARK VINA RESULT:      -7.4      0.000      0.000
REMARK SMILES O=C(O)CCc1ccccc1
REMARK SMILES IDX 4 1 2 2 1 3 3 4 5 6 6 7 7 8 11 9 8 10 10 11 9 12
REMARK H PARENT 3 5
REMARK Flexibility Score: inf
ROOT
ATOM      1  C   UNL     1       8.480  -0.629  -2.110  1.00  0.00     0.127 C 
ENDROOT
BRANCH   1   2
ATOM      2  C   UNL     1       8.492  -1.884  -2.899  1.00  0.00     0.303 C 
ATOM      3  O   UNL     1       9.560  -2.510  -3.109  1.00  0.00    -0.252 OA
BRANCH   2   4
ATOM      4  O   UNL     1       7.321  -2.400  -3.429  1.00  0.00    -0.481 OA
ATOM      5  H   UNL     1       6.823  -1.874  -4.152  1.00  0.00     0.296 HD
ENDBRANCH   2   4
ENDBRANCH   1   2
BRANCH   1   6
ATOM      6  C   UNL     1       7.082  -0.091  -2.103  1.00  0.00     0.047 C 
BRANCH   6   7
ATOM      7  C   UNL     1       6.509   0.058  -0.767  1.00  0.00    -0.047 A 
ATOM      8  C   UNL     1       6.656  -0.933   0.176  1.00  0.00     0.004 A 
ATOM      9  C   UNL     1       5.819   1.207  -0.456  1.00  0.00     0.004 A 
ATOM     10  C   UNL     1       6.083  -0.722   1.432  1.00  0.00     0.000 A 
ATOM     11  C   UNL     1       5.253   1.413   0.786  1.00  0.00     0.000 A 
ATOM     12  C   UNL     1       5.395   0.425   1.736  1.00  0.00     0.000 A 
ENDBRANCH   6   7
ENDBRANCH   1   6
TORSDOF 4
ENDMDL
MODEL 2
REMARK VINA RESULT:      -7.3      0.089      1.438
REMARK SMILES O=C(O)CCc1ccccc1
REMARK SMILES IDX 4 1 2 2 1 3 3 4 5 6 6 7 7 8 11 9 8 10 10 11 9 12
REMARK H PARENT 3 5
REMARK Flexibility Score: inf
ROOT
ATOM      1  C   UNL     1       8.444  -0.587  -2.148  1.00  0.00     0.127 C 
ENDROOT
BRANCH   1   2
ATOM      2  C   UNL     1       8.499  -1.869  -2.889  1.00  0.00     0.303 C 
ATOM      3  O   UNL     1       9.588  -2.463  -3.082  1.00  0.00    -0.252 OA
BRANCH   2   4
ATOM      4  O   UNL     1       7.345  -2.448  -3.392  1.00  0.00    -0.481 OA
ATOM      5  H   UNL     1       7.348  -3.443  -3.633  1.00  0.00     0.296 HD
ENDBRANCH   2   4
ENDBRANCH   1   2
BRANCH   1   6
ATOM      6  C   UNL     1       7.021  -0.118  -2.124  1.00  0.00     0.047 C 
BRANCH   6   7
ATOM      7  C   UNL     1       6.478   0.064  -0.779  1.00  0.00    -0.047 A 
ATOM      8  C   UNL     1       5.846   1.234  -0.427  1.00  0.00     0.004 A 
ATOM      9  C   UNL     1       6.603  -0.954   0.139  1.00  0.00     0.004 A 
ATOM     10  C   UNL     1       5.350   1.337   0.874  1.00  0.00     0.000 A 
ATOM     11  C   UNL     1       6.112  -0.850   1.425  1.00  0.00     0.000 A 
ATOM     12  C   UNL     1       5.478   0.319   1.785  1.00  0.00     0.000 A 
ENDBRANCH   6   7
ENDBRANCH   1   6
TORSDOF 4
ENDMDL
MODEL 3
REMARK VINA RESULT:      -6.7      3.333      5.034
REMARK SMILES O=C(O)CCc1ccccc1
REMARK SMILES IDX 4 1 2 2 1 3 3 4 5 6 6 7 7 8 11 9 8 10 10 11 9 12
REMARK H PARENT 3 5
REMARK Flexibility Score: inf
ROOT
ATOM      1  C   UNL     1       5.047   1.765   0.681  1.00  0.00     0.127 C 
ENDROOT
BRANCH   1   2
ATOM      2  C   UNL     1       4.591   1.063   1.904  1.00  0.00     0.303 C 
ATOM      3  O   UNL     1       5.314   0.206   2.470  1.00  0.00    -0.252 OA
BRANCH   2   4
ATOM      4  O   UNL     1       3.351   1.335   2.458  1.00  0.00    -0.481 OA
ATOM      5  H   UNL     1       2.747   2.034   2.016  1.00  0.00     0.296 HD
ENDBRANCH   2   4
ENDBRANCH   1   2
BRANCH   1   6
ATOM      6  C   UNL     1       6.545   1.815   0.698  1.00  0.00     0.047 C 
BRANCH   6   7
ATOM      7  C   UNL     1       7.177   1.044  -0.371  1.00  0.00    -0.047 A 
ATOM      8  C   UNL     1       8.513   1.204  -0.658  1.00  0.00     0.004 A 
ATOM      9  C   UNL     1       6.421   0.148  -1.091  1.00  0.00     0.004 A 
ATOM     10  C   UNL     1       9.051   0.434  -1.692  1.00  0.00     0.000 A 
ATOM     11  C   UNL     1       6.954  -0.612  -2.113  1.00  0.00     0.000 A 
ATOM     12  C   UNL     1       8.291  -0.457  -2.407  1.00  0.00     0.000 A 
ENDBRANCH   6   7
ENDBRANCH   1   6
TORSDOF 4
ENDMDL
MODEL 4
REMARK VINA RESULT:      -6.7      3.819      5.005
REMARK SMILES O=C(O)CCc1ccccc1
REMARK SMILES IDX 4 1 2 2 1 3 3 4 5 6 6 7 7 8 11 9 8 10 10 11 9 12
REMARK H PARENT 3 5
REMARK Flexibility Score: inf
ROOT
ATOM      1  C   UNL     1       5.408   2.899   0.028  1.00  0.00     0.127 C 
ENDROOT
BRANCH   1   2
ATOM      2  C   UNL     1       6.219   3.871   0.799  1.00  0.00     0.303 C 
ATOM      3  O   UNL     1       6.874   4.773   0.222  1.00  0.00    -0.252 OA
BRANCH   2   4
ATOM      4  O   UNL     1       6.276   3.809   2.182  1.00  0.00    -0.481 OA
ATOM      5  H   UNL     1       6.396   4.673   2.718  1.00  0.00     0.296 HD
ENDBRANCH   2   4
ENDBRANCH   1   2
BRANCH   1   6
ATOM      6  C   UNL     1       4.924   1.838   0.970  1.00  0.00     0.047 C 
BRANCH   6   7
ATOM      7  C   UNL     1       5.718   0.611   0.942  1.00  0.00    -0.047 A 
ATOM      8  C   UNL     1       6.434   0.262  -0.179  1.00  0.00     0.004 A 
ATOM      9  C   UNL     1       5.745  -0.196   2.056  1.00  0.00     0.004 A 
ATOM     10  C   UNL     1       7.172  -0.924  -0.134  1.00  0.00     0.000 A 
ATOM     11  C   UNL     1       6.475  -1.368   2.099  1.00  0.00     0.000 A 
ATOM     12  C   UNL     1       7.194  -1.725   0.979  1.00  0.00     0.000 A 
ENDBRANCH   6   7
ENDBRANCH   1   6
TORSDOF 4
ENDMDL
MODEL 5
REMARK VINA RESULT:      -6.5      1.884      2.859
REMARK SMILES O=C(O)CCc1ccccc1
REMARK SMILES IDX 4 1 2 2 1 3 3 4 5 6 6 7 7 8 11 9 8 10 10 11 9 12
REMARK H PARENT 3 5
REMARK Flexibility Score: inf
ROOT
ATOM      1  C   UNL     1       8.131  -1.607   1.197  1.00  0.00     0.127 C 
ENDROOT
BRANCH   1   2
ATOM      2  C   UNL     1       8.479  -2.791   0.376  1.00  0.00     0.303 C 
ATOM      3  O   UNL     1       9.162  -3.733   0.849  1.00  0.00    -0.252 OA
BRANCH   2   4
ATOM      4  O   UNL     1       8.058  -2.891  -0.940  1.00  0.00    -0.481 OA
ATOM      5  H   UNL     1       7.557  -3.731  -1.244  1.00  0.00     0.296 HD
ENDBRANCH   2   4
ENDBRANCH   1   2
BRANCH   1   6
ATOM      6  C   UNL     1       6.637  -1.497   1.254  1.00  0.00     0.047 C 
BRANCH   6   7
ATOM      7  C   UNL     1       6.117  -0.217   0.774  1.00  0.00    -0.047 A 
ATOM      8  C   UNL     1       5.384   0.599   1.604  1.00  0.00     0.004 A 
ATOM      9  C   UNL     1       6.371   0.167  -0.522  1.00  0.00     0.004 A 
ATOM     10  C   UNL     1       4.920   1.807   1.079  1.00  0.00     0.000 A 
ATOM     11  C   UNL     1       5.910   1.361  -1.040  1.00  0.00     0.000 A 
ATOM     12  C   UNL     1       5.174   2.185  -0.216  1.00  0.00     0.000 A 
ENDBRANCH   6   7
ENDBRANCH   1   6
TORSDOF 4
ENDMDL
