@<TRIPOS>MOLECULE
/home/cewinharhar/GITHUB/reincatalyze/data/processed/docking_pred/2023-Apr-26-1657_maxeplen10_maxtrainstep1000_exh32_gamma099_lrac9e-4_lrcr1e-3/1f774135605f6656ff2aa9e322f53f2a679c664c_ligand_2.pdbqt
 12 12 0 0 0
SMALL
GASTEIGER

@<TRIPOS>ATOM
      1  C          8.4800   -0.6290   -2.1100 C.3     1  UNL1        0.1270
      2  C          8.4920   -1.8840   -2.8990 C.2     1  UNL1        0.3030
      3  O          9.5600   -2.5100   -3.1090 O.2     1  UNL1       -0.2520
      4  O          7.3210   -2.4000   -3.4290 O.3     1  UNL1       -0.4810
      5  H          6.8230   -1.8740   -4.1520 H       1  UNL1        0.2960
      6  C          7.0820   -0.0910   -2.1030 C.3     1  UNL1        0.0470
      7  C          6.5090    0.0580   -0.7670 C.2     1  UNL1       -0.0470
      8  C          6.6560   -0.9330    0.1760 C.2     1  UNL1        0.0040
      9  C          5.8190    1.2070   -0.4560 C.2     1  UNL1        0.0040
     10  C          6.0830   -0.7220    1.4320 C.2     1  UNL1        0.0000
     11  C          5.2530    1.4130    0.7860 C.2     1  UNL1        0.0000
     12  C          5.3950    0.4250    1.7360 C.2     1  UNL1        0.0000
@<TRIPOS>BOND
     1     5     4    1
     2     4     2    1
     3     3     2    2
     4     2     1    1
     5     1     6    1
     6     6     7    1
     7     7     9    2
     8     7     8    1
     9     9    11    1
    10     8    10    2
    11    11    12    2
    12    10    12    1
