MODEL 1
REMARK VINA RESULT:      -5.5      0.000      0.000
REMARK SMILES O=C(O)CCc1ccccc1
REMARK SMILES IDX 4 1 2 2 1 3 3 4 5 6 6 7 7 8 11 9 8 10 10 11 9 12
REMARK H PARENT 3 5
REMARK Flexibility Score: inf
ROOT
ATOM      1  C   UNL     1       6.342  -0.556   2.734  1.00  0.00     0.127 C 
ENDROOT
BRANCH   1   2
ATOM      2  C   UNL     1       7.121  -1.505   1.904  1.00  0.00     0.303 C 
ATOM      3  O   UNL     1       8.283  -1.228   1.515  1.00  0.00    -0.252 OA
BRANCH   2   4
ATOM      4  O   UNL     1       6.586  -2.728   1.532  1.00  0.00    -0.481 OA
ATOM      5  H   UNL     1       6.364  -3.418   2.255  1.00  0.00     0.296 HD
ENDBRANCH   2   4
ENDBRANCH   1   2
BRANCH   1   6
ATOM      6  C   UNL     1       5.235   0.004   1.896  1.00  0.00     0.047 C 
BRANCH   6   7
ATOM      7  C   UNL     1       5.531   1.315   1.319  1.00  0.00    -0.047 A 
ATOM      8  C   UNL     1       4.854   1.764   0.209  1.00  0.00     0.004 A 
ATOM      9  C   UNL     1       6.498   2.101   1.901  1.00  0.00     0.004 A 
ATOM     10  C   UNL     1       5.188   3.026  -0.287  1.00  0.00     0.000 A 
ATOM     11  C   UNL     1       6.827   3.349   1.409  1.00  0.00     0.000 A 
ATOM     12  C   UNL     1       6.153   3.806   0.297  1.00  0.00     0.000 A 
ENDBRANCH   6   7
ENDBRANCH   1   6
TORSDOF 4
ENDMDL
MODEL 2
REMARK VINA RESULT:      -5.5      0.129      1.441
REMARK SMILES O=C(O)CCc1ccccc1
REMARK SMILES IDX 4 1 2 2 1 3 3 4 5 6 6 7 7 8 11 9 8 10 10 11 9 12
REMARK H PARENT 3 5
REMARK Flexibility Score: inf
ROOT
ATOM      1  C   UNL     1       6.478  -0.579   2.753  1.00  0.00     0.127 C 
ENDROOT
BRANCH   1   2
ATOM      2  C   UNL     1       7.193  -1.550   1.890  1.00  0.00     0.303 C 
ATOM      3  O   UNL     1       8.347  -1.310   1.459  1.00  0.00    -0.252 OA
BRANCH   2   4
ATOM      4  O   UNL     1       6.603  -2.752   1.536  1.00  0.00    -0.481 OA
ATOM      5  H   UNL     1       6.773  -3.138   0.603  1.00  0.00     0.296 HD
ENDBRANCH   2   4
ENDBRANCH   1   2
BRANCH   1   6
ATOM      6  C   UNL     1       5.322  -0.023   1.978  1.00  0.00     0.047 C 
BRANCH   6   7
ATOM      7  C   UNL     1       5.582   1.285   1.379  1.00  0.00    -0.047 A 
ATOM      8  C   UNL     1       6.549   2.116   1.896  1.00  0.00     0.004 A 
ATOM      9  C   UNL     1       4.848   1.680   0.285  1.00  0.00     0.004 A 
ATOM     10  C   UNL     1       6.744   3.350   1.273  1.00  0.00     0.000 A 
ATOM     11  C   UNL     1       5.041   2.901  -0.330  1.00  0.00     0.000 A 
ATOM     12  C   UNL     1       6.007   3.740   0.182  1.00  0.00     0.000 A 
ENDBRANCH   6   7
ENDBRANCH   1   6
TORSDOF 4
ENDMDL
MODEL 3
REMARK VINA RESULT:      -3.6     11.566     13.855
REMARK SMILES O=C(O)CCc1ccccc1
REMARK SMILES IDX 4 1 2 2 1 3 3 4 5 6 6 7 7 8 11 9 8 10 10 11 9 12
REMARK H PARENT 3 5
REMARK Flexibility Score: inf
ROOT
ATOM      1  C   UNL     1       8.213  -5.364  12.401  1.00  0.00     0.127 C 
ENDROOT
BRANCH   1   2
ATOM      2  C   UNL     1       7.802  -4.302  11.451  1.00  0.00     0.303 C 
ATOM      3  O   UNL     1       7.780  -4.510  10.213  1.00  0.00    -0.252 OA
BRANCH   2   4
ATOM      4  O   UNL     1       7.431  -3.047  11.906  1.00  0.00    -0.481 OA
ATOM      5  H   UNL     1       8.145  -2.321  12.010  1.00  0.00     0.296 HD
ENDBRANCH   2   4
ENDBRANCH   1   2
BRANCH   1   6
ATOM      6  C   UNL     1       7.665  -6.670  11.912  1.00  0.00     0.047 C 
BRANCH   6   7
ATOM      7  C   UNL     1       8.683  -7.694  11.684  1.00  0.00    -0.047 A 
ATOM      8  C   UNL     1       8.697  -8.850  12.429  1.00  0.00     0.004 A 
ATOM      9  C   UNL     1       9.633  -7.490  10.711  1.00  0.00     0.004 A 
ATOM     10  C   UNL     1       9.698  -9.785  12.156  1.00  0.00     0.000 A 
ATOM     11  C   UNL     1      10.623  -8.415  10.443  1.00  0.00     0.000 A 
ATOM     12  C   UNL     1      10.644  -9.576  11.184  1.00  0.00     0.000 A 
ENDBRANCH   6   7
ENDBRANCH   1   6
TORSDOF 4
ENDMDL
MODEL 4
REMARK VINA RESULT:      -3.6     11.468     13.605
REMARK SMILES O=C(O)CCc1ccccc1
REMARK SMILES IDX 4 1 2 2 1 3 3 4 5 6 6 7 7 8 11 9 8 10 10 11 9 12
REMARK H PARENT 3 5
REMARK Flexibility Score: inf
ROOT
ATOM      1  C   UNL     1       8.187  -6.225  10.588  1.00  0.00     0.127 C 
ENDROOT
BRANCH   1   2
ATOM      2  C   UNL     1       8.116  -4.796  10.976  1.00  0.00     0.303 C 
ATOM      3  O   UNL     1       7.553  -3.949  10.239  1.00  0.00    -0.252 OA
BRANCH   2   4
ATOM      4  O   UNL     1       8.672  -4.355  12.166  1.00  0.00    -0.481 OA
ATOM      5  H   UNL     1       9.590  -4.706  12.450  1.00  0.00     0.296 HD
ENDBRANCH   2   4
ENDBRANCH   1   2
BRANCH   1   6
ATOM      6  C   UNL     1       8.980  -6.956  11.628  1.00  0.00     0.047 C 
BRANCH   6   7
ATOM      7  C   UNL     1      10.206  -7.568  11.120  1.00  0.00    -0.047 A 
ATOM      8  C   UNL     1      11.273  -6.789  10.735  1.00  0.00     0.004 A 
ATOM      9  C   UNL     1      10.286  -8.938  11.031  1.00  0.00     0.004 A 
ATOM     10  C   UNL     1      12.413  -7.442  10.260  1.00  0.00     0.000 A 
ATOM     11  C   UNL     1      11.413  -9.581  10.561  1.00  0.00     0.000 A 
ATOM     12  C   UNL     1      12.487  -8.809  10.172  1.00  0.00     0.000 A 
ENDBRANCH   6   7
ENDBRANCH   1   6
TORSDOF 4
ENDMDL
MODEL 5
REMARK VINA RESULT:      -3.5     12.250     14.860
REMARK SMILES O=C(O)CCc1ccccc1
REMARK SMILES IDX 4 1 2 2 1 3 3 4 5 6 6 7 7 8 11 9 8 10 10 11 9 12
REMARK H PARENT 3 5
REMARK Flexibility Score: inf
ROOT
ATOM      1  C   UNL     1       9.480  -7.428  11.247  1.00  0.00     0.127 C 
ENDROOT
BRANCH   1   2
ATOM      2  C   UNL     1       9.037  -6.056  10.903  1.00  0.00     0.303 C 
ATOM      3  O   UNL     1       8.131  -5.859  10.056  1.00  0.00    -0.252 OA
BRANCH   2   4
ATOM      4  O   UNL     1       9.614  -4.951  11.507  1.00  0.00    -0.481 OA
ATOM      5  H   UNL     1      10.590  -4.999  11.811  1.00  0.00     0.296 HD
ENDBRANCH   2   4
ENDBRANCH   1   2
BRANCH   1   6
ATOM      6  C   UNL     1      10.766  -7.702  10.528  1.00  0.00     0.047 C 
BRANCH   6   7
ATOM      7  C   UNL     1      11.178  -9.104  10.561  1.00  0.00    -0.047 A 
ATOM      8  C   UNL     1      12.443  -9.475  10.166  1.00  0.00     0.004 A 
ATOM      9  C   UNL     1      10.286 -10.056  10.996  1.00  0.00     0.004 A 
ATOM     10  C   UNL     1      12.769 -10.832  10.224  1.00  0.00     0.000 A 
ATOM     11  C   UNL     1      10.609 -11.397  11.053  1.00  0.00     0.000 A 
ATOM     12  C   UNL     1      11.874 -11.777  10.658  1.00  0.00     0.000 A 
ENDBRANCH   6   7
ENDBRANCH   1   6
TORSDOF 4
ENDMDL
