@<TRIPOS>MOLECULE
/home/cewinharhar/GITHUB/reincatalyze/data/processed/docking_pred/2023-Apr-26-1657_maxeplen10_maxtrainstep1000_exh32_gamma099_lrac9e-4_lrcr1e-3/1fd5ec6d4a6889d2560636754963a08404c0587d_ligand_2.pdbqt
 12 12 0 0 0
SMALL
GASTEIGER

@<TRIPOS>ATOM
      1  C          8.2130   -5.3640   12.4010 C.3     1  UNL1        0.1270
      2  C          7.8020   -4.3020   11.4510 C.2     1  UNL1        0.3030
      3  O          7.7800   -4.5100   10.2130 O.2     1  UNL1       -0.2520
      4  O          7.4310   -3.0470   11.9060 O.3     1  UNL1       -0.4810
      5  H          8.1450   -2.3210   12.0100 H       1  UNL1        0.2960
      6  C          7.6650   -6.6700   11.9120 C.3     1  UNL1        0.0470
      7  C          8.6830   -7.6940   11.6840 C.2     1  UNL1       -0.0470
      8  C          8.6970   -8.8500   12.4290 C.2     1  UNL1        0.0040
      9  C          9.6330   -7.4900   10.7110 C.2     1  UNL1        0.0040
     10  C          9.6980   -9.7850   12.1560 C.2     1  UNL1        0.0000
     11  C         10.6230   -8.4150   10.4430 C.2     1  UNL1        0.0000
     12  C         10.6440   -9.5760   11.1840 C.2     1  UNL1        0.0000
@<TRIPOS>BOND
     1     3     2    2
     2    11     9    1
     3    11    12    2
     4     9     7    2
     5    12    10    1
     6     2     4    1
     7     2     1    1
     8     7     6    1
     9     7     8    1
    10     4     5    1
    11     6     1    1
    12    10     8    2
