@<TRIPOS>MOLECULE
/home/cewinharhar/GITHUB/reincatalyze/data/processed/docking_pred/2023-Apr-26-1657_maxeplen10_maxtrainstep1000_exh32_gamma099_lrac9e-4_lrcr1e-3/1fd5ec6d4a6889d2560636754963a08404c0587d_ligand_2.pdbqt
 12 12 0 0 0
SMALL
GASTEIGER

@<TRIPOS>ATOM
      1  C          6.4780   -0.5790    2.7530 C.3     1  UNL1        0.1270
      2  C          7.1930   -1.5500    1.8900 C.2     1  UNL1        0.3030
      3  O          8.3470   -1.3100    1.4590 O.2     1  UNL1       -0.2520
      4  O          6.6030   -2.7520    1.5360 O.3     1  UNL1       -0.4810
      5  H          6.7730   -3.1380    0.6030 H       1  UNL1        0.2960
      6  C          5.3220   -0.0230    1.9780 C.3     1  UNL1        0.0470
      7  C          5.5820    1.2850    1.3790 C.2     1  UNL1       -0.0470
      8  C          6.5490    2.1160    1.8960 C.2     1  UNL1        0.0040
      9  C          4.8480    1.6800    0.2850 C.2     1  UNL1        0.0040
     10  C          6.7440    3.3500    1.2730 C.2     1  UNL1        0.0000
     11  C          5.0410    2.9010   -0.3300 C.2     1  UNL1        0.0000
     12  C          6.0070    3.7400    0.1820 C.2     1  UNL1        0.0000
@<TRIPOS>BOND
     1    11    12    2
     2    11     9    1
     3    12    10    1
     4     9     7    2
     5     5     4    1
     6    10     8    2
     7     7     8    1
     8     7     6    1
     9     3     2    2
    10     4     2    1
    11     2     1    1
    12     6     1    1
