@<TRIPOS>MOLECULE
/home/cewinharhar/GITHUB/reincatalyze/data/processed/docking_pred/2023-Apr-26-1657_maxeplen10_maxtrainstep1000_exh32_gamma099_lrac9e-4_lrcr1e-3/1fd5ec6d4a6889d2560636754963a08404c0587d_ligand_2.pdbqt
 12 12 0 0 0
SMALL
GASTEIGER

@<TRIPOS>ATOM
      1  C          8.1870   -6.2250   10.5880 C.3     1  UNL1        0.1270
      2  C          8.1160   -4.7960   10.9760 C.2     1  UNL1        0.3030
      3  O          7.5530   -3.9490   10.2390 O.2     1  UNL1       -0.2520
      4  O          8.6720   -4.3550   12.1660 O.3     1  UNL1       -0.4810
      5  H          9.5900   -4.7060   12.4500 H       1  UNL1        0.2960
      6  C          8.9800   -6.9560   11.6280 C.3     1  UNL1        0.0470
      7  C         10.2060   -7.5680   11.1200 C.2     1  UNL1       -0.0470
      8  C         11.2730   -6.7890   10.7350 C.2     1  UNL1        0.0040
      9  C         10.2860   -8.9380   11.0310 C.2     1  UNL1        0.0040
     10  C         12.4130   -7.4420   10.2600 C.2     1  UNL1        0.0000
     11  C         11.4130   -9.5810   10.5610 C.2     1  UNL1        0.0000
     12  C         12.4870   -8.8090   10.1720 C.2     1  UNL1        0.0000
@<TRIPOS>BOND
     1    12    10    2
     2    12    11    1
     3     3     2    2
     4    10     8    1
     5    11     9    2
     6     1     2    1
     7     1     6    1
     8     8     7    2
     9     2     4    1
    10     9     7    1
    11     7     6    1
    12     4     5    1
