@<TRIPOS>MOLECULE
/home/cewinharhar/GITHUB/reincatalyze/data/processed/docking_pred/2023-Apr-26-1657_maxeplen10_maxtrainstep1000_exh32_gamma099_lrac9e-4_lrcr1e-3/1fd5ec6d4a6889d2560636754963a08404c0587d_ligand_2.pdbqt
 12 12 0 0 0
SMALL
GASTEIGER

@<TRIPOS>ATOM
      1  C          9.4800   -7.4280   11.2470 C.3     1  UNL1        0.1270
      2  C          9.0370   -6.0560   10.9030 C.2     1  UNL1        0.3030
      3  O          8.1310   -5.8590   10.0560 O.2     1  UNL1       -0.2520
      4  O          9.6140   -4.9510   11.5070 O.3     1  UNL1       -0.4810
      5  H         10.5900   -4.9990   11.8110 H       1  UNL1        0.2960
      6  C         10.7660   -7.7020   10.5280 C.3     1  UNL1        0.0470
      7  C         11.1780   -9.1040   10.5610 C.2     1  UNL1       -0.0470
      8  C         12.4430   -9.4750   10.1660 C.2     1  UNL1        0.0040
      9  C         10.2860  -10.0560   10.9960 C.2     1  UNL1        0.0040
     10  C         12.7690  -10.8320   10.2240 C.2     1  UNL1        0.0000
     11  C         10.6090  -11.3970   11.0530 C.2     1  UNL1        0.0000
     12  C         11.8740  -11.7770   10.6580 C.2     1  UNL1        0.0000
@<TRIPOS>BOND
     1     3     2    2
     2     8    10    1
     3     8     7    2
     4    10    12    2
     5     6     7    1
     6     6     1    1
     7     7     9    1
     8    12    11    1
     9     2     1    1
    10     2     4    1
    11     9    11    2
    12     4     5    1
