@<TRIPOS>MOLECULE
/home/cewinharhar/GITHUB/reincatalyze/data/processed/docking_pred/2023-Apr-26-1657_maxeplen10_maxtrainstep1000_exh32_gamma099_lrac9e-4_lrcr1e-3/1fd5ec6d4a6889d2560636754963a08404c0587d_ligand_2.pdbqt
 12 12 0 0 0
SMALL
GASTEIGER

@<TRIPOS>ATOM
      1  C          6.3420   -0.5560    2.7340 C.3     1  UNL1        0.1270
      2  C          7.1210   -1.5050    1.9040 C.2     1  UNL1        0.3030
      3  O          8.2830   -1.2280    1.5150 O.2     1  UNL1       -0.2520
      4  O          6.5860   -2.7280    1.5320 O.3     1  UNL1       -0.4810
      5  H          6.3640   -3.4180    2.2550 H       1  UNL1        0.2960
      6  C          5.2350    0.0040    1.8960 C.3     1  UNL1        0.0470
      7  C          5.5310    1.3150    1.3190 C.2     1  UNL1       -0.0470
      8  C          4.8540    1.7640    0.2090 C.2     1  UNL1        0.0040
      9  C          6.4980    2.1010    1.9010 C.2     1  UNL1        0.0040
     10  C          5.1880    3.0260   -0.2870 C.2     1  UNL1        0.0000
     11  C          6.8270    3.3490    1.4090 C.2     1  UNL1        0.0000
     12  C          6.1530    3.8060    0.2970 C.2     1  UNL1        0.0000
@<TRIPOS>BOND
     1    10     8    1
     2    10    12    2
     3     8     7    2
     4    12    11    1
     5     7     6    1
     6     7     9    1
     7    11     9    2
     8     3     2    2
     9     4     2    1
    10     4     5    1
    11     6     1    1
    12     2     1    1
