MODEL 1
REMARK VINA RESULT:      -7.3      0.000      0.000
REMARK SMILES O=C(O)CCc1ccccc1
REMARK SMILES IDX 4 1 2 2 1 3 3 4 5 6 6 7 7 8 11 9 8 10 10 11 9 12
REMARK H PARENT 3 5
REMARK Flexibility Score: inf
ROOT
ATOM      1  C   UNL     1       8.421  -0.567  -2.205  1.00  0.00     0.127 C 
ENDROOT
BRANCH   1   2
ATOM      2  C   UNL     1       8.477  -1.869  -2.911  1.00  0.00     0.303 C 
ATOM      3  O   UNL     1       9.563  -2.481  -3.063  1.00  0.00    -0.252 OA
BRANCH   2   4
ATOM      4  O   UNL     1       7.327  -2.448  -3.424  1.00  0.00    -0.481 OA
ATOM      5  H   UNL     1       6.587  -2.747  -2.782  1.00  0.00     0.296 HD
ENDBRANCH   2   4
ENDBRANCH   1   2
BRANCH   1   6
ATOM      6  C   UNL     1       6.994  -0.111  -2.169  1.00  0.00     0.047 C 
BRANCH   6   7
ATOM      7  C   UNL     1       6.468   0.088  -0.820  1.00  0.00    -0.047 A 
ATOM      8  C   UNL     1       5.854   1.269  -0.472  1.00  0.00     0.004 A 
ATOM      9  C   UNL     1       6.590  -0.923   0.104  1.00  0.00     0.004 A 
ATOM     10  C   UNL     1       5.374   1.390   0.834  1.00  0.00     0.000 A 
ATOM     11  C   UNL     1       6.115  -0.802   1.395  1.00  0.00     0.000 A 
ATOM     12  C   UNL     1       5.500   0.378   1.752  1.00  0.00     0.000 A 
ENDBRANCH   6   7
ENDBRANCH   1   6
TORSDOF 4
ENDMDL
MODEL 2
REMARK VINA RESULT:      -7.3      0.119      1.731
REMARK SMILES O=C(O)CCc1ccccc1
REMARK SMILES IDX 4 1 2 2 1 3 3 4 5 6 6 7 7 8 11 9 8 10 10 11 9 12
REMARK H PARENT 3 5
REMARK Flexibility Score: inf
ROOT
ATOM      1  C   UNL     1       8.407  -0.628  -2.129  1.00  0.00     0.127 C 
ENDROOT
BRANCH   1   2
ATOM      2  C   UNL     1       8.380  -1.893  -2.900  1.00  0.00     0.303 C 
ATOM      3  O   UNL     1       7.295  -2.416  -3.255  1.00  0.00    -0.252 OA
BRANCH   2   4
ATOM      4  O   UNL     1       9.556  -2.535  -3.252  1.00  0.00    -0.481 OA
ATOM      5  H   UNL     1       9.966  -3.219  -2.609  1.00  0.00     0.296 HD
ENDBRANCH   2   4
ENDBRANCH   1   2
BRANCH   1   6
ATOM      6  C   UNL     1       7.019  -0.065  -2.099  1.00  0.00     0.047 C 
BRANCH   6   7
ATOM      7  C   UNL     1       6.467   0.084  -0.753  1.00  0.00    -0.047 A 
ATOM      8  C   UNL     1       6.583  -0.929   0.171  1.00  0.00     0.004 A 
ATOM      9  C   UNL     1       5.827   1.254  -0.416  1.00  0.00     0.004 A 
ATOM     10  C   UNL     1       6.033  -0.717   1.437  1.00  0.00     0.000 A 
ATOM     11  C   UNL     1       5.284   1.461   0.837  1.00  0.00     0.000 A 
ATOM     12  C   UNL     1       5.396   0.452   1.768  1.00  0.00     0.000 A 
ENDBRANCH   6   7
ENDBRANCH   1   6
TORSDOF 4
ENDMDL
MODEL 3
REMARK VINA RESULT:      -6.8      3.383      5.083
REMARK SMILES O=C(O)CCc1ccccc1
REMARK SMILES IDX 4 1 2 2 1 3 3 4 5 6 6 7 7 8 11 9 8 10 10 11 9 12
REMARK H PARENT 3 5
REMARK Flexibility Score: inf
ROOT
ATOM      1  C   UNL     1       5.013   1.788   0.729  1.00  0.00     0.127 C 
ENDROOT
BRANCH   1   2
ATOM      2  C   UNL     1       4.471   1.109   1.929  1.00  0.00     0.303 C 
ATOM      3  O   UNL     1       5.107   0.190   2.501  1.00  0.00    -0.252 OA
BRANCH   2   4
ATOM      4  O   UNL     1       3.241   1.472   2.455  1.00  0.00    -0.481 OA
ATOM      5  H   UNL     1       3.209   2.068   3.288  1.00  0.00     0.296 HD
ENDBRANCH   2   4
ENDBRANCH   1   2
BRANCH   1   6
ATOM      6  C   UNL     1       6.509   1.721   0.786  1.00  0.00     0.047 C 
BRANCH   6   7
ATOM      7  C   UNL     1       7.114   0.973  -0.314  1.00  0.00    -0.047 A 
ATOM      8  C   UNL     1       6.397   0.012  -0.989  1.00  0.00     0.004 A 
ATOM      9  C   UNL     1       8.414   1.241  -0.674  1.00  0.00     0.004 A 
ATOM     10  C   UNL     1       7.038  -0.664  -2.030  1.00  0.00     0.000 A 
ATOM     11  C   UNL     1       9.046   0.572  -1.703  1.00  0.00     0.000 A 
ATOM     12  C   UNL     1       8.335  -0.393  -2.384  1.00  0.00     0.000 A 
ENDBRANCH   6   7
ENDBRANCH   1   6
TORSDOF 4
ENDMDL
MODEL 4
REMARK VINA RESULT:      -6.7      3.825      4.977
REMARK SMILES O=C(O)CCc1ccccc1
REMARK SMILES IDX 4 1 2 2 1 3 3 4 5 6 6 7 7 8 11 9 8 10 10 11 9 12
REMARK H PARENT 3 5
REMARK Flexibility Score: inf
ROOT
ATOM      1  C   UNL     1       5.489   2.772   0.010  1.00  0.00     0.127 C 
ENDROOT
BRANCH   1   2
ATOM      2  C   UNL     1       6.210   3.773   0.831  1.00  0.00     0.303 C 
ATOM      3  O   UNL     1       6.163   3.742   2.086  1.00  0.00    -0.252 OA
BRANCH   2   4
ATOM      4  O   UNL     1       6.959   4.774   0.234  1.00  0.00    -0.481 OA
ATOM      5  H   UNL     1       7.937   4.592  -0.009  1.00  0.00     0.296 HD
ENDBRANCH   2   4
ENDBRANCH   1   2
BRANCH   1   6
ATOM      6  C   UNL     1       4.933   1.725   0.927  1.00  0.00     0.047 C 
BRANCH   6   7
ATOM      7  C   UNL     1       5.728   0.499   0.981  1.00  0.00    -0.047 A 
ATOM      8  C   UNL     1       5.758  -0.270   2.121  1.00  0.00     0.004 A 
ATOM      9  C   UNL     1       6.449   0.117  -0.127  1.00  0.00     0.004 A 
ATOM     10  C   UNL     1       6.538  -1.428   2.101  1.00  0.00     0.000 A 
ATOM     11  C   UNL     1       7.220  -1.028  -0.144  1.00  0.00     0.000 A 
ATOM     12  C   UNL     1       7.256  -1.804   0.994  1.00  0.00     0.000 A 
ENDBRANCH   6   7
ENDBRANCH   1   6
TORSDOF 4
ENDMDL
MODEL 5
REMARK VINA RESULT:      -6.6      1.986      2.658
REMARK SMILES O=C(O)CCc1ccccc1
REMARK SMILES IDX 4 1 2 2 1 3 3 4 5 6 6 7 7 8 11 9 8 10 10 11 9 12
REMARK H PARENT 3 5
REMARK Flexibility Score: inf
ROOT
ATOM      1  C   UNL     1       8.301   0.438  -1.891  1.00  0.00     0.127 C 
ENDROOT
BRANCH   1   2
ATOM      2  C   UNL     1       9.467   0.242  -0.997  1.00  0.00     0.303 C 
ATOM      3  O   UNL     1       9.407  -0.532  -0.010  1.00  0.00    -0.252 OA
BRANCH   2   4
ATOM      4  O   UNL     1      10.659   0.909  -1.228  1.00  0.00    -0.481 OA
ATOM      5  H   UNL     1      11.493   0.642  -0.699  1.00  0.00     0.296 HD
ENDBRANCH   2   4
ENDBRANCH   1   2
BRANCH   1   6
ATOM      6  C   UNL     1       7.178  -0.420  -1.394  1.00  0.00     0.047 C 
BRANCH   6   7
ATOM      7  C   UNL     1       6.354   0.215  -0.367  1.00  0.00    -0.047 A 
ATOM      8  C   UNL     1       6.145  -0.399   0.846  1.00  0.00     0.004 A 
ATOM      9  C   UNL     1       5.788   1.443  -0.623  1.00  0.00     0.004 A 
ATOM     10  C   UNL     1       5.349   0.266   1.781  1.00  0.00     0.000 A 
ATOM     11  C   UNL     1       5.001   2.099   0.302  1.00  0.00     0.000 A 
ATOM     12  C   UNL     1       4.786   1.490   1.519  1.00  0.00     0.000 A 
ENDBRANCH   6   7
ENDBRANCH   1   6
TORSDOF 4
ENDMDL
