@<TRIPOS>MOLECULE
/home/cewinharhar/GITHUB/reincatalyze/data/processed/docking_pred/2023-Apr-26-1657_maxeplen10_maxtrainstep1000_exh32_gamma099_lrac9e-4_lrcr1e-3/2037f81c995398ea407fbfc0a5ecaefc5001139a_ligand_2.pdbqt
 12 12 0 0 0
SMALL
GASTEIGER

@<TRIPOS>ATOM
      1  C          5.0130    1.7880    0.7290 C.3     1  UNL1        0.1270
      2  C          4.4710    1.1090    1.9290 C.2     1  UNL1        0.3030
      3  O          5.1070    0.1900    2.5010 O.2     1  UNL1       -0.2520
      4  O          3.2410    1.4720    2.4550 O.3     1  UNL1       -0.4810
      5  H          3.2090    2.0680    3.2880 H       1  UNL1        0.2960
      6  C          6.5090    1.7210    0.7860 C.3     1  UNL1        0.0470
      7  C          7.1140    0.9730   -0.3140 C.2     1  UNL1       -0.0470
      8  C          6.3970    0.0120   -0.9890 C.2     1  UNL1        0.0040
      9  C          8.4140    1.2410   -0.6740 C.2     1  UNL1        0.0040
     10  C          7.0380   -0.6640   -2.0300 C.2     1  UNL1        0.0000
     11  C          9.0460    0.5720   -1.7030 C.2     1  UNL1        0.0000
     12  C          8.3350   -0.3930   -2.3840 C.2     1  UNL1        0.0000
@<TRIPOS>BOND
     1    12    10    2
     2    12    11    1
     3    10     8    1
     4    11     9    2
     5     8     7    2
     6     9     7    1
     7     7     6    1
     8     1     6    1
     9     1     2    1
    10     2     4    1
    11     2     3    2
    12     4     5    1
