@<TRIPOS>MOLECULE
/home/cewinharhar/GITHUB/reincatalyze/data/processed/docking_pred/2023-Apr-26-1657_maxeplen10_maxtrainstep1000_exh32_gamma099_lrac9e-4_lrcr1e-3/2037f81c995398ea407fbfc0a5ecaefc5001139a_ligand_2.pdbqt
 12 12 0 0 0
SMALL
GASTEIGER

@<TRIPOS>ATOM
      1  C          8.3010    0.4380   -1.8910 C.3     1  UNL1        0.1270
      2  C          9.4670    0.2420   -0.9970 C.2     1  UNL1        0.3030
      3  O          9.4070   -0.5320   -0.0100 O.2     1  UNL1       -0.2520
      4  O         10.6590    0.9090   -1.2280 O.3     1  UNL1       -0.4810
      5  H         11.4930    0.6420   -0.6990 H       1  UNL1        0.2960
      6  C          7.1780   -0.4200   -1.3940 C.3     1  UNL1        0.0470
      7  C          6.3540    0.2150   -0.3670 C.2     1  UNL1       -0.0470
      8  C          6.1450   -0.3990    0.8460 C.2     1  UNL1        0.0040
      9  C          5.7880    1.4430   -0.6230 C.2     1  UNL1        0.0040
     10  C          5.3490    0.2660    1.7810 C.2     1  UNL1        0.0000
     11  C          5.0010    2.0990    0.3020 C.2     1  UNL1        0.0000
     12  C          4.7860    1.4900    1.5190 C.2     1  UNL1        0.0000
@<TRIPOS>BOND
     1     1     6    1
     2     1     2    1
     3     6     7    1
     4     4     2    1
     5     4     5    1
     6     2     3    2
     7     9     7    2
     8     9    11    1
     9     7     8    1
    10    11    12    2
    11     8    10    2
    12    12    10    1
