@<TRIPOS>MOLECULE
/home/cewinharhar/GITHUB/reincatalyze/data/processed/docking_pred/2023-Apr-26-1657_maxeplen10_maxtrainstep1000_exh32_gamma099_lrac9e-4_lrcr1e-3/2037f81c995398ea407fbfc0a5ecaefc5001139a_ligand_2.pdbqt
 12 12 0 0 0
SMALL
GASTEIGER

@<TRIPOS>ATOM
      1  C          8.4210   -0.5670   -2.2050 C.3     1  UNL1        0.1270
      2  C          8.4770   -1.8690   -2.9110 C.2     1  UNL1        0.3030
      3  O          9.5630   -2.4810   -3.0630 O.2     1  UNL1       -0.2520
      4  O          7.3270   -2.4480   -3.4240 O.3     1  UNL1       -0.4810
      5  H          6.5870   -2.7470   -2.7820 H       1  UNL1        0.2960
      6  C          6.9940   -0.1110   -2.1690 C.3     1  UNL1        0.0470
      7  C          6.4680    0.0880   -0.8200 C.2     1  UNL1       -0.0470
      8  C          5.8540    1.2690   -0.4720 C.2     1  UNL1        0.0040
      9  C          6.5900   -0.9230    0.1040 C.2     1  UNL1        0.0040
     10  C          5.3740    1.3900    0.8340 C.2     1  UNL1        0.0000
     11  C          6.1150   -0.8020    1.3950 C.2     1  UNL1        0.0000
     12  C          5.5000    0.3780    1.7520 C.2     1  UNL1        0.0000
@<TRIPOS>BOND
     1     4     2    1
     2     4     5    1
     3     3     2    2
     4     2     1    1
     5     1     6    1
     6     6     7    1
     7     7     8    2
     8     7     9    1
     9     8    10    1
    10     9    11    2
    11    10    12    2
    12    11    12    1
