@<TRIPOS>MOLECULE
/home/cewinharhar/GITHUB/reincatalyze/data/processed/docking_pred/2023-Apr-26-1657_maxeplen10_maxtrainstep1000_exh32_gamma099_lrac9e-4_lrcr1e-3/2037f81c995398ea407fbfc0a5ecaefc5001139a_ligand_2.pdbqt
 12 12 0 0 0
SMALL
GASTEIGER

@<TRIPOS>ATOM
      1  C          8.4070   -0.6280   -2.1290 C.3     1  UNL1        0.1270
      2  C          8.3800   -1.8930   -2.9000 C.2     1  UNL1        0.3030
      3  O          7.2950   -2.4160   -3.2550 O.2     1  UNL1       -0.2520
      4  O          9.5560   -2.5350   -3.2520 O.3     1  UNL1       -0.4810
      5  H          9.9660   -3.2190   -2.6090 H       1  UNL1        0.2960
      6  C          7.0190   -0.0650   -2.0990 C.3     1  UNL1        0.0470
      7  C          6.4670    0.0840   -0.7530 C.2     1  UNL1       -0.0470
      8  C          6.5830   -0.9290    0.1710 C.2     1  UNL1        0.0040
      9  C          5.8270    1.2540   -0.4160 C.2     1  UNL1        0.0040
     10  C          6.0330   -0.7170    1.4370 C.2     1  UNL1        0.0000
     11  C          5.2840    1.4610    0.8370 C.2     1  UNL1        0.0000
     12  C          5.3960    0.4520    1.7680 C.2     1  UNL1        0.0000
@<TRIPOS>BOND
     1     3     2    2
     2     4     2    1
     3     4     5    1
     4     2     1    1
     5     1     6    1
     6     6     7    1
     7     7     9    2
     8     7     8    1
     9     9    11    1
    10     8    10    2
    11    11    12    2
    12    10    12    1
