@<TRIPOS>MOLECULE
/home/cewinharhar/GITHUB/reincatalyze/data/processed/docking_pred/2023-Apr-26-1657_maxeplen10_maxtrainstep1000_exh32_gamma099_lrac9e-4_lrcr1e-3/2037f81c995398ea407fbfc0a5ecaefc5001139a_ligand_2.pdbqt
 12 12 0 0 0
SMALL
GASTEIGER

@<TRIPOS>ATOM
      1  C          5.4890    2.7720    0.0100 C.3     1  UNL1        0.1270
      2  C          6.2100    3.7730    0.8310 C.2     1  UNL1        0.3030
      3  O          6.1630    3.7420    2.0860 O.2     1  UNL1       -0.2520
      4  O          6.9590    4.7740    0.2340 O.3     1  UNL1       -0.4810
      5  H          7.9370    4.5920   -0.0090 H       1  UNL1        0.2960
      6  C          4.9330    1.7250    0.9270 C.3     1  UNL1        0.0470
      7  C          5.7280    0.4990    0.9810 C.2     1  UNL1       -0.0470
      8  C          5.7580   -0.2700    2.1210 C.2     1  UNL1        0.0040
      9  C          6.4490    0.1170   -0.1270 C.2     1  UNL1        0.0040
     10  C          6.5380   -1.4280    2.1010 C.2     1  UNL1        0.0000
     11  C          7.2200   -1.0280   -0.1440 C.2     1  UNL1        0.0000
     12  C          7.2560   -1.8040    0.9940 C.2     1  UNL1        0.0000
@<TRIPOS>BOND
     1    11     9    1
     2    11    12    2
     3     9     7    2
     4     5     4    1
     5     1     2    1
     6     1     6    1
     7     4     2    1
     8     2     3    2
     9     6     7    1
    10     7     8    1
    11    12    10    1
    12    10     8    2
