@<TRIPOS>MOLECULE
/home/cewinharhar/GITHUB/reincatalyze/data/processed/docking_pred/2023-Apr-26-1657_maxeplen10_maxtrainstep1000_exh32_gamma099_lrac9e-4_lrcr1e-3/21195065f8807259401ec3420f3b6dd683f2acc0_ligand_2.pdbqt
 12 12 0 0 0
SMALL
GASTEIGER

@<TRIPOS>ATOM
      1  C          8.4350   -0.5770   -2.2100 C.3     1  UNL1        0.1270
      2  C          8.4640   -1.8810   -2.9130 C.2     1  UNL1        0.3030
      3  O          9.5420   -2.5020   -3.0870 O.2     1  UNL1       -0.2520
      4  O          7.2990   -2.4520   -3.3990 O.3     1  UNL1       -0.4810
      5  H          7.2260   -3.4720   -3.4530 H       1  UNL1        0.2960
      6  C          7.0150   -0.1020   -2.1580 C.3     1  UNL1        0.0470
      7  C          6.4840    0.0370   -0.8030 C.2     1  UNL1       -0.0470
      8  C          6.6090   -0.9840    0.1100 C.2     1  UNL1        0.0040
      9  C          5.8550    1.2070   -0.4450 C.2     1  UNL1        0.0040
     10  C          6.0790   -0.7820    1.3860 C.2     1  UNL1        0.0000
     11  C          5.3310    1.4060    0.8170 C.2     1  UNL1        0.0000
     12  C          5.4520    0.3870    1.7370 C.2     1  UNL1        0.0000
@<TRIPOS>BOND
     1     5     4    1
     2     4     2    1
     3     3     2    2
     4     2     1    1
     5     1     6    1
     6     6     7    1
     7     7     9    2
     8     7     8    1
     9     9    11    1
    10     8    10    2
    11    11    12    2
    12    10    12    1
