@<TRIPOS>MOLECULE
/home/cewinharhar/GITHUB/reincatalyze/data/processed/docking_pred/2023-Apr-26-1657_maxeplen10_maxtrainstep1000_exh32_gamma099_lrac9e-4_lrcr1e-3/21195065f8807259401ec3420f3b6dd683f2acc0_ligand_2.pdbqt
 12 12 0 0 0
SMALL
GASTEIGER

@<TRIPOS>ATOM
      1  C          8.0640   -0.7700   -2.0730 C.3     1  UNL1        0.1270
      2  C          8.2970   -1.9620   -2.9220 C.2     1  UNL1        0.3030
      3  O          9.4460   -2.4500   -3.0570 O.2     1  UNL1       -0.2520
      4  O          7.2480   -2.5710   -3.5920 O.3     1  UNL1       -0.4810
      5  H          6.7520   -2.0540   -4.3230 H       1  UNL1        0.2960
      6  C          7.5010   -1.2280   -0.7620 C.3     1  UNL1        0.0470
      7  C          6.6170   -0.2550   -0.1220 C.2     1  UNL1       -0.0470
      8  C          6.1790   -0.4450    1.1680 C.2     1  UNL1        0.0040
      9  C          6.2260    0.8610   -0.8250 C.2     1  UNL1        0.0040
     10  C          5.3370    0.5250    1.7160 C.2     1  UNL1        0.0000
     11  C          5.3930    1.8190   -0.2820 C.2     1  UNL1        0.0000
     12  C          4.9490    1.6360    1.0100 C.2     1  UNL1        0.0000
@<TRIPOS>BOND
     1     5     4    1
     2     4     2    1
     3     3     2    2
     4     2     1    1
     5     1     6    1
     6     9    11    1
     7     9     7    2
     8     6     7    1
     9    11    12    2
    10     7     8    1
    11    12    10    1
    12     8    10    2
