@<TRIPOS>MOLECULE
/home/cewinharhar/GITHUB/reincatalyze/data/processed/docking_pred/2023-Apr-26-1657_maxeplen10_maxtrainstep1000_exh32_gamma099_lrac9e-4_lrcr1e-3/21195065f8807259401ec3420f3b6dd683f2acc0_ligand_2.pdbqt
 12 12 0 0 0
SMALL
GASTEIGER

@<TRIPOS>ATOM
      1  C          4.9960    1.7860    0.6830 C.3     1  UNL1        0.1270
      2  C          4.4980    1.1120    1.9050 C.2     1  UNL1        0.3030
      3  O          5.1740    0.2230    2.4790 O.2     1  UNL1       -0.2520
      4  O          3.2690    1.4460    2.4500 O.3     1  UNL1       -0.4810
      5  H          3.2350    1.9450    3.3440 H       1  UNL1        0.2960
      6  C          6.4930    1.7910    0.7240 C.3     1  UNL1        0.0470
      7  C          7.1200    1.0330   -0.3580 C.2     1  UNL1       -0.0470
      8  C          6.3840    0.1570   -1.1210 C.2     1  UNL1        0.0040
      9  C          8.4610    1.2070   -0.6100 C.2     1  UNL1        0.0040
     10  C          7.0480   -0.5320   -2.1380 C.2     1  UNL1        0.0000
     11  C          9.1160    0.5250   -1.6160 C.2     1  UNL1        0.0000
     12  C          8.3860   -0.3550   -2.3840 C.2     1  UNL1        0.0000
@<TRIPOS>BOND
     1    12    10    2
     2    12    11    1
     3    10     8    1
     4    11     9    2
     5     8     7    2
     6     9     7    1
     7     7     6    1
     8     1     6    1
     9     1     2    1
    10     2     4    1
    11     2     3    2
    12     4     5    1
