@<TRIPOS>MOLECULE
/home/cewinharhar/GITHUB/reincatalyze/data/processed/docking_pred/2023-Apr-26-1657_maxeplen10_maxtrainstep1000_exh32_gamma099_lrac9e-4_lrcr1e-3/21195065f8807259401ec3420f3b6dd683f2acc0_ligand_2.pdbqt
 12 12 0 0 0
SMALL
GASTEIGER

@<TRIPOS>ATOM
      1  C          5.4150    2.9400   -0.0220 C.3     1  UNL1        0.1270
      2  C          6.2060    3.9050    0.7770 C.2     1  UNL1        0.3030
      3  O          6.9230    4.7750    0.2240 O.2     1  UNL1       -0.2520
      4  O          6.1750    3.8730    2.1620 O.3     1  UNL1       -0.4810
      5  H          5.3040    3.6220    2.6380 H       1  UNL1        0.2960
      6  C          4.9160    1.8660    0.8950 C.3     1  UNL1        0.0470
      7  C          5.7150    0.6420    0.8670 C.2     1  UNL1       -0.0470
      8  C          6.3520    0.2440   -0.2860 C.2     1  UNL1        0.0040
      9  C          5.8280   -0.1140    2.0110 C.2     1  UNL1        0.0040
     10  C          7.0980   -0.9360   -0.2400 C.2     1  UNL1        0.0000
     11  C          6.5660   -1.2800    2.0540 C.2     1  UNL1        0.0000
     12  C          7.2060   -1.6850    0.9040 C.2     1  UNL1        0.0000
@<TRIPOS>BOND
     1     8    10    1
     2     8     7    2
     3    10    12    2
     4     1     2    1
     5     1     6    1
     6     3     2    2
     7     2     4    1
     8     7     6    1
     9     7     9    1
    10    12    11    1
    11     9    11    2
    12     4     5    1
