MODEL 1
REMARK VINA RESULT:      -7.4      0.000      0.000
REMARK SMILES O=C(O)CCc1ccccc1
REMARK SMILES IDX 4 1 2 2 1 3 3 4 5 6 6 7 7 8 11 9 8 10 10 11 9 12
REMARK H PARENT 3 5
REMARK Flexibility Score: inf
ROOT
ATOM      1  C   UNL     1       8.455  -0.628  -2.138  1.00  0.00     0.127 C 
ENDROOT
BRANCH   1   2
ATOM      2  C   UNL     1       8.489  -1.899  -2.899  1.00  0.00     0.303 C 
ATOM      3  O   UNL     1       9.568  -2.509  -3.099  1.00  0.00    -0.252 OA
BRANCH   2   4
ATOM      4  O   UNL     1       7.326  -2.450  -3.412  1.00  0.00    -0.481 OA
ATOM      5  H   UNL     1       6.708  -1.870  -3.986  1.00  0.00     0.296 HD
ENDBRANCH   2   4
ENDBRANCH   1   2
BRANCH   1   6
ATOM      6  C   UNL     1       7.044  -0.123  -2.126  1.00  0.00     0.047 C 
BRANCH   6   7
ATOM      7  C   UNL     1       6.489   0.058  -0.786  1.00  0.00    -0.047 A 
ATOM      8  C   UNL     1       5.843   1.224  -0.444  1.00  0.00     0.004 A 
ATOM      9  C   UNL     1       6.617  -0.955   0.136  1.00  0.00     0.004 A 
ATOM     10  C   UNL     1       5.337   1.327   0.854  1.00  0.00     0.000 A 
ATOM     11  C   UNL     1       6.116  -0.850   1.419  1.00  0.00     0.000 A 
ATOM     12  C   UNL     1       5.468   0.314   1.770  1.00  0.00     0.000 A 
ENDBRANCH   6   7
ENDBRANCH   1   6
TORSDOF 4
ENDMDL
MODEL 2
REMARK VINA RESULT:      -7.3      0.058      1.438
REMARK SMILES O=C(O)CCc1ccccc1
REMARK SMILES IDX 4 1 2 2 1 3 3 4 5 6 6 7 7 8 11 9 8 10 10 11 9 12
REMARK H PARENT 3 5
REMARK Flexibility Score: inf
ROOT
ATOM      1  C   UNL     1       8.435  -0.577  -2.210  1.00  0.00     0.127 C 
ENDROOT
BRANCH   1   2
ATOM      2  C   UNL     1       8.464  -1.881  -2.913  1.00  0.00     0.303 C 
ATOM      3  O   UNL     1       9.542  -2.502  -3.087  1.00  0.00    -0.252 OA
BRANCH   2   4
ATOM      4  O   UNL     1       7.299  -2.452  -3.399  1.00  0.00    -0.481 OA
ATOM      5  H   UNL     1       7.226  -3.472  -3.453  1.00  0.00     0.296 HD
ENDBRANCH   2   4
ENDBRANCH   1   2
BRANCH   1   6
ATOM      6  C   UNL     1       7.015  -0.102  -2.158  1.00  0.00     0.047 C 
BRANCH   6   7
ATOM      7  C   UNL     1       6.484   0.037  -0.803  1.00  0.00    -0.047 A 
ATOM      8  C   UNL     1       6.609  -0.984   0.110  1.00  0.00     0.004 A 
ATOM      9  C   UNL     1       5.855   1.207  -0.445  1.00  0.00     0.004 A 
ATOM     10  C   UNL     1       6.079  -0.782   1.386  1.00  0.00     0.000 A 
ATOM     11  C   UNL     1       5.331   1.406   0.817  1.00  0.00     0.000 A 
ATOM     12  C   UNL     1       5.452   0.387   1.737  1.00  0.00     0.000 A 
ENDBRANCH   6   7
ENDBRANCH   1   6
TORSDOF 4
ENDMDL
MODEL 3
REMARK VINA RESULT:      -7.2      0.609      1.610
REMARK SMILES O=C(O)CCc1ccccc1
REMARK SMILES IDX 4 1 2 2 1 3 3 4 5 6 6 7 7 8 11 9 8 10 10 11 9 12
REMARK H PARENT 3 5
REMARK Flexibility Score: inf
ROOT
ATOM      1  C   UNL     1       8.064  -0.770  -2.073  1.00  0.00     0.127 C 
ENDROOT
BRANCH   1   2
ATOM      2  C   UNL     1       8.297  -1.962  -2.922  1.00  0.00     0.303 C 
ATOM      3  O   UNL     1       9.446  -2.450  -3.057  1.00  0.00    -0.252 OA
BRANCH   2   4
ATOM      4  O   UNL     1       7.248  -2.571  -3.592  1.00  0.00    -0.481 OA
ATOM      5  H   UNL     1       6.752  -2.054  -4.323  1.00  0.00     0.296 HD
ENDBRANCH   2   4
ENDBRANCH   1   2
BRANCH   1   6
ATOM      6  C   UNL     1       7.501  -1.228  -0.762  1.00  0.00     0.047 C 
BRANCH   6   7
ATOM      7  C   UNL     1       6.617  -0.255  -0.122  1.00  0.00    -0.047 A 
ATOM      8  C   UNL     1       6.179  -0.445   1.168  1.00  0.00     0.004 A 
ATOM      9  C   UNL     1       6.226   0.861  -0.825  1.00  0.00     0.004 A 
ATOM     10  C   UNL     1       5.337   0.525   1.716  1.00  0.00     0.000 A 
ATOM     11  C   UNL     1       5.393   1.819  -0.282  1.00  0.00     0.000 A 
ATOM     12  C   UNL     1       4.949   1.636   1.010  1.00  0.00     0.000 A 
ENDBRANCH   6   7
ENDBRANCH   1   6
TORSDOF 4
ENDMDL
MODEL 4
REMARK VINA RESULT:      -6.8      3.375      5.077
REMARK SMILES O=C(O)CCc1ccccc1
REMARK SMILES IDX 4 1 2 2 1 3 3 4 5 6 6 7 7 8 11 9 8 10 10 11 9 12
REMARK H PARENT 3 5
REMARK Flexibility Score: inf
ROOT
ATOM      1  C   UNL     1       4.996   1.786   0.683  1.00  0.00     0.127 C 
ENDROOT
BRANCH   1   2
ATOM      2  C   UNL     1       4.498   1.112   1.905  1.00  0.00     0.303 C 
ATOM      3  O   UNL     1       5.174   0.223   2.479  1.00  0.00    -0.252 OA
BRANCH   2   4
ATOM      4  O   UNL     1       3.269   1.446   2.450  1.00  0.00    -0.481 OA
ATOM      5  H   UNL     1       3.235   1.945   3.344  1.00  0.00     0.296 HD
ENDBRANCH   2   4
ENDBRANCH   1   2
BRANCH   1   6
ATOM      6  C   UNL     1       6.493   1.791   0.724  1.00  0.00     0.047 C 
BRANCH   6   7
ATOM      7  C   UNL     1       7.120   1.033  -0.358  1.00  0.00    -0.047 A 
ATOM      8  C   UNL     1       6.384   0.157  -1.121  1.00  0.00     0.004 A 
ATOM      9  C   UNL     1       8.461   1.207  -0.610  1.00  0.00     0.004 A 
ATOM     10  C   UNL     1       7.048  -0.532  -2.138  1.00  0.00     0.000 A 
ATOM     11  C   UNL     1       9.116   0.525  -1.616  1.00  0.00     0.000 A 
ATOM     12  C   UNL     1       8.386  -0.355  -2.384  1.00  0.00     0.000 A 
ENDBRANCH   6   7
ENDBRANCH   1   6
TORSDOF 4
ENDMDL
MODEL 5
REMARK VINA RESULT:      -6.7      3.810      4.933
REMARK SMILES O=C(O)CCc1ccccc1
REMARK SMILES IDX 4 1 2 2 1 3 3 4 5 6 6 7 7 8 11 9 8 10 10 11 9 12
REMARK H PARENT 3 5
REMARK Flexibility Score: inf
ROOT
ATOM      1  C   UNL     1       5.415   2.940  -0.022  1.00  0.00     0.127 C 
ENDROOT
BRANCH   1   2
ATOM      2  C   UNL     1       6.206   3.905   0.777  1.00  0.00     0.303 C 
ATOM      3  O   UNL     1       6.923   4.775   0.224  1.00  0.00    -0.252 OA
BRANCH   2   4
ATOM      4  O   UNL     1       6.175   3.873   2.162  1.00  0.00    -0.481 OA
ATOM      5  H   UNL     1       5.304   3.622   2.638  1.00  0.00     0.296 HD
ENDBRANCH   2   4
ENDBRANCH   1   2
BRANCH   1   6
ATOM      6  C   UNL     1       4.916   1.866   0.895  1.00  0.00     0.047 C 
BRANCH   6   7
ATOM      7  C   UNL     1       5.715   0.642   0.867  1.00  0.00    -0.047 A 
ATOM      8  C   UNL     1       6.352   0.244  -0.286  1.00  0.00     0.004 A 
ATOM      9  C   UNL     1       5.828  -0.114   2.011  1.00  0.00     0.004 A 
ATOM     10  C   UNL     1       7.098  -0.936  -0.240  1.00  0.00     0.000 A 
ATOM     11  C   UNL     1       6.566  -1.280   2.054  1.00  0.00     0.000 A 
ATOM     12  C   UNL     1       7.206  -1.685   0.904  1.00  0.00     0.000 A 
ENDBRANCH   6   7
ENDBRANCH   1   6
TORSDOF 4
ENDMDL
