@<TRIPOS>MOLECULE
/home/cewinharhar/GITHUB/reincatalyze/data/processed/docking_pred/2023-Apr-26-1657_maxeplen10_maxtrainstep1000_exh32_gamma099_lrac9e-4_lrcr1e-3/22478e644e92021fed45641255b53d2cc77f0790_ligand_2.pdbqt
 12 12 0 0 0
SMALL
GASTEIGER

@<TRIPOS>ATOM
      1  C          8.4140   -0.5300   -2.2670 C.3     1  UNL1        0.1270
      2  C          8.4680   -1.8570   -2.9230 C.2     1  UNL1        0.3030
      3  O          9.5540   -2.4730   -3.0570 O.2     1  UNL1       -0.2520
      4  O          7.3170   -2.4560   -3.4100 O.3     1  UNL1       -0.4810
      5  H          7.3930   -3.3250   -3.9460 H       1  UNL1        0.2960
      6  C          6.9800   -0.1040   -2.1820 C.3     1  UNL1        0.0470
      7  C          6.4790    0.0300   -0.8150 C.2     1  UNL1       -0.0470
      8  C          6.6220   -0.9950    0.0900 C.2     1  UNL1        0.0040
      9  C          5.8620    1.2010   -0.4390 C.2     1  UNL1        0.0040
     10  C          6.1210   -0.7960    1.3790 C.2     1  UNL1        0.0000
     11  C          5.3660    1.3950    0.8350 C.2     1  UNL1        0.0000
     12  C          5.5050    0.3730    1.7490 C.2     1  UNL1        0.0000
@<TRIPOS>BOND
     1     5     4    1
     2     4     2    1
     3     3     2    2
     4     2     1    1
     5     1     6    1
     6     6     7    1
     7     7     9    2
     8     7     8    1
     9     9    11    1
    10     8    10    2
    11    11    12    2
    12    10    12    1
