@<TRIPOS>MOLECULE
/home/cewinharhar/GITHUB/reincatalyze/data/processed/docking_pred/2023-Apr-26-1657_maxeplen10_maxtrainstep1000_exh32_gamma099_lrac9e-4_lrcr1e-3/22478e644e92021fed45641255b53d2cc77f0790_ligand_2.pdbqt
 12 12 0 0 0
SMALL
GASTEIGER

@<TRIPOS>ATOM
      1  C          8.1670    0.2530   -2.0960 C.3     1  UNL1        0.1270
      2  C          9.3470    0.3610   -1.2070 C.2     1  UNL1        0.3030
      3  O          9.4800   -0.3870   -0.2070 O.2     1  UNL1       -0.2520
      4  O         10.3410    1.2940   -1.4570 O.3     1  UNL1       -0.4810
      5  H         10.2220    2.2540   -1.1230 H       1  UNL1        0.2960
      6  C          7.1370   -0.5920   -1.4100 C.3     1  UNL1        0.0470
      7  C          6.3540    0.1250   -0.4050 C.2     1  UNL1       -0.0470
      8  C          5.8090    1.3570   -0.6840 C.2     1  UNL1        0.0040
      9  C          6.1640   -0.4470    0.8320 C.2     1  UNL1        0.0040
     10  C          5.0720    1.9840    0.3230 C.2     1  UNL1        0.0000
     11  C          5.4360    0.1740    1.8270 C.2     1  UNL1        0.0000
     12  C          4.8870    1.4080    1.5550 C.2     1  UNL1        0.0000
@<TRIPOS>BOND
     1     1     6    1
     2     1     2    1
     3     4     2    1
     4     4     5    1
     5     6     7    1
     6     2     3    2
     7     8     7    2
     8     8    10    1
     9     7     9    1
    10    10    12    2
    11     9    11    2
    12    12    11    1
