@<TRIPOS>MOLECULE
/home/cewinharhar/GITHUB/reincatalyze/data/processed/docking_pred/2023-Apr-26-1657_maxeplen10_maxtrainstep1000_exh32_gamma099_lrac9e-4_lrcr1e-3/22478e644e92021fed45641255b53d2cc77f0790_ligand_2.pdbqt
 12 12 0 0 0
SMALL
GASTEIGER

@<TRIPOS>ATOM
      1  C          8.2680   -1.5450    0.9800 C.3     1  UNL1        0.1270
      2  C          8.5090   -2.8000    0.2290 C.2     1  UNL1        0.3030
      3  O          9.0730   -3.7840    0.7690 O.2     1  UNL1       -0.2520
      4  O          8.1170   -2.9220   -1.0940 O.3     1  UNL1       -0.4810
      5  H          7.2100   -3.3440   -1.3110 H       1  UNL1        0.2960
      6  C          6.7990   -1.4350    1.2530 C.3     1  UNL1        0.0470
      7  C          6.1990   -0.1870    0.7840 C.2     1  UNL1       -0.0470
      8  C          5.4480    0.5940    1.6310 C.2     1  UNL1        0.0040
      9  C          6.3950    0.2030   -0.5200 C.2     1  UNL1        0.0040
     10  C          4.9060    1.7730    1.1160 C.2     1  UNL1        0.0000
     11  C          5.8590    1.3690   -1.0290 C.2     1  UNL1        0.0000
     12  C          5.1040    2.1570   -0.1870 C.2     1  UNL1        0.0000
@<TRIPOS>BOND
     1     5     4    1
     2     4     2    1
     3    11     9    1
     4    11    12    2
     5     9     7    2
     6    12    10    1
     7     2     3    2
     8     2     1    1
     9     7     6    1
    10     7     8    1
    11     1     6    1
    12    10     8    2
