@<TRIPOS>MOLECULE
/home/cewinharhar/GITHUB/reincatalyze/data/processed/docking_pred/2023-Apr-26-1657_maxeplen10_maxtrainstep1000_exh32_gamma099_lrac9e-4_lrcr1e-3/22478e644e92021fed45641255b53d2cc77f0790_ligand_2.pdbqt
 12 12 0 0 0
SMALL
GASTEIGER

@<TRIPOS>ATOM
      1  C          5.0650    1.7340    0.6890 C.3     1  UNL1        0.1270
      2  C          4.5930    1.0470    1.9150 C.2     1  UNL1        0.3030
      3  O          5.2970    0.1770    2.4860 O.2     1  UNL1       -0.2520
      4  O          3.3570    1.3460    2.4650 O.3     1  UNL1       -0.4810
      5  H          2.8960    0.6570    3.0660 H       1  UNL1        0.2960
      6  C          6.5630    1.7620    0.7130 C.3     1  UNL1        0.0470
      7  C          7.1890    1.0040   -0.3690 C.2     1  UNL1       -0.0470
      8  C          8.5100    1.2050   -0.6950 C.2     1  UNL1        0.0040
      9  C          6.4410    0.0810   -1.0630 C.2     1  UNL1        0.0040
     10  C          9.0420    0.4460   -1.7400 C.2     1  UNL1        0.0000
     11  C          6.9680   -0.6680   -2.0960 C.2     1  UNL1        0.0000
     12  C          8.2910   -0.4730   -2.4290 C.2     1  UNL1        0.0000
@<TRIPOS>BOND
     1    12    11    2
     2    12    10    1
     3    11     9    1
     4    10     8    2
     5     9     7    2
     6     8     7    1
     7     7     6    1
     8     1     6    1
     9     1     2    1
    10     2     4    1
    11     2     3    2
    12     4     5    1
