@<TRIPOS>MOLECULE
/home/cewinharhar/GITHUB/reincatalyze/data/processed/docking_pred/2023-Apr-26-1657_maxeplen10_maxtrainstep1000_exh32_gamma099_lrac9e-4_lrcr1e-3/22478e644e92021fed45641255b53d2cc77f0790_ligand_2.pdbqt
 12 12 0 0 0
SMALL
GASTEIGER

@<TRIPOS>ATOM
      1  C          8.3700   -0.6970   -2.0690 C.3     1  UNL1        0.1270
      2  C          8.4240   -1.9350   -2.8820 C.2     1  UNL1        0.3030
      3  O          9.5110   -2.5270   -3.0940 O.2     1  UNL1       -0.2520
      4  O          7.2720   -2.4730   -3.4330 O.3     1  UNL1       -0.4810
      5  H          6.6050   -1.8540   -3.9020 H       1  UNL1        0.2960
      6  C          6.9580   -0.1960   -2.0670 C.3     1  UNL1        0.0470
      7  C          6.4160    0.0500   -0.7320 C.2     1  UNL1       -0.0470
      8  C          5.8190    1.2510   -0.4260 C.2     1  UNL1        0.0040
      9  C          6.5060   -0.9370    0.2220 C.2     1  UNL1        0.0040
     10  C          5.3230    1.4160    0.8690 C.2     1  UNL1        0.0000
     11  C          6.0150   -0.7720    1.5010 C.2     1  UNL1        0.0000
     12  C          5.4160    0.4280    1.8170 C.2     1  UNL1        0.0000
@<TRIPOS>BOND
     1     5     4    1
     2     4     2    1
     3     3     2    2
     4     2     1    1
     5     1     6    1
     6     6     7    1
     7     7     8    2
     8     7     9    1
     9     8    10    1
    10     9    11    2
    11    10    12    2
    12    11    12    1
