@<TRIPOS>MOLECULE
/home/cewinharhar/GITHUB/reincatalyze/data/processed/docking_pred/2023-Apr-26-1657_maxeplen10_maxtrainstep1000_exh32_gamma099_lrac9e-4_lrcr1e-3/225d7738cc918e3754e3779366d54ccb252183f1_ligand_2.pdbqt
 12 12 0 0 0
SMALL
GASTEIGER

@<TRIPOS>ATOM
      1  C          5.4340    2.9040    0.0100 C.3     1  UNL1        0.1270
      2  C          6.2340    3.8680    0.8030 C.2     1  UNL1        0.3030
      3  O          6.9030    4.7720    0.2450 O.2     1  UNL1       -0.2520
      4  O          6.2640    3.7960    2.1860 O.3     1  UNL1       -0.4810
      5  H          5.5340    3.2730    2.6770 H       1  UNL1        0.2960
      6  C          4.9270    1.8400    0.9350 C.3     1  UNL1        0.0470
      7  C          5.7160    0.6100    0.9170 C.2     1  UNL1       -0.0470
      8  C          6.3770    0.2150   -0.2230 C.2     1  UNL1        0.0040
      9  C          5.7940   -0.1550    2.0580 C.2     1  UNL1        0.0040
     10  C          7.1120   -0.9710   -0.1680 C.2     1  UNL1        0.0000
     11  C          6.5220   -1.3270    2.1100 C.2     1  UNL1        0.0000
     12  C          7.1860   -1.7300    0.9720 C.2     1  UNL1        0.0000
@<TRIPOS>BOND
     1     8    10    1
     2     8     7    2
     3    10    12    2
     4     1     2    1
     5     1     6    1
     6     3     2    2
     7     2     4    1
     8     7     6    1
     9     7     9    1
    10    12    11    1
    11     9    11    2
    12     4     5    1
