@<TRIPOS>MOLECULE
/home/cewinharhar/GITHUB/reincatalyze/data/processed/docking_pred/2023-Apr-26-1657_maxeplen10_maxtrainstep1000_exh32_gamma099_lrac9e-4_lrcr1e-3/225d7738cc918e3754e3779366d54ccb252183f1_ligand_2.pdbqt
 12 12 0 0 0
SMALL
GASTEIGER

@<TRIPOS>ATOM
      1  C          8.4080   -0.6490   -2.0980 C.3     1  UNL1        0.1270
      2  C          8.3760   -1.9010   -2.8900 C.2     1  UNL1        0.3030
      3  O          7.2880   -2.4140   -3.2530 O.2     1  UNL1       -0.2520
      4  O          9.5490   -2.5430   -3.2530 O.3     1  UNL1       -0.4810
      5  H         10.0140   -2.2810   -4.1260 H       1  UNL1        0.2960
      6  C          7.0250   -0.0730   -2.0720 C.3     1  UNL1        0.0470
      7  C          6.4660    0.0700   -0.7280 C.2     1  UNL1       -0.0470
      8  C          6.5810   -0.9450    0.1930 C.2     1  UNL1        0.0040
      9  C          5.8230    1.2380   -0.3900 C.2     1  UNL1        0.0040
     10  C          6.0240   -0.7380    1.4580 C.2     1  UNL1        0.0000
     11  C          5.2730    1.4410    0.8600 C.2     1  UNL1        0.0000
     12  C          5.3820    0.4290    1.7890 C.2     1  UNL1        0.0000
@<TRIPOS>BOND
     1     5     4    1
     2     3     2    2
     3     4     2    1
     4     2     1    1
     5     1     6    1
     6     6     7    1
     7     7     9    2
     8     7     8    1
     9     9    11    1
    10     8    10    2
    11    11    12    2
    12    10    12    1
