MODEL 1
REMARK VINA RESULT:      -7.3      0.000      0.000
REMARK SMILES O=C(O)CCc1ccccc1
REMARK SMILES IDX 4 1 2 2 1 3 3 4 5 6 6 7 7 8 11 9 8 10 10 11 9 12
REMARK H PARENT 3 5
REMARK Flexibility Score: inf
ROOT
ATOM      1  C   UNL     1       8.408  -0.649  -2.098  1.00  0.00     0.127 C 
ENDROOT
BRANCH   1   2
ATOM      2  C   UNL     1       8.376  -1.901  -2.890  1.00  0.00     0.303 C 
ATOM      3  O   UNL     1       7.288  -2.414  -3.253  1.00  0.00    -0.252 OA
BRANCH   2   4
ATOM      4  O   UNL     1       9.549  -2.543  -3.253  1.00  0.00    -0.481 OA
ATOM      5  H   UNL     1      10.014  -2.281  -4.126  1.00  0.00     0.296 HD
ENDBRANCH   2   4
ENDBRANCH   1   2
BRANCH   1   6
ATOM      6  C   UNL     1       7.025  -0.073  -2.072  1.00  0.00     0.047 C 
BRANCH   6   7
ATOM      7  C   UNL     1       6.466   0.070  -0.728  1.00  0.00    -0.047 A 
ATOM      8  C   UNL     1       6.581  -0.945   0.193  1.00  0.00     0.004 A 
ATOM      9  C   UNL     1       5.823   1.238  -0.390  1.00  0.00     0.004 A 
ATOM     10  C   UNL     1       6.024  -0.738   1.458  1.00  0.00     0.000 A 
ATOM     11  C   UNL     1       5.273   1.441   0.860  1.00  0.00     0.000 A 
ATOM     12  C   UNL     1       5.382   0.429   1.789  1.00  0.00     0.000 A 
ENDBRANCH   6   7
ENDBRANCH   1   6
TORSDOF 4
ENDMDL
MODEL 2
REMARK VINA RESULT:      -7.3      0.075      1.438
REMARK SMILES O=C(O)CCc1ccccc1
REMARK SMILES IDX 4 1 2 2 1 3 3 4 5 6 6 7 7 8 11 9 8 10 10 11 9 12
REMARK H PARENT 3 5
REMARK Flexibility Score: inf
ROOT
ATOM      1  C   UNL     1       8.396  -0.622  -2.115  1.00  0.00     0.127 C 
ENDROOT
BRANCH   1   2
ATOM      2  C   UNL     1       8.368  -1.885  -2.891  1.00  0.00     0.303 C 
ATOM      3  O   UNL     1       7.282  -2.406  -3.248  1.00  0.00    -0.252 OA
BRANCH   2   4
ATOM      4  O   UNL     1       9.544  -2.526  -3.245  1.00  0.00    -0.481 OA
ATOM      5  H   UNL     1       9.976  -3.180  -2.586  1.00  0.00     0.296 HD
ENDBRANCH   2   4
ENDBRANCH   1   2
BRANCH   1   6
ATOM      6  C   UNL     1       7.009  -0.056  -2.088  1.00  0.00     0.047 C 
BRANCH   6   7
ATOM      7  C   UNL     1       6.455   0.098  -0.744  1.00  0.00    -0.047 A 
ATOM      8  C   UNL     1       5.814   1.257  -0.376  1.00  0.00     0.004 A 
ATOM      9  C   UNL     1       6.580  -0.936   0.155  1.00  0.00     0.004 A 
ATOM     10  C   UNL     1       5.309   1.334   0.924  1.00  0.00     0.000 A 
ATOM     11  C   UNL     1       6.080  -0.858   1.440  1.00  0.00     0.000 A 
ATOM     12  C   UNL     1       5.437   0.300   1.817  1.00  0.00     0.000 A 
ENDBRANCH   6   7
ENDBRANCH   1   6
TORSDOF 4
ENDMDL
MODEL 3
REMARK VINA RESULT:      -6.8      3.315      5.143
REMARK SMILES O=C(O)CCc1ccccc1
REMARK SMILES IDX 4 1 2 2 1 3 3 4 5 6 6 7 7 8 11 9 8 10 10 11 9 12
REMARK H PARENT 3 5
REMARK Flexibility Score: inf
ROOT
ATOM      1  C   UNL     1       4.990   1.810   0.696  1.00  0.00     0.127 C 
ENDROOT
BRANCH   1   2
ATOM      2  C   UNL     1       4.484   1.129   1.911  1.00  0.00     0.303 C 
ATOM      3  O   UNL     1       5.154   0.231   2.480  1.00  0.00    -0.252 OA
BRANCH   2   4
ATOM      4  O   UNL     1       3.255   1.466   2.454  1.00  0.00    -0.481 OA
ATOM      5  H   UNL     1       2.467   1.658   1.830  1.00  0.00     0.296 HD
ENDBRANCH   2   4
ENDBRANCH   1   2
BRANCH   1   6
ATOM      6  C   UNL     1       6.487   1.796   0.736  1.00  0.00     0.047 C 
BRANCH   6   7
ATOM      7  C   UNL     1       7.105   1.041  -0.353  1.00  0.00    -0.047 A 
ATOM      8  C   UNL     1       6.366   0.153  -1.100  1.00  0.00     0.004 A 
ATOM      9  C   UNL     1       8.440   1.228  -0.627  1.00  0.00     0.004 A 
ATOM     10  C   UNL     1       7.021  -0.533  -2.125  1.00  0.00     0.000 A 
ATOM     11  C   UNL     1       9.086   0.549  -1.641  1.00  0.00     0.000 A 
ATOM     12  C   UNL     1       8.353  -0.343  -2.394  1.00  0.00     0.000 A 
ENDBRANCH   6   7
ENDBRANCH   1   6
TORSDOF 4
ENDMDL
MODEL 4
REMARK VINA RESULT:      -6.8      3.304      5.143
REMARK SMILES O=C(O)CCc1ccccc1
REMARK SMILES IDX 4 1 2 2 1 3 3 4 5 6 6 7 7 8 11 9 8 10 10 11 9 12
REMARK H PARENT 3 5
REMARK Flexibility Score: inf
ROOT
ATOM      1  C   UNL     1       5.011   1.770   0.653  1.00  0.00     0.127 C 
ENDROOT
BRANCH   1   2
ATOM      2  C   UNL     1       4.505   1.115   1.883  1.00  0.00     0.303 C 
ATOM      3  O   UNL     1       5.171   0.224   2.466  1.00  0.00    -0.252 OA
BRANCH   2   4
ATOM      4  O   UNL     1       3.280   1.470   2.424  1.00  0.00    -0.481 OA
ATOM      5  H   UNL     1       2.512   0.793   2.409  1.00  0.00     0.296 HD
ENDBRANCH   2   4
ENDBRANCH   1   2
BRANCH   1   6
ATOM      6  C   UNL     1       6.507   1.794   0.714  1.00  0.00     0.047 C 
BRANCH   6   7
ATOM      7  C   UNL     1       7.159   1.041  -0.357  1.00  0.00    -0.047 A 
ATOM      8  C   UNL     1       8.491   1.232  -0.641  1.00  0.00     0.004 A 
ATOM      9  C   UNL     1       6.423   0.132  -1.081  1.00  0.00     0.004 A 
ATOM     10  C   UNL     1       9.047   0.477  -1.676  1.00  0.00     0.000 A 
ATOM     11  C   UNL     1       6.974  -0.613  -2.105  1.00  0.00     0.000 A 
ATOM     12  C   UNL     1       8.308  -0.428  -2.396  1.00  0.00     0.000 A 
ENDBRANCH   6   7
ENDBRANCH   1   6
TORSDOF 4
ENDMDL
MODEL 5
REMARK VINA RESULT:      -6.7      3.811      5.004
REMARK SMILES O=C(O)CCc1ccccc1
REMARK SMILES IDX 4 1 2 2 1 3 3 4 5 6 6 7 7 8 11 9 8 10 10 11 9 12
REMARK H PARENT 3 5
REMARK Flexibility Score: inf
ROOT
ATOM      1  C   UNL     1       5.434   2.904   0.010  1.00  0.00     0.127 C 
ENDROOT
BRANCH   1   2
ATOM      2  C   UNL     1       6.234   3.868   0.803  1.00  0.00     0.303 C 
ATOM      3  O   UNL     1       6.903   4.772   0.245  1.00  0.00    -0.252 OA
BRANCH   2   4
ATOM      4  O   UNL     1       6.264   3.796   2.186  1.00  0.00    -0.481 OA
ATOM      5  H   UNL     1       5.534   3.273   2.677  1.00  0.00     0.296 HD
ENDBRANCH   2   4
ENDBRANCH   1   2
BRANCH   1   6
ATOM      6  C   UNL     1       4.927   1.840   0.935  1.00  0.00     0.047 C 
BRANCH   6   7
ATOM      7  C   UNL     1       5.716   0.610   0.917  1.00  0.00    -0.047 A 
ATOM      8  C   UNL     1       6.377   0.215  -0.223  1.00  0.00     0.004 A 
ATOM      9  C   UNL     1       5.794  -0.155   2.058  1.00  0.00     0.004 A 
ATOM     10  C   UNL     1       7.112  -0.971  -0.168  1.00  0.00     0.000 A 
ATOM     11  C   UNL     1       6.522  -1.327   2.110  1.00  0.00     0.000 A 
ATOM     12  C   UNL     1       7.186  -1.730   0.972  1.00  0.00     0.000 A 
ENDBRANCH   6   7
ENDBRANCH   1   6
TORSDOF 4
ENDMDL
