@<TRIPOS>MOLECULE
/home/cewinharhar/GITHUB/reincatalyze/data/processed/docking_pred/2023-Apr-26-1657_maxeplen10_maxtrainstep1000_exh32_gamma099_lrac9e-4_lrcr1e-3/225d7738cc918e3754e3779366d54ccb252183f1_ligand_2.pdbqt
 12 12 0 0 0
SMALL
GASTEIGER

@<TRIPOS>ATOM
      1  C          4.9900    1.8100    0.6960 C.3     1  UNL1        0.1270
      2  C          4.4840    1.1290    1.9110 C.2     1  UNL1        0.3030
      3  O          5.1540    0.2310    2.4800 O.2     1  UNL1       -0.2520
      4  O          3.2550    1.4660    2.4540 O.3     1  UNL1       -0.4810
      5  H          2.4670    1.6580    1.8300 H       1  UNL1        0.2960
      6  C          6.4870    1.7960    0.7360 C.3     1  UNL1        0.0470
      7  C          7.1050    1.0410   -0.3530 C.2     1  UNL1       -0.0470
      8  C          6.3660    0.1530   -1.1000 C.2     1  UNL1        0.0040
      9  C          8.4400    1.2280   -0.6270 C.2     1  UNL1        0.0040
     10  C          7.0210   -0.5330   -2.1250 C.2     1  UNL1        0.0000
     11  C          9.0860    0.5490   -1.6410 C.2     1  UNL1        0.0000
     12  C          8.3530   -0.3430   -2.3940 C.2     1  UNL1        0.0000
@<TRIPOS>BOND
     1    12    10    2
     2    12    11    1
     3    10     8    1
     4    11     9    2
     5     8     7    2
     6     9     7    1
     7     7     6    1
     8     1     6    1
     9     1     2    1
    10     5     4    1
    11     2     4    1
    12     2     3    2
