@<TRIPOS>MOLECULE
/home/cewinharhar/GITHUB/reincatalyze/data/processed/docking_pred/2023-Apr-26-1657_maxeplen10_maxtrainstep1000_exh32_gamma099_lrac9e-4_lrcr1e-3/225d7738cc918e3754e3779366d54ccb252183f1_ligand_2.pdbqt
 12 12 0 0 0
SMALL
GASTEIGER

@<TRIPOS>ATOM
      1  C          5.0110    1.7700    0.6530 C.3     1  UNL1        0.1270
      2  C          4.5050    1.1150    1.8830 C.2     1  UNL1        0.3030
      3  O          5.1710    0.2240    2.4660 O.2     1  UNL1       -0.2520
      4  O          3.2800    1.4700    2.4240 O.3     1  UNL1       -0.4810
      5  H          2.5120    0.7930    2.4090 H       1  UNL1        0.2960
      6  C          6.5070    1.7940    0.7140 C.3     1  UNL1        0.0470
      7  C          7.1590    1.0410   -0.3570 C.2     1  UNL1       -0.0470
      8  C          8.4910    1.2320   -0.6410 C.2     1  UNL1        0.0040
      9  C          6.4230    0.1320   -1.0810 C.2     1  UNL1        0.0040
     10  C          9.0470    0.4770   -1.6760 C.2     1  UNL1        0.0000
     11  C          6.9740   -0.6130   -2.1050 C.2     1  UNL1        0.0000
     12  C          8.3080   -0.4280   -2.3960 C.2     1  UNL1        0.0000
@<TRIPOS>BOND
     1    12    11    2
     2    12    10    1
     3    11     9    1
     4    10     8    2
     5     9     7    2
     6     8     7    1
     7     7     6    1
     8     1     6    1
     9     1     2    1
    10     2     4    1
    11     2     3    2
    12     5     4    1
