@<TRIPOS>MOLECULE
/home/cewinharhar/GITHUB/reincatalyze/data/processed/docking_pred/2023-Apr-26-1657_maxeplen10_maxtrainstep1000_exh32_gamma099_lrac9e-4_lrcr1e-3/2368d29bb7bbfa5e31d33bb3936e2ea89938fe66_ligand_2.pdbqt
 12 12 0 0 0
SMALL
GASTEIGER

@<TRIPOS>ATOM
      1  C          8.4120   -0.6460   -2.0890 C.3     1  UNL1        0.1270
      2  C          8.3730   -1.8990   -2.8790 C.2     1  UNL1        0.3030
      3  O          7.2830   -2.4060   -3.2430 O.2     1  UNL1       -0.2520
      4  O          9.5430   -2.5490   -3.2390 O.3     1  UNL1       -0.4810
      5  H         10.4350   -2.2210   -2.8570 H       1  UNL1        0.2960
      6  C          7.0350   -0.0560   -2.0760 C.3     1  UNL1        0.0470
      7  C          6.4670    0.0970   -0.7370 C.2     1  UNL1       -0.0470
      8  C          6.5980   -0.9000    0.2010 C.2     1  UNL1        0.0040
      9  C          5.7980    1.2570   -0.4210 C.2     1  UNL1        0.0040
     10  C          6.0320   -0.6850    1.4590 C.2     1  UNL1        0.0000
     11  C          5.2380    1.4680    0.8240 C.2     1  UNL1        0.0000
     12  C          5.3640    0.4730    1.7690 C.2     1  UNL1        0.0000
@<TRIPOS>BOND
     1     3     2    2
     2     4     2    1
     3     4     5    1
     4     2     1    1
     5     1     6    1
     6     6     7    1
     7     7     9    2
     8     7     8    1
     9     9    11    1
    10     8    10    2
    11    11    12    2
    12    10    12    1
