@<TRIPOS>MOLECULE
/home/cewinharhar/GITHUB/reincatalyze/data/processed/docking_pred/2023-Apr-26-1657_maxeplen10_maxtrainstep1000_exh32_gamma099_lrac9e-4_lrcr1e-3/2368d29bb7bbfa5e31d33bb3936e2ea89938fe66_ligand_2.pdbqt
 12 12 0 0 0
SMALL
GASTEIGER

@<TRIPOS>ATOM
      1  C          8.2520    0.2730   -2.1710 C.3     1  UNL1        0.1270
      2  C          9.3830    0.3640   -1.2170 C.2     1  UNL1        0.3030
      3  O          9.4570   -0.3970   -0.2210 O.2     1  UNL1       -0.2520
      4  O         10.3930    1.2950   -1.4000 O.3     1  UNL1       -0.4810
      5  H         11.1710    1.3270   -0.7360 H       1  UNL1        0.2960
      6  C          7.1490   -0.5040   -1.5200 C.3     1  UNL1        0.0470
      7  C          6.3590    0.2720   -0.5650 C.2     1  UNL1       -0.0470
      8  C          6.1390   -0.1960    0.7100 C.2     1  UNL1        0.0040
      9  C          5.8370    1.4840   -0.9530 C.2     1  UNL1        0.0040
     10  C          5.3760    0.5980    1.5700 C.2     1  UNL1        0.0000
     11  C          5.0830    2.2670   -0.1020 C.2     1  UNL1        0.0000
     12  C          4.8570    1.8050    1.1760 C.2     1  UNL1        0.0000
@<TRIPOS>BOND
     1     1     6    1
     2     1     2    1
     3     6     7    1
     4     4     2    1
     5     4     5    1
     6     2     3    2
     7     9     7    2
     8     9    11    1
     9     7     8    1
    10    11    12    2
    11     8    10    2
    12    12    10    1
