@<TRIPOS>MOLECULE
/home/cewinharhar/GITHUB/reincatalyze/data/processed/docking_pred/2023-Apr-26-1657_maxeplen10_maxtrainstep1000_exh32_gamma099_lrac9e-4_lrcr1e-3/2368d29bb7bbfa5e31d33bb3936e2ea89938fe66_ligand_2.pdbqt
 12 12 0 0 0
SMALL
GASTEIGER

@<TRIPOS>ATOM
      1  C          5.0230    1.7250    0.6380 C.3     1  UNL1        0.1270
      2  C          4.5250    1.0950    1.8830 C.2     1  UNL1        0.3030
      3  O          5.1950    0.2180    2.4820 O.2     1  UNL1       -0.2520
      4  O          3.3010    1.4580    2.4220 O.3     1  UNL1       -0.4810
      5  H          2.5670    0.7510    2.5180 H       1  UNL1        0.2960
      6  C          6.5200    1.7560    0.6920 C.3     1  UNL1        0.0470
      7  C          7.1690    1.0020   -0.3800 C.2     1  UNL1       -0.0470
      8  C          8.5040    1.1830   -0.6580 C.2     1  UNL1        0.0040
      9  C          6.4290    0.1020   -1.1110 C.2     1  UNL1        0.0040
     10  C          9.0580    0.4280   -1.6940 C.2     1  UNL1        0.0000
     11  C          6.9780   -0.6430   -2.1350 C.2     1  UNL1        0.0000
     12  C          8.3140   -0.4670   -2.4210 C.2     1  UNL1        0.0000
@<TRIPOS>BOND
     1    12    11    2
     2    12    10    1
     3    11     9    1
     4    10     8    2
     5     9     7    2
     6     8     7    1
     7     7     6    1
     8     1     6    1
     9     1     2    1
    10     2     4    1
    11     2     3    2
    12     4     5    1
