MODEL 1
REMARK VINA RESULT:      -7.4      0.000      0.000
REMARK SMILES O=C(O)CCc1ccccc1
REMARK SMILES IDX 4 1 2 2 1 3 3 4 5 6 6 7 7 8 11 9 8 10 10 11 9 12
REMARK H PARENT 3 5
REMARK Flexibility Score: inf
ROOT
ATOM      1  C   UNL     1       8.430  -0.600  -2.163  1.00  0.00     0.127 C 
ENDROOT
BRANCH   1   2
ATOM      2  C   UNL     1       8.485  -1.880  -2.908  1.00  0.00     0.303 C 
ATOM      3  O   UNL     1       9.571  -2.485  -3.083  1.00  0.00    -0.252 OA
BRANCH   2   4
ATOM      4  O   UNL     1       7.334  -2.444  -3.435  1.00  0.00    -0.481 OA
ATOM      5  H   UNL     1       6.471  -1.894  -3.458  1.00  0.00     0.296 HD
ENDBRANCH   2   4
ENDBRANCH   1   2
BRANCH   1   6
ATOM      6  C   UNL     1       7.009  -0.125  -2.147  1.00  0.00     0.047 C 
BRANCH   6   7
ATOM      7  C   UNL     1       6.466   0.082  -0.806  1.00  0.00    -0.047 A 
ATOM      8  C   UNL     1       5.824   1.254  -0.480  1.00  0.00     0.004 A 
ATOM      9  C   UNL     1       6.602  -0.913   0.135  1.00  0.00     0.004 A 
ATOM     10  C   UNL     1       5.330   1.383   0.820  1.00  0.00     0.000 A 
ATOM     11  C   UNL     1       6.113  -0.783   1.419  1.00  0.00     0.000 A 
ATOM     12  C   UNL     1       5.469   0.388   1.754  1.00  0.00     0.000 A 
ENDBRANCH   6   7
ENDBRANCH   1   6
TORSDOF 4
ENDMDL
MODEL 2
REMARK VINA RESULT:      -7.3      0.123      1.732
REMARK SMILES O=C(O)CCc1ccccc1
REMARK SMILES IDX 4 1 2 2 1 3 3 4 5 6 6 7 7 8 11 9 8 10 10 11 9 12
REMARK H PARENT 3 5
REMARK Flexibility Score: inf
ROOT
ATOM      1  C   UNL     1       8.412  -0.646  -2.089  1.00  0.00     0.127 C 
ENDROOT
BRANCH   1   2
ATOM      2  C   UNL     1       8.373  -1.899  -2.879  1.00  0.00     0.303 C 
ATOM      3  O   UNL     1       7.283  -2.406  -3.243  1.00  0.00    -0.252 OA
BRANCH   2   4
ATOM      4  O   UNL     1       9.543  -2.549  -3.239  1.00  0.00    -0.481 OA
ATOM      5  H   UNL     1      10.435  -2.221  -2.857  1.00  0.00     0.296 HD
ENDBRANCH   2   4
ENDBRANCH   1   2
BRANCH   1   6
ATOM      6  C   UNL     1       7.035  -0.056  -2.076  1.00  0.00     0.047 C 
BRANCH   6   7
ATOM      7  C   UNL     1       6.467   0.097  -0.737  1.00  0.00    -0.047 A 
ATOM      8  C   UNL     1       6.598  -0.900   0.201  1.00  0.00     0.004 A 
ATOM      9  C   UNL     1       5.798   1.257  -0.421  1.00  0.00     0.004 A 
ATOM     10  C   UNL     1       6.032  -0.685   1.459  1.00  0.00     0.000 A 
ATOM     11  C   UNL     1       5.238   1.468   0.824  1.00  0.00     0.000 A 
ATOM     12  C   UNL     1       5.364   0.473   1.769  1.00  0.00     0.000 A 
ENDBRANCH   6   7
ENDBRANCH   1   6
TORSDOF 4
ENDMDL
MODEL 3
REMARK VINA RESULT:      -6.8      3.368      5.041
REMARK SMILES O=C(O)CCc1ccccc1
REMARK SMILES IDX 4 1 2 2 1 3 3 4 5 6 6 7 7 8 11 9 8 10 10 11 9 12
REMARK H PARENT 3 5
REMARK Flexibility Score: inf
ROOT
ATOM      1  C   UNL     1       5.023   1.725   0.638  1.00  0.00     0.127 C 
ENDROOT
BRANCH   1   2
ATOM      2  C   UNL     1       4.525   1.095   1.883  1.00  0.00     0.303 C 
ATOM      3  O   UNL     1       5.195   0.218   2.482  1.00  0.00    -0.252 OA
BRANCH   2   4
ATOM      4  O   UNL     1       3.301   1.458   2.422  1.00  0.00    -0.481 OA
ATOM      5  H   UNL     1       2.567   0.751   2.518  1.00  0.00     0.296 HD
ENDBRANCH   2   4
ENDBRANCH   1   2
BRANCH   1   6
ATOM      6  C   UNL     1       6.520   1.756   0.692  1.00  0.00     0.047 C 
BRANCH   6   7
ATOM      7  C   UNL     1       7.169   1.002  -0.380  1.00  0.00    -0.047 A 
ATOM      8  C   UNL     1       8.504   1.183  -0.658  1.00  0.00     0.004 A 
ATOM      9  C   UNL     1       6.429   0.102  -1.111  1.00  0.00     0.004 A 
ATOM     10  C   UNL     1       9.058   0.428  -1.694  1.00  0.00     0.000 A 
ATOM     11  C   UNL     1       6.978  -0.643  -2.135  1.00  0.00     0.000 A 
ATOM     12  C   UNL     1       8.314  -0.467  -2.421  1.00  0.00     0.000 A 
ENDBRANCH   6   7
ENDBRANCH   1   6
TORSDOF 4
ENDMDL
MODEL 4
REMARK VINA RESULT:      -6.8      3.825      4.916
REMARK SMILES O=C(O)CCc1ccccc1
REMARK SMILES IDX 4 1 2 2 1 3 3 4 5 6 6 7 7 8 11 9 8 10 10 11 9 12
REMARK H PARENT 3 5
REMARK Flexibility Score: inf
ROOT
ATOM      1  C   UNL     1       5.461   2.880  -0.032  1.00  0.00     0.127 C 
ENDROOT
BRANCH   1   2
ATOM      2  C   UNL     1       6.226   3.861   0.774  1.00  0.00     0.303 C 
ATOM      3  O   UNL     1       6.893   4.774   0.226  1.00  0.00    -0.252 OA
BRANCH   2   4
ATOM      4  O   UNL     1       6.228   3.797   2.158  1.00  0.00    -0.481 OA
ATOM      5  H   UNL     1       5.367   4.009   2.670  1.00  0.00     0.296 HD
ENDBRANCH   2   4
ENDBRANCH   1   2
BRANCH   1   6
ATOM      6  C   UNL     1       4.931   1.825   0.891  1.00  0.00     0.047 C 
BRANCH   6   7
ATOM      7  C   UNL     1       5.720   0.594   0.901  1.00  0.00    -0.047 A 
ATOM      8  C   UNL     1       6.397   0.183  -0.223  1.00  0.00     0.004 A 
ATOM      9  C   UNL     1       5.782  -0.153   2.055  1.00  0.00     0.004 A 
ATOM     10  C   UNL     1       7.131  -1.002  -0.141  1.00  0.00     0.000 A 
ATOM     11  C   UNL     1       6.509  -1.325   2.135  1.00  0.00     0.000 A 
ATOM     12  C   UNL     1       7.189  -1.744   1.012  1.00  0.00     0.000 A 
ENDBRANCH   6   7
ENDBRANCH   1   6
TORSDOF 4
ENDMDL
MODEL 5
REMARK VINA RESULT:      -6.7      1.933      2.662
REMARK SMILES O=C(O)CCc1ccccc1
REMARK SMILES IDX 4 1 2 2 1 3 3 4 5 6 6 7 7 8 11 9 8 10 10 11 9 12
REMARK H PARENT 3 5
REMARK Flexibility Score: inf
ROOT
ATOM      1  C   UNL     1       8.252   0.273  -2.171  1.00  0.00     0.127 C 
ENDROOT
BRANCH   1   2
ATOM      2  C   UNL     1       9.383   0.364  -1.217  1.00  0.00     0.303 C 
ATOM      3  O   UNL     1       9.457  -0.397  -0.221  1.00  0.00    -0.252 OA
BRANCH   2   4
ATOM      4  O   UNL     1      10.393   1.295  -1.400  1.00  0.00    -0.481 OA
ATOM      5  H   UNL     1      11.171   1.327  -0.736  1.00  0.00     0.296 HD
ENDBRANCH   2   4
ENDBRANCH   1   2
BRANCH   1   6
ATOM      6  C   UNL     1       7.149  -0.504  -1.520  1.00  0.00     0.047 C 
BRANCH   6   7
ATOM      7  C   UNL     1       6.359   0.272  -0.565  1.00  0.00    -0.047 A 
ATOM      8  C   UNL     1       6.139  -0.196   0.710  1.00  0.00     0.004 A 
ATOM      9  C   UNL     1       5.837   1.484  -0.953  1.00  0.00     0.004 A 
ATOM     10  C   UNL     1       5.376   0.598   1.570  1.00  0.00     0.000 A 
ATOM     11  C   UNL     1       5.083   2.267  -0.102  1.00  0.00     0.000 A 
ATOM     12  C   UNL     1       4.857   1.805   1.176  1.00  0.00     0.000 A 
ENDBRANCH   6   7
ENDBRANCH   1   6
TORSDOF 4
ENDMDL
