@<TRIPOS>MOLECULE
/home/cewinharhar/GITHUB/reincatalyze/data/processed/docking_pred/2023-Apr-26-1657_maxeplen10_maxtrainstep1000_exh32_gamma099_lrac9e-4_lrcr1e-3/2368d29bb7bbfa5e31d33bb3936e2ea89938fe66_ligand_2.pdbqt
 12 12 0 0 0
SMALL
GASTEIGER

@<TRIPOS>ATOM
      1  C          5.4610    2.8800   -0.0320 C.3     1  UNL1        0.1270
      2  C          6.2260    3.8610    0.7740 C.2     1  UNL1        0.3030
      3  O          6.8930    4.7740    0.2260 O.2     1  UNL1       -0.2520
      4  O          6.2280    3.7970    2.1580 O.3     1  UNL1       -0.4810
      5  H          5.3670    4.0090    2.6700 H       1  UNL1        0.2960
      6  C          4.9310    1.8250    0.8910 C.3     1  UNL1        0.0470
      7  C          5.7200    0.5940    0.9010 C.2     1  UNL1       -0.0470
      8  C          6.3970    0.1830   -0.2230 C.2     1  UNL1        0.0040
      9  C          5.7820   -0.1530    2.0550 C.2     1  UNL1        0.0040
     10  C          7.1310   -1.0020   -0.1410 C.2     1  UNL1        0.0000
     11  C          6.5090   -1.3250    2.1350 C.2     1  UNL1        0.0000
     12  C          7.1890   -1.7440    1.0120 C.2     1  UNL1        0.0000
@<TRIPOS>BOND
     1     8    10    1
     2     8     7    2
     3    10    12    2
     4     1     2    1
     5     1     6    1
     6     3     2    2
     7     2     4    1
     8     6     7    1
     9     7     9    1
    10    12    11    1
    11     9    11    2
    12     4     5    1
