@<TRIPOS>MOLECULE
/home/cewinharhar/GITHUB/reincatalyze/data/processed/docking_pred/2023-Apr-26-1657_maxeplen10_maxtrainstep1000_exh32_gamma099_lrac9e-4_lrcr1e-3/2368d29bb7bbfa5e31d33bb3936e2ea89938fe66_ligand_2.pdbqt
 12 12 0 0 0
SMALL
GASTEIGER

@<TRIPOS>ATOM
      1  C          8.4300   -0.6000   -2.1630 C.3     1  UNL1        0.1270
      2  C          8.4850   -1.8800   -2.9080 C.2     1  UNL1        0.3030
      3  O          9.5710   -2.4850   -3.0830 O.2     1  UNL1       -0.2520
      4  O          7.3340   -2.4440   -3.4350 O.3     1  UNL1       -0.4810
      5  H          6.4710   -1.8940   -3.4580 H       1  UNL1        0.2960
      6  C          7.0090   -0.1250   -2.1470 C.3     1  UNL1        0.0470
      7  C          6.4660    0.0820   -0.8060 C.2     1  UNL1       -0.0470
      8  C          5.8240    1.2540   -0.4800 C.2     1  UNL1        0.0040
      9  C          6.6020   -0.9130    0.1350 C.2     1  UNL1        0.0040
     10  C          5.3300    1.3830    0.8200 C.2     1  UNL1        0.0000
     11  C          6.1130   -0.7830    1.4190 C.2     1  UNL1        0.0000
     12  C          5.4690    0.3880    1.7540 C.2     1  UNL1        0.0000
@<TRIPOS>BOND
     1     5     4    1
     2     4     2    1
     3     3     2    2
     4     2     1    1
     5     1     6    1
     6     6     7    1
     7     7     8    2
     8     7     9    1
     9     8    10    1
    10     9    11    2
    11    10    12    2
    12    11    12    1
