@<TRIPOS>MOLECULE
/home/cewinharhar/GITHUB/reincatalyze/data/processed/docking_pred/2023-Apr-26-1657_maxeplen10_maxtrainstep1000_exh32_gamma099_lrac9e-4_lrcr1e-3/24731d809f1a519c36ca3c9a2574e1987901b3bd_ligand_2.pdbqt
 12 12 0 0 0
SMALL
GASTEIGER

@<TRIPOS>ATOM
      1  C          8.1460    0.3400   -2.1450 C.3     1  UNL1        0.1270
      2  C          9.3220    0.3880   -1.2450 C.2     1  UNL1        0.3030
      3  O          9.4400   -0.4120   -0.2840 O.2     1  UNL1       -0.2520
      4  O         10.3270    1.3220   -1.4400 O.3     1  UNL1       -0.4810
      5  H         11.1730    1.0490   -1.9480 H       1  UNL1        0.2960
      6  C          7.0940   -0.5100   -1.5000 C.3     1  UNL1        0.0470
      7  C          6.3320    0.1750   -0.4570 C.2     1  UNL1       -0.0470
      8  C          5.7770    1.4120   -0.6900 C.2     1  UNL1        0.0040
      9  C          6.1720   -0.4320    0.7670 C.2     1  UNL1        0.0040
     10  C          5.0620    2.0080    0.3500 C.2     1  UNL1        0.0000
     11  C          5.4650    0.1590    1.7950 C.2     1  UNL1        0.0000
     12  C          4.9060    1.3980    1.5700 C.2     1  UNL1        0.0000
@<TRIPOS>BOND
     1     1     6    1
     2     1     2    1
     3     5     4    1
     4     6     7    1
     5     4     2    1
     6     2     3    2
     7     8     7    2
     8     8    10    1
     9     7     9    1
    10    10    12    2
    11     9    11    2
    12    12    11    1
