@<TRIPOS>MOLECULE
/home/cewinharhar/GITHUB/reincatalyze/data/processed/docking_pred/2023-Apr-26-1657_maxeplen10_maxtrainstep1000_exh32_gamma099_lrac9e-4_lrcr1e-3/24731d809f1a519c36ca3c9a2574e1987901b3bd_ligand_2.pdbqt
 12 12 0 0 0
SMALL
GASTEIGER

@<TRIPOS>ATOM
      1  C          8.4440   -0.6130   -2.1510 C.3     1  UNL1        0.1270
      2  C          8.4820   -1.8860   -2.9090 C.2     1  UNL1        0.3030
      3  O          9.5630   -2.4950   -3.1050 O.2     1  UNL1       -0.2520
      4  O          7.3220   -2.4390   -3.4260 O.3     1  UNL1       -0.4810
      5  H          6.8830   -3.2260   -2.9390 H       1  UNL1        0.2960
      6  C          7.0300   -0.1170   -2.1340 C.3     1  UNL1        0.0470
      7  C          6.4810    0.0670   -0.7910 C.2     1  UNL1       -0.0470
      8  C          5.8410    1.2350   -0.4470 C.2     1  UNL1        0.0040
      9  C          6.6080   -0.9470    0.1310 C.2     1  UNL1        0.0040
     10  C          5.3400    1.3410    0.8520 C.2     1  UNL1        0.0000
     11  C          6.1120   -0.8400    1.4150 C.2     1  UNL1        0.0000
     12  C          5.4710    0.3270    1.7680 C.2     1  UNL1        0.0000
@<TRIPOS>BOND
     1     4     5    1
     2     4     2    1
     3     3     2    2
     4     2     1    1
     5     1     6    1
     6     6     7    1
     7     7     8    2
     8     7     9    1
     9     8    10    1
    10     9    11    2
    11    10    12    2
    12    11    12    1
