@<TRIPOS>MOLECULE
/home/cewinharhar/GITHUB/reincatalyze/data/processed/docking_pred/2023-Apr-26-1657_maxeplen10_maxtrainstep1000_exh32_gamma099_lrac9e-4_lrcr1e-3/24731d809f1a519c36ca3c9a2574e1987901b3bd_ligand_2.pdbqt
 12 12 0 0 0
SMALL
GASTEIGER

@<TRIPOS>ATOM
      1  C          8.4300   -0.5480   -2.2300 C.3     1  UNL1        0.1270
      2  C          8.4730   -1.8540   -2.9300 C.2     1  UNL1        0.3030
      3  O          9.5540   -2.4740   -3.0830 O.2     1  UNL1       -0.2520
      4  O          7.3180   -2.4270   -3.4360 O.3     1  UNL1       -0.4810
      5  H          6.4320   -1.9200   -3.3590 H       1  UNL1        0.2960
      6  C          7.0050   -0.0860   -2.1850 C.3     1  UNL1        0.0470
      7  C          6.4760    0.0780   -0.8320 C.2     1  UNL1       -0.0470
      8  C          6.6240   -0.9180    0.1060 C.2     1  UNL1        0.0040
      9  C          5.8260    1.2440   -0.5010 C.2     1  UNL1        0.0040
     10  C          6.0940   -0.6930    1.3790 C.2     1  UNL1        0.0000
     11  C          5.3030    1.4640    0.7570 C.2     1  UNL1        0.0000
     12  C          5.4460    0.4720    1.7020 C.2     1  UNL1        0.0000
@<TRIPOS>BOND
     1     4     5    1
     2     4     2    1
     3     3     2    2
     4     2     1    1
     5     1     6    1
     6     6     7    1
     7     7     9    2
     8     7     8    1
     9     9    11    1
    10     8    10    2
    11    11    12    2
    12    10    12    1
