@<TRIPOS>MOLECULE
/home/cewinharhar/GITHUB/reincatalyze/data/processed/docking_pred/2023-Apr-26-1657_maxeplen10_maxtrainstep1000_exh32_gamma099_lrac9e-4_lrcr1e-3/24731d809f1a519c36ca3c9a2574e1987901b3bd_ligand_2.pdbqt
 12 12 0 0 0
SMALL
GASTEIGER

@<TRIPOS>ATOM
      1  C          5.0420    1.7480    0.6630 C.3     1  UNL1        0.1270
      2  C          4.6040    1.0690    1.9050 C.2     1  UNL1        0.3030
      3  O          5.3410    0.2340    2.4860 O.2     1  UNL1       -0.2520
      4  O          3.3640    1.3380    2.4620 O.3     1  UNL1       -0.4810
      5  H          2.5270    0.9200    2.0460 H       1  UNL1        0.2960
      6  C          6.5390    1.8200    0.6700 C.3     1  UNL1        0.0470
      7  C          7.1760    1.0390   -0.3890 C.2     1  UNL1       -0.0470
      8  C          8.5110    1.2040   -0.6770 C.2     1  UNL1        0.0040
      9  C          6.4260    0.1300   -1.0970 C.2     1  UNL1        0.0040
     10  C          9.0540    0.4230   -1.7000 C.2     1  UNL1        0.0000
     11  C          6.9640   -0.6410   -2.1090 C.2     1  UNL1        0.0000
     12  C          8.3000   -0.4810   -2.4040 C.2     1  UNL1        0.0000
@<TRIPOS>BOND
     1    12    11    2
     2    12    10    1
     3    11     9    1
     4    10     8    2
     5     9     7    2
     6     8     7    1
     7     7     6    1
     8     1     6    1
     9     1     2    1
    10     2     4    1
    11     2     3    2
    12     5     4    1
