MODEL 1
REMARK VINA RESULT:      -7.3      0.000      0.000
REMARK SMILES O=C(O)CCc1ccccc1
REMARK SMILES IDX 4 1 2 2 1 3 3 4 5 6 6 7 7 8 11 9 8 10 10 11 9 12
REMARK H PARENT 3 5
REMARK Flexibility Score: inf
ROOT
ATOM      1  C   UNL     1       8.444  -0.613  -2.151  1.00  0.00     0.127 C 
ENDROOT
BRANCH   1   2
ATOM      2  C   UNL     1       8.482  -1.886  -2.909  1.00  0.00     0.303 C 
ATOM      3  O   UNL     1       9.563  -2.495  -3.105  1.00  0.00    -0.252 OA
BRANCH   2   4
ATOM      4  O   UNL     1       7.322  -2.439  -3.426  1.00  0.00    -0.481 OA
ATOM      5  H   UNL     1       6.883  -3.226  -2.939  1.00  0.00     0.296 HD
ENDBRANCH   2   4
ENDBRANCH   1   2
BRANCH   1   6
ATOM      6  C   UNL     1       7.030  -0.117  -2.134  1.00  0.00     0.047 C 
BRANCH   6   7
ATOM      7  C   UNL     1       6.481   0.067  -0.791  1.00  0.00    -0.047 A 
ATOM      8  C   UNL     1       5.841   1.235  -0.447  1.00  0.00     0.004 A 
ATOM      9  C   UNL     1       6.608  -0.947   0.131  1.00  0.00     0.004 A 
ATOM     10  C   UNL     1       5.340   1.341   0.852  1.00  0.00     0.000 A 
ATOM     11  C   UNL     1       6.112  -0.840   1.415  1.00  0.00     0.000 A 
ATOM     12  C   UNL     1       5.471   0.327   1.768  1.00  0.00     0.000 A 
ENDBRANCH   6   7
ENDBRANCH   1   6
TORSDOF 4
ENDMDL
MODEL 2
REMARK VINA RESULT:      -7.3      0.095      1.439
REMARK SMILES O=C(O)CCc1ccccc1
REMARK SMILES IDX 4 1 2 2 1 3 3 4 5 6 6 7 7 8 11 9 8 10 10 11 9 12
REMARK H PARENT 3 5
REMARK Flexibility Score: inf
ROOT
ATOM      1  C   UNL     1       8.430  -0.548  -2.230  1.00  0.00     0.127 C 
ENDROOT
BRANCH   1   2
ATOM      2  C   UNL     1       8.473  -1.854  -2.930  1.00  0.00     0.303 C 
ATOM      3  O   UNL     1       9.554  -2.474  -3.083  1.00  0.00    -0.252 OA
BRANCH   2   4
ATOM      4  O   UNL     1       7.318  -2.427  -3.436  1.00  0.00    -0.481 OA
ATOM      5  H   UNL     1       6.432  -1.920  -3.359  1.00  0.00     0.296 HD
ENDBRANCH   2   4
ENDBRANCH   1   2
BRANCH   1   6
ATOM      6  C   UNL     1       7.005  -0.086  -2.185  1.00  0.00     0.047 C 
BRANCH   6   7
ATOM      7  C   UNL     1       6.476   0.078  -0.832  1.00  0.00    -0.047 A 
ATOM      8  C   UNL     1       6.624  -0.918   0.106  1.00  0.00     0.004 A 
ATOM      9  C   UNL     1       5.826   1.244  -0.501  1.00  0.00     0.004 A 
ATOM     10  C   UNL     1       6.094  -0.693   1.379  1.00  0.00     0.000 A 
ATOM     11  C   UNL     1       5.303   1.464   0.757  1.00  0.00     0.000 A 
ATOM     12  C   UNL     1       5.446   0.472   1.702  1.00  0.00     0.000 A 
ENDBRANCH   6   7
ENDBRANCH   1   6
TORSDOF 4
ENDMDL
MODEL 3
REMARK VINA RESULT:      -6.7      3.345      5.017
REMARK SMILES O=C(O)CCc1ccccc1
REMARK SMILES IDX 4 1 2 2 1 3 3 4 5 6 6 7 7 8 11 9 8 10 10 11 9 12
REMARK H PARENT 3 5
REMARK Flexibility Score: inf
ROOT
ATOM      1  C   UNL     1       5.042   1.748   0.663  1.00  0.00     0.127 C 
ENDROOT
BRANCH   1   2
ATOM      2  C   UNL     1       4.604   1.069   1.905  1.00  0.00     0.303 C 
ATOM      3  O   UNL     1       5.341   0.234   2.486  1.00  0.00    -0.252 OA
BRANCH   2   4
ATOM      4  O   UNL     1       3.364   1.338   2.462  1.00  0.00    -0.481 OA
ATOM      5  H   UNL     1       2.527   0.920   2.046  1.00  0.00     0.296 HD
ENDBRANCH   2   4
ENDBRANCH   1   2
BRANCH   1   6
ATOM      6  C   UNL     1       6.539   1.820   0.670  1.00  0.00     0.047 C 
BRANCH   6   7
ATOM      7  C   UNL     1       7.176   1.039  -0.389  1.00  0.00    -0.047 A 
ATOM      8  C   UNL     1       8.511   1.204  -0.677  1.00  0.00     0.004 A 
ATOM      9  C   UNL     1       6.426   0.130  -1.097  1.00  0.00     0.004 A 
ATOM     10  C   UNL     1       9.054   0.423  -1.700  1.00  0.00     0.000 A 
ATOM     11  C   UNL     1       6.964  -0.641  -2.109  1.00  0.00     0.000 A 
ATOM     12  C   UNL     1       8.300  -0.481  -2.404  1.00  0.00     0.000 A 
ENDBRANCH   6   7
ENDBRANCH   1   6
TORSDOF 4
ENDMDL
MODEL 4
REMARK VINA RESULT:      -6.6      1.916      2.227
REMARK SMILES O=C(O)CCc1ccccc1
REMARK SMILES IDX 4 1 2 2 1 3 3 4 5 6 6 7 7 8 11 9 8 10 10 11 9 12
REMARK H PARENT 3 5
REMARK Flexibility Score: inf
ROOT
ATOM      1  C   UNL     1       8.146   0.340  -2.145  1.00  0.00     0.127 C 
ENDROOT
BRANCH   1   2
ATOM      2  C   UNL     1       9.322   0.388  -1.245  1.00  0.00     0.303 C 
ATOM      3  O   UNL     1       9.440  -0.412  -0.284  1.00  0.00    -0.252 OA
BRANCH   2   4
ATOM      4  O   UNL     1      10.327   1.322  -1.440  1.00  0.00    -0.481 OA
ATOM      5  H   UNL     1      11.173   1.049  -1.948  1.00  0.00     0.296 HD
ENDBRANCH   2   4
ENDBRANCH   1   2
BRANCH   1   6
ATOM      6  C   UNL     1       7.094  -0.510  -1.500  1.00  0.00     0.047 C 
BRANCH   6   7
ATOM      7  C   UNL     1       6.332   0.175  -0.457  1.00  0.00    -0.047 A 
ATOM      8  C   UNL     1       5.777   1.412  -0.690  1.00  0.00     0.004 A 
ATOM      9  C   UNL     1       6.172  -0.432   0.767  1.00  0.00     0.004 A 
ATOM     10  C   UNL     1       5.062   2.008   0.350  1.00  0.00     0.000 A 
ATOM     11  C   UNL     1       5.465   0.159   1.795  1.00  0.00     0.000 A 
ATOM     12  C   UNL     1       4.906   1.398   1.570  1.00  0.00     0.000 A 
ENDBRANCH   6   7
ENDBRANCH   1   6
TORSDOF 4
ENDMDL
MODEL 5
REMARK VINA RESULT:      -6.5      3.697      4.883
REMARK SMILES O=C(O)CCc1ccccc1
REMARK SMILES IDX 4 1 2 2 1 3 3 4 5 6 6 7 7 8 11 9 8 10 10 11 9 12
REMARK H PARENT 3 5
REMARK Flexibility Score: inf
ROOT
ATOM      1  C   UNL     1       5.418   2.928  -0.010  1.00  0.00     0.127 C 
ENDROOT
BRANCH   1   2
ATOM      2  C   UNL     1       6.277   3.819   0.805  1.00  0.00     0.303 C 
ATOM      3  O   UNL     1       7.274   4.397   0.306  1.00  0.00    -0.252 OA
BRANCH   2   4
ATOM      4  O   UNL     1       6.002   4.038   2.145  1.00  0.00    -0.481 OA
ATOM      5  H   UNL     1       6.567   4.713   2.668  1.00  0.00     0.296 HD
ENDBRANCH   2   4
ENDBRANCH   1   2
BRANCH   1   6
ATOM      6  C   UNL     1       4.875   1.853   0.881  1.00  0.00     0.047 C 
BRANCH   6   7
ATOM      7  C   UNL     1       5.683   0.634   0.901  1.00  0.00    -0.047 A 
ATOM      8  C   UNL     1       6.351   0.214  -0.225  1.00  0.00     0.004 A 
ATOM      9  C   UNL     1       5.771  -0.093   2.066  1.00  0.00     0.004 A 
ATOM     10  C   UNL     1       7.104  -0.959  -0.133  1.00  0.00     0.000 A 
ATOM     11  C   UNL     1       6.515  -1.253   2.155  1.00  0.00     0.000 A 
ATOM     12  C   UNL     1       7.187  -1.681   1.031  1.00  0.00     0.000 A 
ENDBRANCH   6   7
ENDBRANCH   1   6
TORSDOF 4
ENDMDL
