@<TRIPOS>MOLECULE
/home/cewinharhar/GITHUB/reincatalyze/data/processed/docking_pred/2023-Apr-26-1657_maxeplen10_maxtrainstep1000_exh32_gamma099_lrac9e-4_lrcr1e-3/24731d809f1a519c36ca3c9a2574e1987901b3bd_ligand_2.pdbqt
 12 12 0 0 0
SMALL
GASTEIGER

@<TRIPOS>ATOM
      1  C          5.4180    2.9280   -0.0100 C.3     1  UNL1        0.1270
      2  C          6.2770    3.8190    0.8050 C.2     1  UNL1        0.3030
      3  O          7.2740    4.3970    0.3060 O.2     1  UNL1       -0.2520
      4  O          6.0020    4.0380    2.1450 O.3     1  UNL1       -0.4810
      5  H          6.5670    4.7130    2.6680 H       1  UNL1        0.2960
      6  C          4.8750    1.8530    0.8810 C.3     1  UNL1        0.0470
      7  C          5.6830    0.6340    0.9010 C.2     1  UNL1       -0.0470
      8  C          6.3510    0.2140   -0.2250 C.2     1  UNL1        0.0040
      9  C          5.7710   -0.0930    2.0660 C.2     1  UNL1        0.0040
     10  C          7.1040   -0.9590   -0.1330 C.2     1  UNL1        0.0000
     11  C          6.5150   -1.2530    2.1550 C.2     1  UNL1        0.0000
     12  C          7.1870   -1.6810    1.0310 C.2     1  UNL1        0.0000
@<TRIPOS>BOND
     1     8    10    1
     2     8     7    2
     3    10    12    2
     4     1     2    1
     5     1     6    1
     6     3     2    2
     7     2     4    1
     8     6     7    1
     9     7     9    1
    10    12    11    1
    11     9    11    2
    12     4     5    1
