@<TRIPOS>MOLECULE
/home/cewinharhar/GITHUB/reincatalyze/data/processed/docking_pred/2023-Apr-26-1657_maxeplen10_maxtrainstep1000_exh32_gamma099_lrac9e-4_lrcr1e-3/2481e5cfc04dcfc4c7035fb6b8b96c3a7d203934_ligand_2.pdbqt
 12 12 0 0 0
SMALL
GASTEIGER

@<TRIPOS>ATOM
      1  C          8.3090   -0.9090   -1.8950 C.3     1  UNL1        0.1270
      2  C          8.4170   -2.0430   -2.8430 C.2     1  UNL1        0.3030
      3  O          9.5230   -2.5860   -3.0860 O.2     1  UNL1       -0.2520
      4  O          7.2950   -2.5360   -3.4910 O.3     1  UNL1       -0.4810
      5  H          7.3950   -2.9470   -4.4230 H       1  UNL1        0.2960
      6  C          7.5110   -1.3610   -0.7100 C.3     1  UNL1        0.0470
      7  C          6.6450   -0.3260   -0.1470 C.2     1  UNL1       -0.0470
      8  C          6.2900    0.7750   -0.8910 C.2     1  UNL1        0.0040
      9  C          6.1840   -0.4650    1.1410 C.2     1  UNL1        0.0040
     10  C          5.4600    1.7240   -0.2900 C.2     1  UNL1        0.0000
     11  C          5.3630    0.4740    1.7350 C.2     1  UNL1        0.0000
     12  C          5.0040    1.5810    0.9960 C.2     1  UNL1        0.0000
@<TRIPOS>BOND
     1     5     4    1
     2     4     2    1
     3     3     2    2
     4     2     1    1
     5     1     6    1
     6     8    10    1
     7     8     7    2
     8     6     7    1
     9    10    12    2
    10     7     9    1
    11    12    11    1
    12     9    11    2
