@<TRIPOS>MOLECULE
/home/cewinharhar/GITHUB/reincatalyze/data/processed/docking_pred/2023-Apr-26-1657_maxeplen10_maxtrainstep1000_exh32_gamma099_lrac9e-4_lrcr1e-3/2481e5cfc04dcfc4c7035fb6b8b96c3a7d203934_ligand_2.pdbqt
 12 12 0 0 0
SMALL
GASTEIGER

@<TRIPOS>ATOM
      1  C          8.1600   -0.8530   -1.9540 C.3     1  UNL1        0.1270
      2  C          8.3630   -1.9930   -2.8780 C.2     1  UNL1        0.3030
      3  O          9.5080   -2.4670   -3.0850 O.2     1  UNL1       -0.2520
      4  O          7.2920   -2.5690   -3.5430 O.3     1  UNL1       -0.4810
      5  H          6.5410   -1.9690   -3.8960 H       1  UNL1        0.2960
      6  C          7.3740   -1.3390   -0.7740 C.3     1  UNL1        0.0470
      7  C          6.5490   -0.3100   -0.1450 C.2     1  UNL1       -0.0470
      8  C          6.1170   -0.4500    1.1540 C.2     1  UNL1        0.0040
      9  C          6.2060    0.8100   -0.8670 C.2     1  UNL1        0.0040
     10  C          5.3320    0.5730    1.6910 C.2     1  UNL1        0.0000
     11  C          5.4300    1.8210   -0.3350 C.2     1  UNL1        0.0000
     12  C          4.9930    1.6870    0.9650 C.2     1  UNL1        0.0000
@<TRIPOS>BOND
     1     5     4    1
     2     4     2    1
     3     3     2    2
     4     2     1    1
     5     1     6    1
     6     9    11    1
     7     9     7    2
     8     6     7    1
     9    11    12    2
    10     7     8    1
    11    12    10    1
    12     8    10    2
