@<TRIPOS>MOLECULE
/home/cewinharhar/GITHUB/reincatalyze/data/processed/docking_pred/2023-Apr-26-1657_maxeplen10_maxtrainstep1000_exh32_gamma099_lrac9e-4_lrcr1e-3/2481e5cfc04dcfc4c7035fb6b8b96c3a7d203934_ligand_2.pdbqt
 12 12 0 0 0
SMALL
GASTEIGER

@<TRIPOS>ATOM
      1  C          5.0300    1.7310    0.6540 C.3     1  UNL1        0.1270
      2  C          4.6060    1.0600    1.9050 C.2     1  UNL1        0.3030
      3  O          5.3510    0.2320    2.4850 O.2     1  UNL1       -0.2520
      4  O          3.3700    1.3280    2.4710 O.3     1  UNL1       -0.4810
      5  H          3.2330    2.2030    2.9840 H       1  UNL1        0.2960
      6  C          6.5250    1.8290    0.6560 C.3     1  UNL1        0.0470
      7  C          7.1740    1.0470   -0.3950 C.2     1  UNL1       -0.0470
      8  C          8.5150    1.2030   -0.6610 C.2     1  UNL1        0.0040
      9  C          6.4280    0.1460   -1.1190 C.2     1  UNL1        0.0040
     10  C          9.0690    0.4220   -1.6780 C.2     1  UNL1        0.0000
     11  C          6.9770   -0.6240   -2.1240 C.2     1  UNL1        0.0000
     12  C          8.3190   -0.4740   -2.3980 C.2     1  UNL1        0.0000
@<TRIPOS>BOND
     1    12    11    2
     2    12    10    1
     3    11     9    1
     4    10     8    2
     5     9     7    2
     6     8     7    1
     7     7     6    1
     8     1     6    1
     9     1     2    1
    10     2     4    1
    11     2     3    2
    12     4     5    1
