@<TRIPOS>MOLECULE
/home/cewinharhar/GITHUB/reincatalyze/data/processed/docking_pred/2023-Apr-26-1657_maxeplen10_maxtrainstep1000_exh32_gamma099_lrac9e-4_lrcr1e-3/2481e5cfc04dcfc4c7035fb6b8b96c3a7d203934_ligand_2.pdbqt
 12 12 0 0 0
SMALL
GASTEIGER

@<TRIPOS>ATOM
      1  C          8.4220   -0.5820   -2.1720 C.3     1  UNL1        0.1270
      2  C          8.4720   -1.8670   -2.9090 C.2     1  UNL1        0.3030
      3  O          9.5580   -2.4690   -3.0930 O.2     1  UNL1       -0.2520
      4  O          7.3170   -2.4390   -3.4160 O.3     1  UNL1       -0.4810
      5  H          7.3930   -3.2000   -4.0970 H       1  UNL1        0.2960
      6  C          6.9980   -0.1200   -2.1270 C.3     1  UNL1        0.0470
      7  C          6.4710    0.0530   -0.7740 C.2     1  UNL1       -0.0470
      8  C          5.8650    1.2300   -0.4000 C.2     1  UNL1        0.0040
      9  C          6.5860   -0.9790    0.1280 C.2     1  UNL1        0.0040
     10  C          5.3840    1.3250    0.9080 C.2     1  UNL1        0.0000
     11  C          6.1110   -0.8840    1.4210 C.2     1  UNL1        0.0000
     12  C          5.5030    0.2920    1.8040 C.2     1  UNL1        0.0000
@<TRIPOS>BOND
     1     5     4    1
     2     4     2    1
     3     3     2    2
     4     2     1    1
     5     1     6    1
     6     6     7    1
     7     7     8    2
     8     7     9    1
     9     8    10    1
    10     9    11    2
    11    10    12    2
    12    11    12    1
