@<TRIPOS>MOLECULE
/home/cewinharhar/GITHUB/reincatalyze/data/processed/docking_pred/2023-Apr-26-1657_maxeplen10_maxtrainstep1000_exh32_gamma099_lrac9e-4_lrcr1e-3/2481e5cfc04dcfc4c7035fb6b8b96c3a7d203934_ligand_2.pdbqt
 12 12 0 0 0
SMALL
GASTEIGER

@<TRIPOS>ATOM
      1  C          8.4730   -0.6290   -2.1410 C.3     1  UNL1        0.1270
      2  C          8.4880   -1.9000   -2.9030 C.2     1  UNL1        0.3030
      3  O          9.5560   -2.5290   -3.0980 O.2     1  UNL1       -0.2520
      4  O          7.3170   -2.4300   -3.4220 O.3     1  UNL1       -0.4810
      5  H          6.6670   -1.8150   -3.9190 H       1  UNL1        0.2960
      6  C          7.0700   -0.1030   -2.1280 C.3     1  UNL1        0.0470
      7  C          6.5050    0.0480   -0.7880 C.2     1  UNL1       -0.0470
      8  C          6.6240   -0.9570    0.1440 C.2     1  UNL1        0.0040
      9  C          5.8490    1.2130   -0.4640 C.2     1  UNL1        0.0040
     10  C          6.0610   -0.7430    1.4030 C.2     1  UNL1        0.0000
     11  C          5.2920    1.4230    0.7810 C.2     1  UNL1        0.0000
     12  C          5.4070    0.4210    1.7210 C.2     1  UNL1        0.0000
@<TRIPOS>BOND
     1     5     4    1
     2     4     2    1
     3     3     2    2
     4     2     1    1
     5     1     6    1
     6     6     7    1
     7     7     9    2
     8     7     8    1
     9     9    11    1
    10     8    10    2
    11    11    12    2
    12    10    12    1
