MODEL 1
REMARK VINA RESULT:      -7.3      0.000      0.000
REMARK SMILES O=C(O)CCc1ccccc1
REMARK SMILES IDX 4 1 2 2 1 3 3 4 5 6 6 7 7 8 11 9 8 10 10 11 9 12
REMARK H PARENT 3 5
REMARK Flexibility Score: inf
ROOT
ATOM      1  C   UNL     1       8.473  -0.629  -2.141  1.00  0.00     0.127 C 
ENDROOT
BRANCH   1   2
ATOM      2  C   UNL     1       8.488  -1.900  -2.903  1.00  0.00     0.303 C 
ATOM      3  O   UNL     1       9.556  -2.529  -3.098  1.00  0.00    -0.252 OA
BRANCH   2   4
ATOM      4  O   UNL     1       7.317  -2.430  -3.422  1.00  0.00    -0.481 OA
ATOM      5  H   UNL     1       6.667  -1.815  -3.919  1.00  0.00     0.296 HD
ENDBRANCH   2   4
ENDBRANCH   1   2
BRANCH   1   6
ATOM      6  C   UNL     1       7.070  -0.103  -2.128  1.00  0.00     0.047 C 
BRANCH   6   7
ATOM      7  C   UNL     1       6.505   0.048  -0.788  1.00  0.00    -0.047 A 
ATOM      8  C   UNL     1       6.624  -0.957   0.144  1.00  0.00     0.004 A 
ATOM      9  C   UNL     1       5.849   1.213  -0.464  1.00  0.00     0.004 A 
ATOM     10  C   UNL     1       6.061  -0.743   1.403  1.00  0.00     0.000 A 
ATOM     11  C   UNL     1       5.292   1.423   0.781  1.00  0.00     0.000 A 
ATOM     12  C   UNL     1       5.407   0.421   1.721  1.00  0.00     0.000 A 
ENDBRANCH   6   7
ENDBRANCH   1   6
TORSDOF 4
ENDMDL
MODEL 2
REMARK VINA RESULT:      -7.3      0.102      1.439
REMARK SMILES O=C(O)CCc1ccccc1
REMARK SMILES IDX 4 1 2 2 1 3 3 4 5 6 6 7 7 8 11 9 8 10 10 11 9 12
REMARK H PARENT 3 5
REMARK Flexibility Score: inf
ROOT
ATOM      1  C   UNL     1       8.422  -0.582  -2.172  1.00  0.00     0.127 C 
ENDROOT
BRANCH   1   2
ATOM      2  C   UNL     1       8.472  -1.867  -2.909  1.00  0.00     0.303 C 
ATOM      3  O   UNL     1       9.558  -2.469  -3.093  1.00  0.00    -0.252 OA
BRANCH   2   4
ATOM      4  O   UNL     1       7.317  -2.439  -3.416  1.00  0.00    -0.481 OA
ATOM      5  H   UNL     1       7.393  -3.200  -4.097  1.00  0.00     0.296 HD
ENDBRANCH   2   4
ENDBRANCH   1   2
BRANCH   1   6
ATOM      6  C   UNL     1       6.998  -0.120  -2.127  1.00  0.00     0.047 C 
BRANCH   6   7
ATOM      7  C   UNL     1       6.471   0.053  -0.774  1.00  0.00    -0.047 A 
ATOM      8  C   UNL     1       5.865   1.230  -0.400  1.00  0.00     0.004 A 
ATOM      9  C   UNL     1       6.586  -0.979   0.128  1.00  0.00     0.004 A 
ATOM     10  C   UNL     1       5.384   1.325   0.908  1.00  0.00     0.000 A 
ATOM     11  C   UNL     1       6.111  -0.884   1.421  1.00  0.00     0.000 A 
ATOM     12  C   UNL     1       5.503   0.292   1.804  1.00  0.00     0.000 A 
ENDBRANCH   6   7
ENDBRANCH   1   6
TORSDOF 4
ENDMDL
MODEL 3
REMARK VINA RESULT:      -7.2      0.596      1.059
REMARK SMILES O=C(O)CCc1ccccc1
REMARK SMILES IDX 4 1 2 2 1 3 3 4 5 6 6 7 7 8 11 9 8 10 10 11 9 12
REMARK H PARENT 3 5
REMARK Flexibility Score: inf
ROOT
ATOM      1  C   UNL     1       8.160  -0.853  -1.954  1.00  0.00     0.127 C 
ENDROOT
BRANCH   1   2
ATOM      2  C   UNL     1       8.363  -1.993  -2.878  1.00  0.00     0.303 C 
ATOM      3  O   UNL     1       9.508  -2.467  -3.085  1.00  0.00    -0.252 OA
BRANCH   2   4
ATOM      4  O   UNL     1       7.292  -2.569  -3.543  1.00  0.00    -0.481 OA
ATOM      5  H   UNL     1       6.541  -1.969  -3.896  1.00  0.00     0.296 HD
ENDBRANCH   2   4
ENDBRANCH   1   2
BRANCH   1   6
ATOM      6  C   UNL     1       7.374  -1.339  -0.774  1.00  0.00     0.047 C 
BRANCH   6   7
ATOM      7  C   UNL     1       6.549  -0.310  -0.145  1.00  0.00    -0.047 A 
ATOM      8  C   UNL     1       6.117  -0.450   1.154  1.00  0.00     0.004 A 
ATOM      9  C   UNL     1       6.206   0.810  -0.867  1.00  0.00     0.004 A 
ATOM     10  C   UNL     1       5.332   0.573   1.691  1.00  0.00     0.000 A 
ATOM     11  C   UNL     1       5.430   1.821  -0.335  1.00  0.00     0.000 A 
ATOM     12  C   UNL     1       4.993   1.687   0.965  1.00  0.00     0.000 A 
ENDBRANCH   6   7
ENDBRANCH   1   6
TORSDOF 4
ENDMDL
MODEL 4
REMARK VINA RESULT:      -7.2      0.623      1.579
REMARK SMILES O=C(O)CCc1ccccc1
REMARK SMILES IDX 4 1 2 2 1 3 3 4 5 6 6 7 7 8 11 9 8 10 10 11 9 12
REMARK H PARENT 3 5
REMARK Flexibility Score: inf
ROOT
ATOM      1  C   UNL     1       8.309  -0.909  -1.895  1.00  0.00     0.127 C 
ENDROOT
BRANCH   1   2
ATOM      2  C   UNL     1       8.417  -2.043  -2.843  1.00  0.00     0.303 C 
ATOM      3  O   UNL     1       9.523  -2.586  -3.086  1.00  0.00    -0.252 OA
BRANCH   2   4
ATOM      4  O   UNL     1       7.295  -2.536  -3.491  1.00  0.00    -0.481 OA
ATOM      5  H   UNL     1       7.395  -2.947  -4.423  1.00  0.00     0.296 HD
ENDBRANCH   2   4
ENDBRANCH   1   2
BRANCH   1   6
ATOM      6  C   UNL     1       7.511  -1.361  -0.710  1.00  0.00     0.047 C 
BRANCH   6   7
ATOM      7  C   UNL     1       6.645  -0.326  -0.147  1.00  0.00    -0.047 A 
ATOM      8  C   UNL     1       6.290   0.775  -0.891  1.00  0.00     0.004 A 
ATOM      9  C   UNL     1       6.184  -0.465   1.141  1.00  0.00     0.004 A 
ATOM     10  C   UNL     1       5.460   1.724  -0.290  1.00  0.00     0.000 A 
ATOM     11  C   UNL     1       5.363   0.474   1.735  1.00  0.00     0.000 A 
ATOM     12  C   UNL     1       5.004   1.581   0.996  1.00  0.00     0.000 A 
ENDBRANCH   6   7
ENDBRANCH   1   6
TORSDOF 4
ENDMDL
MODEL 5
REMARK VINA RESULT:      -6.7      3.336      5.035
REMARK SMILES O=C(O)CCc1ccccc1
REMARK SMILES IDX 4 1 2 2 1 3 3 4 5 6 6 7 7 8 11 9 8 10 10 11 9 12
REMARK H PARENT 3 5
REMARK Flexibility Score: inf
ROOT
ATOM      1  C   UNL     1       5.030   1.731   0.654  1.00  0.00     0.127 C 
ENDROOT
BRANCH   1   2
ATOM      2  C   UNL     1       4.606   1.060   1.905  1.00  0.00     0.303 C 
ATOM      3  O   UNL     1       5.351   0.232   2.485  1.00  0.00    -0.252 OA
BRANCH   2   4
ATOM      4  O   UNL     1       3.370   1.328   2.471  1.00  0.00    -0.481 OA
ATOM      5  H   UNL     1       3.233   2.203   2.984  1.00  0.00     0.296 HD
ENDBRANCH   2   4
ENDBRANCH   1   2
BRANCH   1   6
ATOM      6  C   UNL     1       6.525   1.829   0.656  1.00  0.00     0.047 C 
BRANCH   6   7
ATOM      7  C   UNL     1       7.174   1.047  -0.395  1.00  0.00    -0.047 A 
ATOM      8  C   UNL     1       8.515   1.203  -0.661  1.00  0.00     0.004 A 
ATOM      9  C   UNL     1       6.428   0.146  -1.119  1.00  0.00     0.004 A 
ATOM     10  C   UNL     1       9.069   0.422  -1.678  1.00  0.00     0.000 A 
ATOM     11  C   UNL     1       6.977  -0.624  -2.124  1.00  0.00     0.000 A 
ATOM     12  C   UNL     1       8.319  -0.474  -2.398  1.00  0.00     0.000 A 
ENDBRANCH   6   7
ENDBRANCH   1   6
TORSDOF 4
ENDMDL
