@<TRIPOS>MOLECULE
/home/cewinharhar/GITHUB/reincatalyze/data/processed/docking_pred/2023-Apr-26-1657_maxeplen10_maxtrainstep1000_exh32_gamma099_lrac9e-4_lrcr1e-3/25ea22f039de2039e6eb222be1b9c38742a73e8b_ligand_2.pdbqt
 12 12 0 0 0
SMALL
GASTEIGER

@<TRIPOS>ATOM
      1  C          8.4570   -0.6050   -2.1600 C.3     1  UNL1        0.1270
      2  C          8.4930   -1.8900   -2.8970 C.2     1  UNL1        0.3030
      3  O          9.5710   -2.5090   -3.0740 O.2     1  UNL1       -0.2520
      4  O          7.3330   -2.4450   -3.4130 O.3     1  UNL1       -0.4810
      5  H          7.1520   -2.3820   -4.4190 H       1  UNL1        0.2960
      6  C          7.0400   -0.1200   -2.1290 C.3     1  UNL1        0.0470
      7  C          6.4930    0.0340   -0.7820 C.2     1  UNL1       -0.0470
      8  C          6.6130   -0.9750    0.1450 C.2     1  UNL1        0.0040
      9  C          5.8540    1.2050   -0.4460 C.2     1  UNL1        0.0040
     10  C          6.0680   -0.7590    1.4130 C.2     1  UNL1        0.0000
     11  C          5.3150    1.4160    0.8070 C.2     1  UNL1        0.0000
     12  C          5.4310    0.4100    1.7420 C.2     1  UNL1        0.0000
@<TRIPOS>BOND
     1     5     4    1
     2     4     2    1
     3     3     2    2
     4     2     1    1
     5     1     6    1
     6     6     7    1
     7     7     9    2
     8     7     8    1
     9     9    11    1
    10     8    10    2
    11    11    12    2
    12    10    12    1
