@<TRIPOS>MOLECULE
/home/cewinharhar/GITHUB/reincatalyze/data/processed/docking_pred/2023-Apr-26-1657_maxeplen10_maxtrainstep1000_exh32_gamma099_lrac9e-4_lrcr1e-3/25ea22f039de2039e6eb222be1b9c38742a73e8b_ligand_2.pdbqt
 12 12 0 0 0
SMALL
GASTEIGER

@<TRIPOS>ATOM
      1  C          5.0590    1.7580    0.7220 C.3     1  UNL1        0.1270
      2  C          4.5730    1.0500    1.9290 C.2     1  UNL1        0.3030
      3  O          5.2650    0.1600    2.4840 O.2     1  UNL1       -0.2520
      4  O          3.3380    1.3500    2.4800 O.3     1  UNL1       -0.4810
      5  H          2.7540    2.0670    2.0400 H       1  UNL1        0.2960
      6  C          6.5570    1.7600    0.7480 C.3     1  UNL1        0.0470
      7  C          7.1720    1.0090   -0.3450 C.2     1  UNL1       -0.0470
      8  C          8.4910    1.2090   -0.6810 C.2     1  UNL1        0.0040
      9  C          6.4150    0.0940   -1.0390 C.2     1  UNL1        0.0040
     10  C          9.0120    0.4560   -1.7360 C.2     1  UNL1        0.0000
     11  C          6.9320   -0.6500   -2.0820 C.2     1  UNL1        0.0000
     12  C          8.2530   -0.4550   -2.4250 C.2     1  UNL1        0.0000
@<TRIPOS>BOND
     1    12    11    2
     2    12    10    1
     3    11     9    1
     4    10     8    2
     5     9     7    2
     6     8     7    1
     7     7     6    1
     8     1     6    1
     9     1     2    1
    10     2     4    1
    11     2     3    2
    12     5     4    1
