@<TRIPOS>MOLECULE
/home/cewinharhar/GITHUB/reincatalyze/data/processed/docking_pred/2023-Apr-26-1657_maxeplen10_maxtrainstep1000_exh32_gamma099_lrac9e-4_lrcr1e-3/25ea22f039de2039e6eb222be1b9c38742a73e8b_ligand_2.pdbqt
 12 12 0 0 0
SMALL
GASTEIGER

@<TRIPOS>ATOM
      1  C          8.4160   -0.5970   -2.1600 C.3     1  UNL1        0.1270
      2  C          8.4620   -1.8780   -2.9050 C.2     1  UNL1        0.3030
      3  O          9.5450   -2.4860   -3.0870 O.2     1  UNL1       -0.2520
      4  O          7.3060   -2.4400   -3.4230 O.3     1  UNL1       -0.4810
      5  H          7.3330   -3.3970   -3.7840 H       1  UNL1        0.2960
      6  C          6.9940   -0.1270   -2.1190 C.3     1  UNL1        0.0470
      7  C          6.4640    0.0480   -0.7680 C.2     1  UNL1       -0.0470
      8  C          5.8490    1.2230   -0.4010 C.2     1  UNL1        0.0040
      9  C          6.5840   -0.9800    0.1380 C.2     1  UNL1        0.0040
     10  C          5.3660    1.3200    0.9060 C.2     1  UNL1        0.0000
     11  C          6.1050   -0.8810    1.4300 C.2     1  UNL1        0.0000
     12  C          5.4890    0.2920    1.8060 C.2     1  UNL1        0.0000
@<TRIPOS>BOND
     1     5     4    1
     2     4     2    1
     3     3     2    2
     4     2     1    1
     5     1     6    1
     6     6     7    1
     7     7     8    2
     8     7     9    1
     9     8    10    1
    10     9    11    2
    11    10    12    2
    12    11    12    1
