@<TRIPOS>MOLECULE
/home/cewinharhar/GITHUB/reincatalyze/data/processed/docking_pred/2023-Apr-26-1657_maxeplen10_maxtrainstep1000_exh32_gamma099_lrac9e-4_lrcr1e-3/25ea22f039de2039e6eb222be1b9c38742a73e8b_ligand_2.pdbqt
 12 12 0 0 0
SMALL
GASTEIGER

@<TRIPOS>ATOM
      1  C          8.2070   -0.8720   -1.9040 C.3     1  UNL1        0.1270
      2  C          8.3750   -1.9940   -2.8570 C.2     1  UNL1        0.3030
      3  O          9.5080   -2.4790   -3.0970 O.2     1  UNL1       -0.2520
      4  O          7.2830   -2.5390   -3.5120 O.3     1  UNL1       -0.4810
      5  H          6.3420   -2.3710   -3.1440 H       1  UNL1        0.2960
      6  C          7.3980   -1.3590   -0.7400 C.3     1  UNL1        0.0470
      7  C          6.5630   -0.3310   -0.1240 C.2     1  UNL1       -0.0470
      8  C          6.1220   -0.4660    1.1720 C.2     1  UNL1        0.0040
      9  C          6.2200    0.7830   -0.8550 C.2     1  UNL1        0.0040
     10  C          5.3280    0.5570    1.6970 C.2     1  UNL1        0.0000
     11  C          5.4350    1.7930   -0.3350 C.2     1  UNL1        0.0000
     12  C          4.9890    1.6650    0.9630 C.2     1  UNL1        0.0000
@<TRIPOS>BOND
     1     4     5    1
     2     4     2    1
     3     3     2    2
     4     2     1    1
     5     1     6    1
     6     9    11    1
     7     9     7    2
     8     6     7    1
     9    11    12    2
    10     7     8    1
    11    12    10    1
    12     8    10    2
