MODEL 1
REMARK VINA RESULT:      -7.4      0.000      0.000
REMARK SMILES O=C(O)CCc1ccccc1
REMARK SMILES IDX 4 1 2 2 1 3 3 4 5 6 6 7 7 8 11 9 8 10 10 11 9 12
REMARK H PARENT 3 5
REMARK Flexibility Score: inf
ROOT
ATOM      1  C   UNL     1       8.457  -0.605  -2.160  1.00  0.00     0.127 C 
ENDROOT
BRANCH   1   2
ATOM      2  C   UNL     1       8.493  -1.890  -2.897  1.00  0.00     0.303 C 
ATOM      3  O   UNL     1       9.571  -2.509  -3.074  1.00  0.00    -0.252 OA
BRANCH   2   4
ATOM      4  O   UNL     1       7.333  -2.445  -3.413  1.00  0.00    -0.481 OA
ATOM      5  H   UNL     1       7.152  -2.382  -4.419  1.00  0.00     0.296 HD
ENDBRANCH   2   4
ENDBRANCH   1   2
BRANCH   1   6
ATOM      6  C   UNL     1       7.040  -0.120  -2.129  1.00  0.00     0.047 C 
BRANCH   6   7
ATOM      7  C   UNL     1       6.493   0.034  -0.782  1.00  0.00    -0.047 A 
ATOM      8  C   UNL     1       6.613  -0.975   0.145  1.00  0.00     0.004 A 
ATOM      9  C   UNL     1       5.854   1.205  -0.446  1.00  0.00     0.004 A 
ATOM     10  C   UNL     1       6.068  -0.759   1.413  1.00  0.00     0.000 A 
ATOM     11  C   UNL     1       5.315   1.416   0.807  1.00  0.00     0.000 A 
ATOM     12  C   UNL     1       5.431   0.410   1.742  1.00  0.00     0.000 A 
ENDBRANCH   6   7
ENDBRANCH   1   6
TORSDOF 4
ENDMDL
MODEL 2
REMARK VINA RESULT:      -7.3      0.081      1.438
REMARK SMILES O=C(O)CCc1ccccc1
REMARK SMILES IDX 4 1 2 2 1 3 3 4 5 6 6 7 7 8 11 9 8 10 10 11 9 12
REMARK H PARENT 3 5
REMARK Flexibility Score: inf
ROOT
ATOM      1  C   UNL     1       8.416  -0.597  -2.160  1.00  0.00     0.127 C 
ENDROOT
BRANCH   1   2
ATOM      2  C   UNL     1       8.462  -1.878  -2.905  1.00  0.00     0.303 C 
ATOM      3  O   UNL     1       9.545  -2.486  -3.087  1.00  0.00    -0.252 OA
BRANCH   2   4
ATOM      4  O   UNL     1       7.306  -2.440  -3.423  1.00  0.00    -0.481 OA
ATOM      5  H   UNL     1       7.333  -3.397  -3.784  1.00  0.00     0.296 HD
ENDBRANCH   2   4
ENDBRANCH   1   2
BRANCH   1   6
ATOM      6  C   UNL     1       6.994  -0.127  -2.119  1.00  0.00     0.047 C 
BRANCH   6   7
ATOM      7  C   UNL     1       6.464   0.048  -0.768  1.00  0.00    -0.047 A 
ATOM      8  C   UNL     1       5.849   1.223  -0.401  1.00  0.00     0.004 A 
ATOM      9  C   UNL     1       6.584  -0.980   0.138  1.00  0.00     0.004 A 
ATOM     10  C   UNL     1       5.366   1.320   0.906  1.00  0.00     0.000 A 
ATOM     11  C   UNL     1       6.105  -0.881   1.430  1.00  0.00     0.000 A 
ATOM     12  C   UNL     1       5.489   0.292   1.806  1.00  0.00     0.000 A 
ENDBRANCH   6   7
ENDBRANCH   1   6
TORSDOF 4
ENDMDL
MODEL 3
REMARK VINA RESULT:      -7.3      0.614      1.072
REMARK SMILES O=C(O)CCc1ccccc1
REMARK SMILES IDX 4 1 2 2 1 3 3 4 5 6 6 7 7 8 11 9 8 10 10 11 9 12
REMARK H PARENT 3 5
REMARK Flexibility Score: inf
ROOT
ATOM      1  C   UNL     1       8.207  -0.872  -1.904  1.00  0.00     0.127 C 
ENDROOT
BRANCH   1   2
ATOM      2  C   UNL     1       8.375  -1.994  -2.857  1.00  0.00     0.303 C 
ATOM      3  O   UNL     1       9.508  -2.479  -3.097  1.00  0.00    -0.252 OA
BRANCH   2   4
ATOM      4  O   UNL     1       7.283  -2.539  -3.512  1.00  0.00    -0.481 OA
ATOM      5  H   UNL     1       6.342  -2.371  -3.144  1.00  0.00     0.296 HD
ENDBRANCH   2   4
ENDBRANCH   1   2
BRANCH   1   6
ATOM      6  C   UNL     1       7.398  -1.359  -0.740  1.00  0.00     0.047 C 
BRANCH   6   7
ATOM      7  C   UNL     1       6.563  -0.331  -0.124  1.00  0.00    -0.047 A 
ATOM      8  C   UNL     1       6.122  -0.466   1.172  1.00  0.00     0.004 A 
ATOM      9  C   UNL     1       6.220   0.783  -0.855  1.00  0.00     0.004 A 
ATOM     10  C   UNL     1       5.328   0.557   1.697  1.00  0.00     0.000 A 
ATOM     11  C   UNL     1       5.435   1.793  -0.335  1.00  0.00     0.000 A 
ATOM     12  C   UNL     1       4.989   1.665   0.963  1.00  0.00     0.000 A 
ENDBRANCH   6   7
ENDBRANCH   1   6
TORSDOF 4
ENDMDL
MODEL 4
REMARK VINA RESULT:      -7.2      0.619      1.578
REMARK SMILES O=C(O)CCc1ccccc1
REMARK SMILES IDX 4 1 2 2 1 3 3 4 5 6 6 7 7 8 11 9 8 10 10 11 9 12
REMARK H PARENT 3 5
REMARK Flexibility Score: inf
ROOT
ATOM      1  C   UNL     1       8.272  -0.827  -1.956  1.00  0.00     0.127 C 
ENDROOT
BRANCH   1   2
ATOM      2  C   UNL     1       8.397  -1.986  -2.870  1.00  0.00     0.303 C 
ATOM      3  O   UNL     1       9.513  -2.511  -3.107  1.00  0.00    -0.252 OA
BRANCH   2   4
ATOM      4  O   UNL     1       7.281  -2.526  -3.491  1.00  0.00    -0.481 OA
ATOM      5  H   UNL     1       6.702  -3.199  -2.982  1.00  0.00     0.296 HD
ENDBRANCH   2   4
ENDBRANCH   1   2
BRANCH   1   6
ATOM      6  C   UNL     1       7.567  -1.280  -0.714  1.00  0.00     0.047 C 
BRANCH   6   7
ATOM      7  C   UNL     1       6.669  -0.279  -0.141  1.00  0.00    -0.047 A 
ATOM      8  C   UNL     1       6.277   0.817  -0.875  1.00  0.00     0.004 A 
ATOM      9  C   UNL     1       6.215  -0.444   1.147  1.00  0.00     0.004 A 
ATOM     10  C   UNL     1       5.418   1.732  -0.263  1.00  0.00     0.000 A 
ATOM     11  C   UNL     1       5.365   0.463   1.750  1.00  0.00     0.000 A 
ATOM     12  C   UNL     1       4.968   1.563   1.022  1.00  0.00     0.000 A 
ENDBRANCH   6   7
ENDBRANCH   1   6
TORSDOF 4
ENDMDL
MODEL 5
REMARK VINA RESULT:      -6.7      3.345      5.048
REMARK SMILES O=C(O)CCc1ccccc1
REMARK SMILES IDX 4 1 2 2 1 3 3 4 5 6 6 7 7 8 11 9 8 10 10 11 9 12
REMARK H PARENT 3 5
REMARK Flexibility Score: inf
ROOT
ATOM      1  C   UNL     1       5.059   1.758   0.722  1.00  0.00     0.127 C 
ENDROOT
BRANCH   1   2
ATOM      2  C   UNL     1       4.573   1.050   1.929  1.00  0.00     0.303 C 
ATOM      3  O   UNL     1       5.265   0.160   2.484  1.00  0.00    -0.252 OA
BRANCH   2   4
ATOM      4  O   UNL     1       3.338   1.350   2.480  1.00  0.00    -0.481 OA
ATOM      5  H   UNL     1       2.754   2.067   2.040  1.00  0.00     0.296 HD
ENDBRANCH   2   4
ENDBRANCH   1   2
BRANCH   1   6
ATOM      6  C   UNL     1       6.557   1.760   0.748  1.00  0.00     0.047 C 
BRANCH   6   7
ATOM      7  C   UNL     1       7.172   1.009  -0.345  1.00  0.00    -0.047 A 
ATOM      8  C   UNL     1       8.491   1.209  -0.681  1.00  0.00     0.004 A 
ATOM      9  C   UNL     1       6.415   0.094  -1.039  1.00  0.00     0.004 A 
ATOM     10  C   UNL     1       9.012   0.456  -1.736  1.00  0.00     0.000 A 
ATOM     11  C   UNL     1       6.932  -0.650  -2.082  1.00  0.00     0.000 A 
ATOM     12  C   UNL     1       8.253  -0.455  -2.425  1.00  0.00     0.000 A 
ENDBRANCH   6   7
ENDBRANCH   1   6
TORSDOF 4
ENDMDL
