@<TRIPOS>MOLECULE
/home/cewinharhar/GITHUB/reincatalyze/data/processed/docking_pred/2023-Apr-26-1657_maxeplen10_maxtrainstep1000_exh32_gamma099_lrac9e-4_lrcr1e-3/25f547df8c587039729a955c6f4cb3c83005f49c_ligand_2.pdbqt
 12 12 0 0 0
SMALL
GASTEIGER

@<TRIPOS>ATOM
      1  C          5.5560    2.8290   -0.0210 C.3     1  UNL1        0.1270
      2  C          6.2620    3.8580    0.7790 C.2     1  UNL1        0.3030
      3  O          6.9190    4.7740    0.2260 O.2     1  UNL1       -0.2520
      4  O          6.2150    3.8370    2.1630 O.3     1  UNL1       -0.4810
      5  H          6.9230    3.3080    2.6800 H       1  UNL1        0.2960
      6  C          4.9910    1.8090    0.9200 C.3     1  UNL1        0.0470
      7  C          5.7580    0.5660    0.9800 C.2     1  UNL1       -0.0470
      8  C          5.7470   -0.2130    2.1130 C.2     1  UNL1        0.0040
      9  C          6.4960    0.1790   -0.1150 C.2     1  UNL1        0.0040
     10  C          6.5030   -1.3880    2.1000 C.2     1  UNL1        0.0000
     11  C          7.2430   -0.9820   -0.1260 C.2     1  UNL1        0.0000
     12  C          7.2370   -1.7680    1.0050 C.2     1  UNL1        0.0000
@<TRIPOS>BOND
     1    11     9    1
     2    11    12    2
     3     9     7    2
     4     1     2    1
     5     1     6    1
     6     3     2    2
     7     2     4    1
     8     6     7    1
     9     7     8    1
    10    12    10    1
    11    10     8    2
    12     4     5    1
