MODEL 1
REMARK VINA RESULT:      -7.3      0.000      0.000
REMARK SMILES O=C(O)CCc1ccccc1
REMARK SMILES IDX 4 1 2 2 1 3 3 4 5 6 6 7 7 8 11 9 8 10 10 11 9 12
REMARK H PARENT 3 5
REMARK Flexibility Score: inf
ROOT
ATOM      1  C   UNL     1       8.450  -0.638  -2.115  1.00  0.00     0.127 C 
ENDROOT
BRANCH   1   2
ATOM      2  C   UNL     1       8.468  -1.906  -2.881  1.00  0.00     0.303 C 
ATOM      3  O   UNL     1       9.539  -2.531  -3.081  1.00  0.00    -0.252 OA
BRANCH   2   4
ATOM      4  O   UNL     1       7.299  -2.440  -3.399  1.00  0.00    -0.481 OA
ATOM      5  H   UNL     1       6.453  -1.863  -3.424  1.00  0.00     0.296 HD
ENDBRANCH   2   4
ENDBRANCH   1   2
BRANCH   1   6
ATOM      6  C   UNL     1       7.046  -0.116  -2.101  1.00  0.00     0.047 C 
BRANCH   6   7
ATOM      7  C   UNL     1       6.487   0.054  -0.761  1.00  0.00    -0.047 A 
ATOM      8  C   UNL     1       5.847   1.219  -0.409  1.00  0.00     0.004 A 
ATOM      9  C   UNL     1       6.607  -0.969   0.151  1.00  0.00     0.004 A 
ATOM     10  C   UNL     1       5.337   1.312   0.888  1.00  0.00     0.000 A 
ATOM     11  C   UNL     1       6.102  -0.876   1.433  1.00  0.00     0.000 A 
ATOM     12  C   UNL     1       5.460   0.289   1.794  1.00  0.00     0.000 A 
ENDBRANCH   6   7
ENDBRANCH   1   6
TORSDOF 4
ENDMDL
MODEL 2
REMARK VINA RESULT:      -7.3      0.112      1.440
REMARK SMILES O=C(O)CCc1ccccc1
REMARK SMILES IDX 4 1 2 2 1 3 3 4 5 6 6 7 7 8 11 9 8 10 10 11 9 12
REMARK H PARENT 3 5
REMARK Flexibility Score: inf
ROOT
ATOM      1  C   UNL     1       8.501  -0.705  -2.047  1.00  0.00     0.127 C 
ENDROOT
BRANCH   1   2
ATOM      2  C   UNL     1       8.507  -1.932  -2.878  1.00  0.00     0.303 C 
ATOM      3  O   UNL     1       9.574  -2.546  -3.124  1.00  0.00    -0.252 OA
BRANCH   2   4
ATOM      4  O   UNL     1       7.330  -2.436  -3.408  1.00  0.00    -0.481 OA
ATOM      5  H   UNL     1       6.895  -1.961  -4.203  1.00  0.00     0.296 HD
ENDBRANCH   2   4
ENDBRANCH   1   2
BRANCH   1   6
ATOM      6  C   UNL     1       7.119  -0.127  -2.072  1.00  0.00     0.047 C 
BRANCH   6   7
ATOM      7  C   UNL     1       6.523   0.045  -0.748  1.00  0.00    -0.047 A 
ATOM      8  C   UNL     1       6.626  -0.944   0.203  1.00  0.00     0.004 A 
ATOM      9  C   UNL     1       5.854   1.212  -0.458  1.00  0.00     0.004 A 
ATOM     10  C   UNL     1       6.033  -0.712   1.446  1.00  0.00     0.000 A 
ATOM     11  C   UNL     1       5.268   1.439   0.771  1.00  0.00     0.000 A 
ATOM     12  C   UNL     1       5.367   0.454   1.729  1.00  0.00     0.000 A 
ENDBRANCH   6   7
ENDBRANCH   1   6
TORSDOF 4
ENDMDL
MODEL 3
REMARK VINA RESULT:      -7.2      0.617      1.609
REMARK SMILES O=C(O)CCc1ccccc1
REMARK SMILES IDX 4 1 2 2 1 3 3 4 5 6 6 7 7 8 11 9 8 10 10 11 9 12
REMARK H PARENT 3 5
REMARK Flexibility Score: inf
ROOT
ATOM      1  C   UNL     1       8.320  -0.906  -1.837  1.00  0.00     0.127 C 
ENDROOT
BRANCH   1   2
ATOM      2  C   UNL     1       8.425  -1.994  -2.838  1.00  0.00     0.303 C 
ATOM      3  O   UNL     1       9.529  -2.530  -3.104  1.00  0.00    -0.252 OA
BRANCH   2   4
ATOM      4  O   UNL     1       7.302  -2.450  -3.511  1.00  0.00    -0.481 OA
ATOM      5  H   UNL     1       6.811  -1.819  -4.150  1.00  0.00     0.296 HD
ENDBRANCH   2   4
ENDBRANCH   1   2
BRANCH   1   6
ATOM      6  C   UNL     1       7.502  -1.404  -0.685  1.00  0.00     0.047 C 
BRANCH   6   7
ATOM      7  C   UNL     1       6.646  -0.386  -0.080  1.00  0.00    -0.047 A 
ATOM      8  C   UNL     1       6.197  -0.522   1.214  1.00  0.00     0.004 A 
ATOM      9  C   UNL     1       6.291   0.718  -0.820  1.00  0.00     0.004 A 
ATOM     10  C   UNL     1       5.383   0.491   1.727  1.00  0.00     0.000 A 
ATOM     11  C   UNL     1       5.485   1.718  -0.311  1.00  0.00     0.000 A 
ATOM     12  C   UNL     1       5.031   1.589   0.984  1.00  0.00     0.000 A 
ENDBRANCH   6   7
ENDBRANCH   1   6
TORSDOF 4
ENDMDL
MODEL 4
REMARK VINA RESULT:      -6.7      3.360      5.042
REMARK SMILES O=C(O)CCc1ccccc1
REMARK SMILES IDX 4 1 2 2 1 3 3 4 5 6 6 7 7 8 11 9 8 10 10 11 9 12
REMARK H PARENT 3 5
REMARK Flexibility Score: inf
ROOT
ATOM      1  C   UNL     1       5.013   1.707   0.643  1.00  0.00     0.127 C 
ENDROOT
BRANCH   1   2
ATOM      2  C   UNL     1       4.509   1.086   1.891  1.00  0.00     0.303 C 
ATOM      3  O   UNL     1       5.170   0.202   2.490  1.00  0.00    -0.252 OA
BRANCH   2   4
ATOM      4  O   UNL     1       3.292   1.466   2.431  1.00  0.00    -0.481 OA
ATOM      5  H   UNL     1       2.733   2.180   1.955  1.00  0.00     0.296 HD
ENDBRANCH   2   4
ENDBRANCH   1   2
BRANCH   1   6
ATOM      6  C   UNL     1       6.509   1.749   0.709  1.00  0.00     0.047 C 
BRANCH   6   7
ATOM      7  C   UNL     1       7.173   1.005  -0.360  1.00  0.00    -0.047 A 
ATOM      8  C   UNL     1       8.513   1.183  -0.614  1.00  0.00     0.004 A 
ATOM      9  C   UNL     1       6.441   0.117  -1.115  1.00  0.00     0.004 A 
ATOM     10  C   UNL     1       9.082   0.438  -1.650  1.00  0.00     0.000 A 
ATOM     11  C   UNL     1       7.005  -0.618  -2.139  1.00  0.00     0.000 A 
ATOM     12  C   UNL     1       8.347  -0.445  -2.400  1.00  0.00     0.000 A 
ENDBRANCH   6   7
ENDBRANCH   1   6
TORSDOF 4
ENDMDL
MODEL 5
REMARK VINA RESULT:      -6.7      3.819      4.968
REMARK SMILES O=C(O)CCc1ccccc1
REMARK SMILES IDX 4 1 2 2 1 3 3 4 5 6 6 7 7 8 11 9 8 10 10 11 9 12
REMARK H PARENT 3 5
REMARK Flexibility Score: inf
ROOT
ATOM      1  C   UNL     1       5.556   2.829  -0.021  1.00  0.00     0.127 C 
ENDROOT
BRANCH   1   2
ATOM      2  C   UNL     1       6.262   3.858   0.779  1.00  0.00     0.303 C 
ATOM      3  O   UNL     1       6.919   4.774   0.226  1.00  0.00    -0.252 OA
BRANCH   2   4
ATOM      4  O   UNL     1       6.215   3.837   2.163  1.00  0.00    -0.481 OA
ATOM      5  H   UNL     1       6.923   3.308   2.680  1.00  0.00     0.296 HD
ENDBRANCH   2   4
ENDBRANCH   1   2
BRANCH   1   6
ATOM      6  C   UNL     1       4.991   1.809   0.920  1.00  0.00     0.047 C 
BRANCH   6   7
ATOM      7  C   UNL     1       5.758   0.566   0.980  1.00  0.00    -0.047 A 
ATOM      8  C   UNL     1       5.747  -0.213   2.113  1.00  0.00     0.004 A 
ATOM      9  C   UNL     1       6.496   0.179  -0.115  1.00  0.00     0.004 A 
ATOM     10  C   UNL     1       6.503  -1.388   2.100  1.00  0.00     0.000 A 
ATOM     11  C   UNL     1       7.243  -0.982  -0.126  1.00  0.00     0.000 A 
ATOM     12  C   UNL     1       7.237  -1.768   1.005  1.00  0.00     0.000 A 
ENDBRANCH   6   7
ENDBRANCH   1   6
TORSDOF 4
ENDMDL
