@<TRIPOS>MOLECULE
/home/cewinharhar/GITHUB/reincatalyze/data/processed/docking_pred/2023-Apr-26-1657_maxeplen10_maxtrainstep1000_exh32_gamma099_lrac9e-4_lrcr1e-3/25f547df8c587039729a955c6f4cb3c83005f49c_ligand_2.pdbqt
 12 12 0 0 0
SMALL
GASTEIGER

@<TRIPOS>ATOM
      1  C          8.3200   -0.9060   -1.8370 C.3     1  UNL1        0.1270
      2  C          8.4250   -1.9940   -2.8380 C.2     1  UNL1        0.3030
      3  O          9.5290   -2.5300   -3.1040 O.2     1  UNL1       -0.2520
      4  O          7.3020   -2.4500   -3.5110 O.3     1  UNL1       -0.4810
      5  H          6.8110   -1.8190   -4.1500 H       1  UNL1        0.2960
      6  C          7.5020   -1.4040   -0.6850 C.3     1  UNL1        0.0470
      7  C          6.6460   -0.3860   -0.0800 C.2     1  UNL1       -0.0470
      8  C          6.1970   -0.5220    1.2140 C.2     1  UNL1        0.0040
      9  C          6.2910    0.7180   -0.8200 C.2     1  UNL1        0.0040
     10  C          5.3830    0.4910    1.7270 C.2     1  UNL1        0.0000
     11  C          5.4850    1.7180   -0.3110 C.2     1  UNL1        0.0000
     12  C          5.0310    1.5890    0.9840 C.2     1  UNL1        0.0000
@<TRIPOS>BOND
     1     5     4    1
     2     4     2    1
     3     3     2    2
     4     2     1    1
     5     1     6    1
     6     9    11    1
     7     9     7    2
     8     6     7    1
     9    11    12    2
    10     7     8    1
    11    12    10    1
    12     8    10    2
