@<TRIPOS>MOLECULE
/home/cewinharhar/GITHUB/reincatalyze/data/processed/docking_pred/2023-Apr-26-1657_maxeplen10_maxtrainstep1000_exh32_gamma099_lrac9e-4_lrcr1e-3/25f547df8c587039729a955c6f4cb3c83005f49c_ligand_2.pdbqt
 12 12 0 0 0
SMALL
GASTEIGER

@<TRIPOS>ATOM
      1  C          8.4500   -0.6380   -2.1150 C.3     1  UNL1        0.1270
      2  C          8.4680   -1.9060   -2.8810 C.2     1  UNL1        0.3030
      3  O          9.5390   -2.5310   -3.0810 O.2     1  UNL1       -0.2520
      4  O          7.2990   -2.4400   -3.3990 O.3     1  UNL1       -0.4810
      5  H          6.4530   -1.8630   -3.4240 H       1  UNL1        0.2960
      6  C          7.0460   -0.1160   -2.1010 C.3     1  UNL1        0.0470
      7  C          6.4870    0.0540   -0.7610 C.2     1  UNL1       -0.0470
      8  C          5.8470    1.2190   -0.4090 C.2     1  UNL1        0.0040
      9  C          6.6070   -0.9690    0.1510 C.2     1  UNL1        0.0040
     10  C          5.3370    1.3120    0.8880 C.2     1  UNL1        0.0000
     11  C          6.1020   -0.8760    1.4330 C.2     1  UNL1        0.0000
     12  C          5.4600    0.2890    1.7940 C.2     1  UNL1        0.0000
@<TRIPOS>BOND
     1     5     4    1
     2     4     2    1
     3     3     2    2
     4     2     1    1
     5     1     6    1
     6     6     7    1
     7     7     8    2
     8     7     9    1
     9     8    10    1
    10     9    11    2
    11    10    12    2
    12    11    12    1
