@<TRIPOS>MOLECULE
/home/cewinharhar/GITHUB/reincatalyze/data/processed/docking_pred/2023-Apr-26-1657_maxeplen10_maxtrainstep1000_exh32_gamma099_lrac9e-4_lrcr1e-3/25f547df8c587039729a955c6f4cb3c83005f49c_ligand_2.pdbqt
 12 12 0 0 0
SMALL
GASTEIGER

@<TRIPOS>ATOM
      1  C          5.0130    1.7070    0.6430 C.3     1  UNL1        0.1270
      2  C          4.5090    1.0860    1.8910 C.2     1  UNL1        0.3030
      3  O          5.1700    0.2020    2.4900 O.2     1  UNL1       -0.2520
      4  O          3.2920    1.4660    2.4310 O.3     1  UNL1       -0.4810
      5  H          2.7330    2.1800    1.9550 H       1  UNL1        0.2960
      6  C          6.5090    1.7490    0.7090 C.3     1  UNL1        0.0470
      7  C          7.1730    1.0050   -0.3600 C.2     1  UNL1       -0.0470
      8  C          8.5130    1.1830   -0.6140 C.2     1  UNL1        0.0040
      9  C          6.4410    0.1170   -1.1150 C.2     1  UNL1        0.0040
     10  C          9.0820    0.4380   -1.6500 C.2     1  UNL1        0.0000
     11  C          7.0050   -0.6180   -2.1390 C.2     1  UNL1        0.0000
     12  C          8.3470   -0.4450   -2.4000 C.2     1  UNL1        0.0000
@<TRIPOS>BOND
     1    12    11    2
     2    12    10    1
     3    11     9    1
     4    10     8    2
     5     9     7    2
     6     8     7    1
     7     7     6    1
     8     1     6    1
     9     1     2    1
    10     2     4    1
    11     2     3    2
    12     5     4    1
