@<TRIPOS>MOLECULE
/home/cewinharhar/GITHUB/reincatalyze/data/processed/docking_pred/2023-Apr-26-1657_maxeplen10_maxtrainstep1000_exh32_gamma099_lrac9e-4_lrcr1e-3/25fd2f55844bdf9fb92a90adf0bdb598f7a2ad59_ligand_2.pdbqt
 12 12 0 0 0
SMALL
GASTEIGER

@<TRIPOS>ATOM
      1  C          8.4360   -0.7000   -2.0550 C.3     1  UNL1        0.1270
      2  C          8.4730   -1.9270   -2.8840 C.2     1  UNL1        0.3030
      3  O          9.5510   -2.5330   -3.1020 O.2     1  UNL1       -0.2520
      4  O          7.3140   -2.4410   -3.4440 O.3     1  UNL1       -0.4810
      5  H          6.4100   -2.2110   -3.0220 H       1  UNL1        0.2960
      6  C          7.0400   -0.1570   -2.0790 C.3     1  UNL1        0.0470
      7  C          6.4600    0.0520   -0.7530 C.2     1  UNL1       -0.0470
      8  C          5.8140    1.2270   -0.4450 C.2     1  UNL1        0.0040
      9  C          6.5660   -0.9440    0.1900 C.2     1  UNL1        0.0040
     10  C          5.2840    1.3570    0.8410 C.2     1  UNL1        0.0000
     11  C          6.0420   -0.8130    1.4610 C.2     1  UNL1        0.0000
     12  C          5.3930    0.3610    1.7780 C.2     1  UNL1        0.0000
@<TRIPOS>BOND
     1     4     5    1
     2     4     2    1
     3     3     2    2
     4     2     1    1
     5     6     1    1
     6     6     7    1
     7     7     8    2
     8     7     9    1
     9     8    10    1
    10     9    11    2
    11    10    12    2
    12    11    12    1
