@<TRIPOS>MOLECULE
/home/cewinharhar/GITHUB/reincatalyze/data/processed/docking_pred/2023-Apr-26-1657_maxeplen10_maxtrainstep1000_exh32_gamma099_lrac9e-4_lrcr1e-3/25fd2f55844bdf9fb92a90adf0bdb598f7a2ad59_ligand_2.pdbqt
 12 12 0 0 0
SMALL
GASTEIGER

@<TRIPOS>ATOM
      1  C          8.4830   -0.6650   -2.0960 C.3     1  UNL1        0.1270
      2  C          8.4910   -1.9120   -2.8960 C.2     1  UNL1        0.3030
      3  O          9.5560   -2.5430   -3.1070 O.2     1  UNL1       -0.2520
      4  O          7.3190   -2.4170   -3.4350 O.3     1  UNL1       -0.4810
      5  H          7.3330   -3.3310   -3.8970 H       1  UNL1        0.2960
      6  C          7.0910   -0.1110   -2.1010 C.3     1  UNL1        0.0470
      7  C          6.5140    0.0580   -0.7690 C.2     1  UNL1       -0.0470
      8  C          6.6310   -0.9320    0.1790 C.2     1  UNL1        0.0040
      9  C          5.8500    1.2240   -0.4680 C.2     1  UNL1        0.0040
     10  C          6.0570   -0.7020    1.4320 C.2     1  UNL1        0.0000
     11  C          5.2820    1.4500    0.7700 C.2     1  UNL1        0.0000
     12  C          5.3940    0.4630    1.7260 C.2     1  UNL1        0.0000
@<TRIPOS>BOND
     1     5     4    1
     2     4     2    1
     3     3     2    2
     4     2     1    1
     5     6     1    1
     6     6     7    1
     7     7     9    2
     8     7     8    1
     9     9    11    1
    10     8    10    2
    11    11    12    2
    12    10    12    1
