MODEL 1
REMARK VINA RESULT:      -7.4      0.000      0.000
REMARK SMILES O=C(O)CCc1ccccc1
REMARK SMILES IDX 4 1 2 2 1 3 3 4 5 6 6 7 7 8 11 9 8 10 10 11 9 12
REMARK H PARENT 3 5
REMARK Flexibility Score: inf
ROOT
ATOM      1  C   UNL     1       8.483  -0.665  -2.096  1.00  0.00     0.127 C 
ENDROOT
BRANCH   1   2
ATOM      2  C   UNL     1       8.491  -1.912  -2.896  1.00  0.00     0.303 C 
ATOM      3  O   UNL     1       9.556  -2.543  -3.107  1.00  0.00    -0.252 OA
BRANCH   2   4
ATOM      4  O   UNL     1       7.319  -2.417  -3.435  1.00  0.00    -0.481 OA
ATOM      5  H   UNL     1       7.333  -3.331  -3.897  1.00  0.00     0.296 HD
ENDBRANCH   2   4
ENDBRANCH   1   2
BRANCH   1   6
ATOM      6  C   UNL     1       7.091  -0.111  -2.101  1.00  0.00     0.047 C 
BRANCH   6   7
ATOM      7  C   UNL     1       6.514   0.058  -0.769  1.00  0.00    -0.047 A 
ATOM      8  C   UNL     1       6.631  -0.932   0.179  1.00  0.00     0.004 A 
ATOM      9  C   UNL     1       5.850   1.224  -0.468  1.00  0.00     0.004 A 
ATOM     10  C   UNL     1       6.057  -0.702   1.432  1.00  0.00     0.000 A 
ATOM     11  C   UNL     1       5.282   1.450   0.770  1.00  0.00     0.000 A 
ATOM     12  C   UNL     1       5.394   0.463   1.726  1.00  0.00     0.000 A 
ENDBRANCH   6   7
ENDBRANCH   1   6
TORSDOF 4
ENDMDL
MODEL 2
REMARK VINA RESULT:      -7.3      0.075      1.438
REMARK SMILES O=C(O)CCc1ccccc1
REMARK SMILES IDX 4 1 2 2 1 3 3 4 5 6 6 7 7 8 11 9 8 10 10 11 9 12
REMARK H PARENT 3 5
REMARK Flexibility Score: inf
ROOT
ATOM      1  C   UNL     1       8.436  -0.700  -2.055  1.00  0.00     0.127 C 
ENDROOT
BRANCH   1   2
ATOM      2  C   UNL     1       8.473  -1.927  -2.884  1.00  0.00     0.303 C 
ATOM      3  O   UNL     1       9.551  -2.533  -3.102  1.00  0.00    -0.252 OA
BRANCH   2   4
ATOM      4  O   UNL     1       7.314  -2.441  -3.444  1.00  0.00    -0.481 OA
ATOM      5  H   UNL     1       6.410  -2.211  -3.022  1.00  0.00     0.296 HD
ENDBRANCH   2   4
ENDBRANCH   1   2
BRANCH   1   6
ATOM      6  C   UNL     1       7.040  -0.157  -2.079  1.00  0.00     0.047 C 
BRANCH   6   7
ATOM      7  C   UNL     1       6.460   0.052  -0.753  1.00  0.00    -0.047 A 
ATOM      8  C   UNL     1       5.814   1.227  -0.445  1.00  0.00     0.004 A 
ATOM      9  C   UNL     1       6.566  -0.944   0.190  1.00  0.00     0.004 A 
ATOM     10  C   UNL     1       5.284   1.357   0.841  1.00  0.00     0.000 A 
ATOM     11  C   UNL     1       6.042  -0.813   1.461  1.00  0.00     0.000 A 
ATOM     12  C   UNL     1       5.393   0.361   1.778  1.00  0.00     0.000 A 
ENDBRANCH   6   7
ENDBRANCH   1   6
TORSDOF 4
ENDMDL
MODEL 3
REMARK VINA RESULT:      -6.8      3.371      5.071
REMARK SMILES O=C(O)CCc1ccccc1
REMARK SMILES IDX 4 1 2 2 1 3 3 4 5 6 6 7 7 8 11 9 8 10 10 11 9 12
REMARK H PARENT 3 5
REMARK Flexibility Score: inf
ROOT
ATOM      1  C   UNL     1       4.998   1.781   0.697  1.00  0.00     0.127 C 
ENDROOT
BRANCH   1   2
ATOM      2  C   UNL     1       4.479   1.108   1.911  1.00  0.00     0.303 C 
ATOM      3  O   UNL     1       5.132   0.199   2.481  1.00  0.00    -0.252 OA
BRANCH   2   4
ATOM      4  O   UNL     1       3.255   1.465   2.453  1.00  0.00    -0.481 OA
ATOM      5  H   UNL     1       3.228   1.967   3.345  1.00  0.00     0.296 HD
ENDBRANCH   2   4
ENDBRANCH   1   2
BRANCH   1   6
ATOM      6  C   UNL     1       6.495   1.756   0.748  1.00  0.00     0.047 C 
BRANCH   6   7
ATOM      7  C   UNL     1       7.115   1.005  -0.343  1.00  0.00    -0.047 A 
ATOM      8  C   UNL     1       6.385   0.099  -1.077  1.00  0.00     0.004 A 
ATOM      9  C   UNL     1       8.443   1.216  -0.632  1.00  0.00     0.004 A 
ATOM     10  C   UNL     1       7.041  -0.581  -2.104  1.00  0.00     0.000 A 
ATOM     11  C   UNL     1       9.091   0.542  -1.649  1.00  0.00     0.000 A 
ATOM     12  C   UNL     1       8.367  -0.368  -2.388  1.00  0.00     0.000 A 
ENDBRANCH   6   7
ENDBRANCH   1   6
TORSDOF 4
ENDMDL
MODEL 4
REMARK VINA RESULT:      -6.7      1.927      2.289
REMARK SMILES O=C(O)CCc1ccccc1
REMARK SMILES IDX 4 1 2 2 1 3 3 4 5 6 6 7 7 8 11 9 8 10 10 11 9 12
REMARK H PARENT 3 5
REMARK Flexibility Score: inf
ROOT
ATOM      1  C   UNL     1       8.221   0.229  -2.199  1.00  0.00     0.127 C 
ENDROOT
BRANCH   1   2
ATOM      2  C   UNL     1       9.348   0.343  -1.243  1.00  0.00     0.303 C 
ATOM      3  O   UNL     1       9.434  -0.415  -0.245  1.00  0.00    -0.252 OA
BRANCH   2   4
ATOM      4  O   UNL     1      10.340   1.293  -1.425  1.00  0.00    -0.481 OA
ATOM      5  H   UNL     1      10.467   2.026  -0.721  1.00  0.00     0.296 HD
ENDBRANCH   2   4
ENDBRANCH   1   2
BRANCH   1   6
ATOM      6  C   UNL     1       7.112  -0.525  -1.532  1.00  0.00     0.047 C 
BRANCH   6   7
ATOM      7  C   UNL     1       6.336   0.275  -0.585  1.00  0.00    -0.047 A 
ATOM      8  C   UNL     1       6.112  -0.174   0.696  1.00  0.00     0.004 A 
ATOM      9  C   UNL     1       5.830   1.489  -0.988  1.00  0.00     0.004 A 
ATOM     10  C   UNL     1       5.363   0.642   1.547  1.00  0.00     0.000 A 
ATOM     11  C   UNL     1       5.089   2.294  -0.146  1.00  0.00     0.000 A 
ATOM     12  C   UNL     1       4.860   1.852   1.139  1.00  0.00     0.000 A 
ENDBRANCH   6   7
ENDBRANCH   1   6
TORSDOF 4
ENDMDL
MODEL 5
REMARK VINA RESULT:      -6.5      3.708      5.118
REMARK SMILES O=C(O)CCc1ccccc1
REMARK SMILES IDX 4 1 2 2 1 3 3 4 5 6 6 7 7 8 11 9 8 10 10 11 9 12
REMARK H PARENT 3 5
REMARK Flexibility Score: inf
ROOT
ATOM      1  C   UNL     1       5.342   2.925   0.127  1.00  0.00     0.127 C 
ENDROOT
BRANCH   1   2
ATOM      2  C   UNL     1       6.227   3.854   0.868  1.00  0.00     0.303 C 
ATOM      3  O   UNL     1       6.869   4.754   0.273  1.00  0.00    -0.252 OA
BRANCH   2   4
ATOM      4  O   UNL     1       6.371   3.754   2.243  1.00  0.00    -0.481 OA
ATOM      5  H   UNL     1       7.191   3.278   2.627  1.00  0.00     0.296 HD
ENDBRANCH   2   4
ENDBRANCH   1   2
BRANCH   1   6
ATOM      6  C   UNL     1       5.298   1.624   0.870  1.00  0.00     0.047 C 
BRANCH   6   7
ATOM      7  C   UNL     1       6.070   0.554   0.240  1.00  0.00    -0.047 A 
ATOM      8  C   UNL     1       6.348   0.586  -1.107  1.00  0.00     0.004 A 
ATOM      9  C   UNL     1       6.521  -0.492   1.011  1.00  0.00     0.004 A 
ATOM     10  C   UNL     1       7.090  -0.469  -1.641  1.00  0.00     0.000 A 
ATOM     11  C   UNL     1       7.255  -1.535   0.481  1.00  0.00     0.000 A 
ATOM     12  C   UNL     1       7.537  -1.511  -0.867  1.00  0.00     0.000 A 
ENDBRANCH   6   7
ENDBRANCH   1   6
TORSDOF 4
ENDMDL
