@<TRIPOS>MOLECULE
/home/cewinharhar/GITHUB/reincatalyze/data/processed/docking_pred/2023-Apr-26-1657_maxeplen10_maxtrainstep1000_exh32_gamma099_lrac9e-4_lrcr1e-3/25fd2f55844bdf9fb92a90adf0bdb598f7a2ad59_ligand_2.pdbqt
 12 12 0 0 0
SMALL
GASTEIGER

@<TRIPOS>ATOM
      1  C          4.9980    1.7810    0.6970 C.3     1  UNL1        0.1270
      2  C          4.4790    1.1080    1.9110 C.2     1  UNL1        0.3030
      3  O          5.1320    0.1990    2.4810 O.2     1  UNL1       -0.2520
      4  O          3.2550    1.4650    2.4530 O.3     1  UNL1       -0.4810
      5  H          3.2280    1.9670    3.3450 H       1  UNL1        0.2960
      6  C          6.4950    1.7560    0.7480 C.3     1  UNL1        0.0470
      7  C          7.1150    1.0050   -0.3430 C.2     1  UNL1       -0.0470
      8  C          6.3850    0.0990   -1.0770 C.2     1  UNL1        0.0040
      9  C          8.4430    1.2160   -0.6320 C.2     1  UNL1        0.0040
     10  C          7.0410   -0.5810   -2.1040 C.2     1  UNL1        0.0000
     11  C          9.0910    0.5420   -1.6490 C.2     1  UNL1        0.0000
     12  C          8.3670   -0.3680   -2.3880 C.2     1  UNL1        0.0000
@<TRIPOS>BOND
     1    12    10    2
     2    12    11    1
     3    10     8    1
     4    11     9    2
     5     8     7    2
     6     9     7    1
     7     7     6    1
     8     1     6    1
     9     1     2    1
    10     2     4    1
    11     2     3    2
    12     4     5    1
