@<TRIPOS>MOLECULE
/home/cewinharhar/GITHUB/reincatalyze/data/processed/docking_pred/2023-Apr-26-1657_maxeplen10_maxtrainstep1000_exh32_gamma099_lrac9e-4_lrcr1e-3/25fd2f55844bdf9fb92a90adf0bdb598f7a2ad59_ligand_2.pdbqt
 12 12 0 0 0
SMALL
GASTEIGER

@<TRIPOS>ATOM
      1  C          8.2210    0.2290   -2.1990 C.3     1  UNL1        0.1270
      2  C          9.3480    0.3430   -1.2430 C.2     1  UNL1        0.3030
      3  O          9.4340   -0.4150   -0.2450 O.2     1  UNL1       -0.2520
      4  O         10.3400    1.2930   -1.4250 O.3     1  UNL1       -0.4810
      5  H         10.4670    2.0260   -0.7210 H       1  UNL1        0.2960
      6  C          7.1120   -0.5250   -1.5320 C.3     1  UNL1        0.0470
      7  C          6.3360    0.2750   -0.5850 C.2     1  UNL1       -0.0470
      8  C          6.1120   -0.1740    0.6960 C.2     1  UNL1        0.0040
      9  C          5.8300    1.4890   -0.9880 C.2     1  UNL1        0.0040
     10  C          5.3630    0.6420    1.5470 C.2     1  UNL1        0.0000
     11  C          5.0890    2.2940   -0.1460 C.2     1  UNL1        0.0000
     12  C          4.8600    1.8520    1.1390 C.2     1  UNL1        0.0000
@<TRIPOS>BOND
     1     1     6    1
     2     1     2    1
     3     6     7    1
     4     4     2    1
     5     4     5    1
     6     2     3    2
     7     9     7    2
     8     9    11    1
     9     7     8    1
    10    11    12    2
    11     8    10    2
    12    12    10    1
