@<TRIPOS>MOLECULE
/home/cewinharhar/GITHUB/reincatalyze/data/processed/docking_pred/2023-Apr-26-1657_maxeplen10_maxtrainstep1000_exh32_gamma099_lrac9e-4_lrcr1e-3/25fd2f55844bdf9fb92a90adf0bdb598f7a2ad59_ligand_2.pdbqt
 12 12 0 0 0
SMALL
GASTEIGER

@<TRIPOS>ATOM
      1  C          5.3420    2.9250    0.1270 C.3     1  UNL1        0.1270
      2  C          6.2270    3.8540    0.8680 C.2     1  UNL1        0.3030
      3  O          6.8690    4.7540    0.2730 O.2     1  UNL1       -0.2520
      4  O          6.3710    3.7540    2.2430 O.3     1  UNL1       -0.4810
      5  H          7.1910    3.2780    2.6270 H       1  UNL1        0.2960
      6  C          5.2980    1.6240    0.8700 C.3     1  UNL1        0.0470
      7  C          6.0700    0.5540    0.2400 C.2     1  UNL1       -0.0470
      8  C          6.3480    0.5860   -1.1070 C.2     1  UNL1        0.0040
      9  C          6.5210   -0.4920    1.0110 C.2     1  UNL1        0.0040
     10  C          7.0900   -0.4690   -1.6410 C.2     1  UNL1        0.0000
     11  C          7.2550   -1.5350    0.4810 C.2     1  UNL1        0.0000
     12  C          7.5370   -1.5110   -0.8670 C.2     1  UNL1        0.0000
@<TRIPOS>BOND
     1    10     8    1
     2    10    12    2
     3     8     7    2
     4    12    11    1
     5     1     2    1
     6     1     6    1
     7     7     6    1
     8     7     9    1
     9     3     2    2
    10    11     9    2
    11     2     4    1
    12     4     5    1
