MODEL 1
REMARK VINA RESULT:      -7.1      0.000      0.000
REMARK SMILES O=C(O)CCc1ccccc1
REMARK SMILES IDX 4 1 2 2 1 3 3 4 5 6 6 7 7 8 11 9 8 10 10 11 9 12
REMARK H PARENT 3 5
REMARK Flexibility Score: inf
ROOT
ATOM      1  C   UNL     1       8.454  -0.623  -2.159  1.00  0.00     0.127 C 
ENDROOT
BRANCH   1   2
ATOM      2  C   UNL     1       8.486  -1.904  -2.905  1.00  0.00     0.303 C 
ATOM      3  O   UNL     1       9.565  -2.519  -3.094  1.00  0.00    -0.252 OA
BRANCH   2   4
ATOM      4  O   UNL     1       7.323  -2.458  -3.415  1.00  0.00    -0.481 OA
ATOM      5  H   UNL     1       7.292  -2.740  -4.399  1.00  0.00     0.296 HD
ENDBRANCH   2   4
ENDBRANCH   1   2
BRANCH   1   6
ATOM      6  C   UNL     1       7.042  -0.121  -2.149  1.00  0.00     0.047 C 
BRANCH   6   7
ATOM      7  C   UNL     1       6.488   0.066  -0.809  1.00  0.00    -0.047 A 
ATOM      8  C   UNL     1       5.845   1.234  -0.470  1.00  0.00     0.004 A 
ATOM      9  C   UNL     1       6.614  -0.944   0.117  1.00  0.00     0.004 A 
ATOM     10  C   UNL     1       5.340   1.344   0.827  1.00  0.00     0.000 A 
ATOM     11  C   UNL     1       6.114  -0.834   1.399  1.00  0.00     0.000 A 
ATOM     12  C   UNL     1       5.469   0.334   1.746  1.00  0.00     0.000 A 
ENDBRANCH   6   7
ENDBRANCH   1   6
TORSDOF 4
ENDMDL
MODEL 2
REMARK VINA RESULT:      -7.1      0.065      1.438
REMARK SMILES O=C(O)CCc1ccccc1
REMARK SMILES IDX 4 1 2 2 1 3 3 4 5 6 6 7 7 8 11 9 8 10 10 11 9 12
REMARK H PARENT 3 5
REMARK Flexibility Score: inf
ROOT
ATOM      1  C   UNL     1       8.417  -0.612  -2.157  1.00  0.00     0.127 C 
ENDROOT
BRANCH   1   2
ATOM      2  C   UNL     1       8.467  -1.891  -2.904  1.00  0.00     0.303 C 
ATOM      3  O   UNL     1       9.554  -2.490  -3.097  1.00  0.00    -0.252 OA
BRANCH   2   4
ATOM      4  O   UNL     1       7.311  -2.462  -3.412  1.00  0.00    -0.481 OA
ATOM      5  H   UNL     1       6.591  -1.858  -3.819  1.00  0.00     0.296 HD
ENDBRANCH   2   4
ENDBRANCH   1   2
BRANCH   1   6
ATOM      6  C   UNL     1       6.992  -0.151  -2.107  1.00  0.00     0.047 C 
BRANCH   6   7
ATOM      7  C   UNL     1       6.462  -0.002  -0.753  1.00  0.00    -0.047 A 
ATOM      8  C   UNL     1       6.600  -1.012   0.171  1.00  0.00     0.004 A 
ATOM      9  C   UNL     1       5.823   1.166  -0.407  1.00  0.00     0.004 A 
ATOM     10  C   UNL     1       6.070  -0.801   1.446  1.00  0.00     0.000 A 
ATOM     11  C   UNL     1       5.299   1.373   0.854  1.00  0.00     0.000 A 
ATOM     12  C   UNL     1       5.432   0.366   1.785  1.00  0.00     0.000 A 
ENDBRANCH   6   7
ENDBRANCH   1   6
TORSDOF 4
ENDMDL
MODEL 3
REMARK VINA RESULT:      -6.7      1.400      2.014
REMARK SMILES O=C(O)CCc1ccccc1
REMARK SMILES IDX 4 1 2 2 1 3 3 4 5 6 6 7 7 8 11 9 8 10 10 11 9 12
REMARK H PARENT 3 5
REMARK Flexibility Score: inf
ROOT
ATOM      1  C   UNL     1       8.059  -0.295  -2.449  1.00  0.00     0.127 C 
ENDROOT
BRANCH   1   2
ATOM      2  C   UNL     1       8.342  -1.670  -2.925  1.00  0.00     0.303 C 
ATOM      3  O   UNL     1       9.504  -2.145  -2.890  1.00  0.00    -0.252 OA
BRANCH   2   4
ATOM      4  O   UNL     1       7.328  -2.471  -3.424  1.00  0.00    -0.481 OA
ATOM      5  H   UNL     1       6.709  -2.961  -2.771  1.00  0.00     0.296 HD
ENDBRANCH   2   4
ENDBRANCH   1   2
BRANCH   1   6
ATOM      6  C   UNL     1       6.965  -0.366  -1.429  1.00  0.00     0.047 C 
BRANCH   6   7
ATOM      7  C   UNL     1       6.777   0.870  -0.672  1.00  0.00    -0.047 A 
ATOM      8  C   UNL     1       7.832   1.463  -0.019  1.00  0.00     0.004 A 
ATOM      9  C   UNL     1       5.526   1.442  -0.619  1.00  0.00     0.004 A 
ATOM     10  C   UNL     1       7.580   2.643   0.683  1.00  0.00     0.000 A 
ATOM     11  C   UNL     1       5.278   2.608   0.076  1.00  0.00     0.000 A 
ATOM     12  C   UNL     1       6.330   3.208   0.733  1.00  0.00     0.000 A 
ENDBRANCH   6   7
ENDBRANCH   1   6
TORSDOF 4
ENDMDL
MODEL 4
REMARK VINA RESULT:      -6.6      1.353      1.846
REMARK SMILES O=C(O)CCc1ccccc1
REMARK SMILES IDX 4 1 2 2 1 3 3 4 5 6 6 7 7 8 11 9 8 10 10 11 9 12
REMARK H PARENT 3 5
REMARK Flexibility Score: inf
ROOT
ATOM      1  C   UNL     1       8.232  -0.433  -2.389  1.00  0.00     0.127 C 
ENDROOT
BRANCH   1   2
ATOM      2  C   UNL     1       8.368  -1.788  -2.974  1.00  0.00     0.303 C 
ATOM      3  O   UNL     1       9.487  -2.353  -3.054  1.00  0.00    -0.252 OA
BRANCH   2   4
ATOM      4  O   UNL     1       7.260  -2.470  -3.451  1.00  0.00    -0.481 OA
ATOM      5  H   UNL     1       6.591  -1.981  -4.051  1.00  0.00     0.296 HD
ENDBRANCH   2   4
ENDBRANCH   1   2
BRANCH   1   6
ATOM      6  C   UNL     1       7.567  -0.563  -1.052  1.00  0.00     0.047 C 
BRANCH   6   7
ATOM      7  C   UNL     1       7.069   0.701  -0.512  1.00  0.00    -0.047 A 
ATOM      8  C   UNL     1       5.747   1.054  -0.655  1.00  0.00     0.004 A 
ATOM      9  C   UNL     1       7.938   1.538   0.149  1.00  0.00     0.004 A 
ATOM     10  C   UNL     1       5.340   2.275  -0.113  1.00  0.00     0.000 A 
ATOM     11  C   UNL     1       7.534   2.745   0.684  1.00  0.00     0.000 A 
ATOM     12  C   UNL     1       6.212   3.107   0.544  1.00  0.00     0.000 A 
ENDBRANCH   6   7
ENDBRANCH   1   6
TORSDOF 4
ENDMDL
MODEL 5
REMARK VINA RESULT:      -6.4      2.481      3.145
REMARK SMILES O=C(O)CCc1ccccc1
REMARK SMILES IDX 4 1 2 2 1 3 3 4 5 6 6 7 7 8 11 9 8 10 10 11 9 12
REMARK H PARENT 3 5
REMARK Flexibility Score: inf
ROOT
ATOM      1  C   UNL     1       8.150  -1.151  -0.076  1.00  0.00     0.127 C 
ENDROOT
BRANCH   1   2
ATOM      2  C   UNL     1       7.894  -2.373   0.723  1.00  0.00     0.303 C 
ATOM      3  O   UNL     1       8.715  -3.324   0.739  1.00  0.00    -0.252 OA
BRANCH   2   4
ATOM      4  O   UNL     1       6.738  -2.500   1.476  1.00  0.00    -0.481 OA
ATOM      5  H   UNL     1       6.808  -2.793   2.454  1.00  0.00     0.296 HD
ENDBRANCH   2   4
ENDBRANCH   1   2
BRANCH   1   6
ATOM      6  C   UNL     1       6.831  -0.577  -0.494  1.00  0.00     0.047 C 
BRANCH   6   7
ATOM      7  C   UNL     1       6.651   0.827  -0.127  1.00  0.00    -0.047 A 
ATOM      8  C   UNL     1       7.680   1.544   0.438  1.00  0.00     0.004 A 
ATOM      9  C   UNL     1       5.436   1.429  -0.356  1.00  0.00     0.004 A 
ATOM     10  C   UNL     1       7.437   2.880   0.761  1.00  0.00     0.000 A 
ATOM     11  C   UNL     1       5.197   2.751  -0.035  1.00  0.00     0.000 A 
ATOM     12  C   UNL     1       6.223   3.476   0.532  1.00  0.00     0.000 A 
ENDBRANCH   6   7
ENDBRANCH   1   6
TORSDOF 4
ENDMDL
