@<TRIPOS>MOLECULE
/home/cewinharhar/GITHUB/reincatalyze/data/processed/docking_pred/2023-Apr-26-1657_maxeplen10_maxtrainstep1000_exh32_gamma099_lrac9e-4_lrcr1e-3/2734134eb9e7fe1a9a1e6734a306fe03ba38cdbb_ligand_2.pdbqt
 12 12 0 0 0
SMALL
GASTEIGER

@<TRIPOS>ATOM
      1  C          8.4540   -0.6230   -2.1590 C.3     1  UNL1        0.1270
      2  C          8.4860   -1.9040   -2.9050 C.2     1  UNL1        0.3030
      3  O          9.5650   -2.5190   -3.0940 O.2     1  UNL1       -0.2520
      4  O          7.3230   -2.4580   -3.4150 O.3     1  UNL1       -0.4810
      5  H          7.2920   -2.7400   -4.3990 H       1  UNL1        0.2960
      6  C          7.0420   -0.1210   -2.1490 C.3     1  UNL1        0.0470
      7  C          6.4880    0.0660   -0.8090 C.2     1  UNL1       -0.0470
      8  C          5.8450    1.2340   -0.4700 C.2     1  UNL1        0.0040
      9  C          6.6140   -0.9440    0.1170 C.2     1  UNL1        0.0040
     10  C          5.3400    1.3440    0.8270 C.2     1  UNL1        0.0000
     11  C          6.1140   -0.8340    1.3990 C.2     1  UNL1        0.0000
     12  C          5.4690    0.3340    1.7460 C.2     1  UNL1        0.0000
@<TRIPOS>BOND
     1     5     4    1
     2     4     2    1
     3     3     2    2
     4     2     1    1
     5     1     6    1
     6     6     7    1
     7     7     8    2
     8     7     9    1
     9     8    10    1
    10     9    11    2
    11    10    12    2
    12    11    12    1
