@<TRIPOS>MOLECULE
/home/cewinharhar/GITHUB/reincatalyze/data/processed/docking_pred/2023-Apr-26-1657_maxeplen10_maxtrainstep1000_exh32_gamma099_lrac9e-4_lrcr1e-3/2734134eb9e7fe1a9a1e6734a306fe03ba38cdbb_ligand_2.pdbqt
 12 12 0 0 0
SMALL
GASTEIGER

@<TRIPOS>ATOM
      1  C          8.4170   -0.6120   -2.1570 C.3     1  UNL1        0.1270
      2  C          8.4670   -1.8910   -2.9040 C.2     1  UNL1        0.3030
      3  O          9.5540   -2.4900   -3.0970 O.2     1  UNL1       -0.2520
      4  O          7.3110   -2.4620   -3.4120 O.3     1  UNL1       -0.4810
      5  H          6.5910   -1.8580   -3.8190 H       1  UNL1        0.2960
      6  C          6.9920   -0.1510   -2.1070 C.3     1  UNL1        0.0470
      7  C          6.4620   -0.0020   -0.7530 C.2     1  UNL1       -0.0470
      8  C          6.6000   -1.0120    0.1710 C.2     1  UNL1        0.0040
      9  C          5.8230    1.1660   -0.4070 C.2     1  UNL1        0.0040
     10  C          6.0700   -0.8010    1.4460 C.2     1  UNL1        0.0000
     11  C          5.2990    1.3730    0.8540 C.2     1  UNL1        0.0000
     12  C          5.4320    0.3660    1.7850 C.2     1  UNL1        0.0000
@<TRIPOS>BOND
     1     5     4    1
     2     4     2    1
     3     3     2    2
     4     2     1    1
     5     1     6    1
     6     6     7    1
     7     7     9    2
     8     7     8    1
     9     9    11    1
    10     8    10    2
    11    11    12    2
    12    10    12    1
