@<TRIPOS>MOLECULE
/home/cewinharhar/GITHUB/reincatalyze/data/processed/docking_pred/2023-Apr-26-1657_maxeplen10_maxtrainstep1000_exh32_gamma099_lrac9e-4_lrcr1e-3/2734134eb9e7fe1a9a1e6734a306fe03ba38cdbb_ligand_2.pdbqt
 12 12 0 0 0
SMALL
GASTEIGER

@<TRIPOS>ATOM
      1  C          8.0590   -0.2950   -2.4490 C.3     1  UNL1        0.1270
      2  C          8.3420   -1.6700   -2.9250 C.2     1  UNL1        0.3030
      3  O          9.5040   -2.1450   -2.8900 O.2     1  UNL1       -0.2520
      4  O          7.3280   -2.4710   -3.4240 O.3     1  UNL1       -0.4810
      5  H          6.7090   -2.9610   -2.7710 H       1  UNL1        0.2960
      6  C          6.9650   -0.3660   -1.4290 C.3     1  UNL1        0.0470
      7  C          6.7770    0.8700   -0.6720 C.2     1  UNL1       -0.0470
      8  C          7.8320    1.4630   -0.0190 C.2     1  UNL1        0.0040
      9  C          5.5260    1.4420   -0.6190 C.2     1  UNL1        0.0040
     10  C          7.5800    2.6430    0.6830 C.2     1  UNL1        0.0000
     11  C          5.2780    2.6080    0.0760 C.2     1  UNL1        0.0000
     12  C          6.3300    3.2080    0.7330 C.2     1  UNL1        0.0000
@<TRIPOS>BOND
     1     4     2    1
     2     4     5    1
     3     2     3    2
     4     2     1    1
     5     1     6    1
     6     6     7    1
     7     7     9    2
     8     7     8    1
     9     9    11    1
    10     8    10    2
    11    11    12    2
    12    10    12    1
