@<TRIPOS>MOLECULE
/home/cewinharhar/GITHUB/reincatalyze/data/processed/docking_pred/2023-Apr-26-1657_maxeplen10_maxtrainstep1000_exh32_gamma099_lrac9e-4_lrcr1e-3/2734134eb9e7fe1a9a1e6734a306fe03ba38cdbb_ligand_2.pdbqt
 12 12 0 0 0
SMALL
GASTEIGER

@<TRIPOS>ATOM
      1  C          8.1500   -1.1510   -0.0760 C.3     1  UNL1        0.1270
      2  C          7.8940   -2.3730    0.7230 C.2     1  UNL1        0.3030
      3  O          8.7150   -3.3240    0.7390 O.2     1  UNL1       -0.2520
      4  O          6.7380   -2.5000    1.4760 O.3     1  UNL1       -0.4810
      5  H          6.8080   -2.7930    2.4540 H       1  UNL1        0.2960
      6  C          6.8310   -0.5770   -0.4940 C.3     1  UNL1        0.0470
      7  C          6.6510    0.8270   -0.1270 C.2     1  UNL1       -0.0470
      8  C          7.6800    1.5440    0.4380 C.2     1  UNL1        0.0040
      9  C          5.4360    1.4290   -0.3560 C.2     1  UNL1        0.0040
     10  C          7.4370    2.8800    0.7610 C.2     1  UNL1        0.0000
     11  C          5.1970    2.7510   -0.0350 C.2     1  UNL1        0.0000
     12  C          6.2230    3.4760    0.5320 C.2     1  UNL1        0.0000
@<TRIPOS>BOND
     1     6     7    1
     2     6     1    1
     3     9     7    2
     4     9    11    1
     5     7     8    1
     6     1     2    1
     7    11    12    2
     8     8    10    2
     9    12    10    1
    10     2     3    2
    11     2     4    1
    12     4     5    1
