@<TRIPOS>MOLECULE
/home/cewinharhar/GITHUB/reincatalyze/data/processed/docking_pred/2023-Apr-26-1657_maxeplen10_maxtrainstep1000_exh32_gamma099_lrac9e-4_lrcr1e-3/2734134eb9e7fe1a9a1e6734a306fe03ba38cdbb_ligand_2.pdbqt
 12 12 0 0 0
SMALL
GASTEIGER

@<TRIPOS>ATOM
      1  C          8.2320   -0.4330   -2.3890 C.3     1  UNL1        0.1270
      2  C          8.3680   -1.7880   -2.9740 C.2     1  UNL1        0.3030
      3  O          9.4870   -2.3530   -3.0540 O.2     1  UNL1       -0.2520
      4  O          7.2600   -2.4700   -3.4510 O.3     1  UNL1       -0.4810
      5  H          6.5910   -1.9810   -4.0510 H       1  UNL1        0.2960
      6  C          7.5670   -0.5630   -1.0520 C.3     1  UNL1        0.0470
      7  C          7.0690    0.7010   -0.5120 C.2     1  UNL1       -0.0470
      8  C          5.7470    1.0540   -0.6550 C.2     1  UNL1        0.0040
      9  C          7.9380    1.5380    0.1490 C.2     1  UNL1        0.0040
     10  C          5.3400    2.2750   -0.1130 C.2     1  UNL1        0.0000
     11  C          7.5340    2.7450    0.6840 C.2     1  UNL1        0.0000
     12  C          6.2120    3.1070    0.5440 C.2     1  UNL1        0.0000
@<TRIPOS>BOND
     1     5     4    1
     2     4     2    1
     3     3     2    2
     4     2     1    1
     5     1     6    1
     6     6     7    1
     7     8     7    2
     8     8    10    1
     9     7     9    1
    10    10    12    2
    11     9    11    2
    12    12    11    1
