MODEL 1
REMARK VINA RESULT:      -7.4      0.000      0.000
REMARK SMILES O=C(O)CCc1ccccc1
REMARK SMILES IDX 4 1 2 2 1 3 3 4 5 6 6 7 7 8 11 9 8 10 10 11 9 12
REMARK H PARENT 3 5
REMARK Flexibility Score: inf
ROOT
ATOM      1  C   UNL     1       8.462  -0.600  -2.167  1.00  0.00     0.127 C 
ENDROOT
BRANCH   1   2
ATOM      2  C   UNL     1       8.497  -1.878  -2.917  1.00  0.00     0.303 C 
ATOM      3  O   UNL     1       9.578  -2.488  -3.114  1.00  0.00    -0.252 OA
BRANCH   2   4
ATOM      4  O   UNL     1       7.335  -2.436  -3.424  1.00  0.00    -0.481 OA
ATOM      5  H   UNL     1       7.344  -3.408  -3.744  1.00  0.00     0.296 HD
ENDBRANCH   2   4
ENDBRANCH   1   2
BRANCH   1   6
ATOM      6  C   UNL     1       7.048  -0.107  -2.144  1.00  0.00     0.047 C 
BRANCH   6   7
ATOM      7  C   UNL     1       6.496   0.054  -0.799  1.00  0.00    -0.047 A 
ATOM      8  C   UNL     1       6.632  -0.942   0.140  1.00  0.00     0.004 A 
ATOM      9  C   UNL     1       5.839   1.219  -0.479  1.00  0.00     0.004 A 
ATOM     10  C   UNL     1       6.081  -0.719   1.404  1.00  0.00     0.000 A 
ATOM     11  C   UNL     1       5.295   1.437   0.772  1.00  0.00     0.000 A 
ATOM     12  C   UNL     1       5.425   0.445   1.718  1.00  0.00     0.000 A 
ENDBRANCH   6   7
ENDBRANCH   1   6
TORSDOF 4
ENDMDL
MODEL 2
REMARK VINA RESULT:      -7.4      0.102      1.440
REMARK SMILES O=C(O)CCc1ccccc1
REMARK SMILES IDX 4 1 2 2 1 3 3 4 5 6 6 7 7 8 11 9 8 10 10 11 9 12
REMARK H PARENT 3 5
REMARK Flexibility Score: inf
ROOT
ATOM      1  C   UNL     1       8.412  -0.695  -2.065  1.00  0.00     0.127 C 
ENDROOT
BRANCH   1   2
ATOM      2  C   UNL     1       8.453  -1.932  -2.879  1.00  0.00     0.303 C 
ATOM      3  O   UNL     1       9.537  -2.521  -3.115  1.00  0.00    -0.252 OA
BRANCH   2   4
ATOM      4  O   UNL     1       7.292  -2.476  -3.404  1.00  0.00    -0.481 OA
ATOM      5  H   UNL     1       6.578  -2.843  -2.768  1.00  0.00     0.296 HD
ENDBRANCH   2   4
ENDBRANCH   1   2
BRANCH   1   6
ATOM      6  C   UNL     1       7.008  -0.174  -2.071  1.00  0.00     0.047 C 
BRANCH   6   7
ATOM      7  C   UNL     1       6.448   0.043  -0.738  1.00  0.00    -0.047 A 
ATOM      8  C   UNL     1       5.827   1.229  -0.420  1.00  0.00     0.004 A 
ATOM      9  C   UNL     1       6.547  -0.956   0.202  1.00  0.00     0.004 A 
ATOM     10  C   UNL     1       5.315   1.366   0.872  1.00  0.00     0.000 A 
ATOM     11  C   UNL     1       6.041  -0.818   1.479  1.00  0.00     0.000 A 
ATOM     12  C   UNL     1       5.417   0.366   1.806  1.00  0.00     0.000 A 
ENDBRANCH   6   7
ENDBRANCH   1   6
TORSDOF 4
ENDMDL
MODEL 3
REMARK VINA RESULT:      -6.7      3.344      5.048
REMARK SMILES O=C(O)CCc1ccccc1
REMARK SMILES IDX 4 1 2 2 1 3 3 4 5 6 6 7 7 8 11 9 8 10 10 11 9 12
REMARK H PARENT 3 5
REMARK Flexibility Score: inf
ROOT
ATOM      1  C   UNL     1       5.057   1.698   0.698  1.00  0.00     0.127 C 
ENDROOT
BRANCH   1   2
ATOM      2  C   UNL     1       4.583   1.023   1.929  1.00  0.00     0.303 C 
ATOM      3  O   UNL     1       5.282   0.155   2.505  1.00  0.00    -0.252 OA
BRANCH   2   4
ATOM      4  O   UNL     1       3.349   1.334   2.478  1.00  0.00    -0.481 OA
ATOM      5  H   UNL     1       3.281   1.521   3.483  1.00  0.00     0.296 HD
ENDBRANCH   2   4
ENDBRANCH   1   2
BRANCH   1   6
ATOM      6  C   UNL     1       6.554   1.735   0.728  1.00  0.00     0.047 C 
BRANCH   6   7
ATOM      7  C   UNL     1       7.190   0.987  -0.356  1.00  0.00    -0.047 A 
ATOM      8  C   UNL     1       8.508   1.204  -0.681  1.00  0.00     0.004 A 
ATOM      9  C   UNL     1       6.452   0.057  -1.052  1.00  0.00     0.004 A 
ATOM     10  C   UNL     1       9.050   0.453  -1.727  1.00  0.00     0.000 A 
ATOM     11  C   UNL     1       6.989  -0.684  -2.086  1.00  0.00     0.000 A 
ATOM     12  C   UNL     1       8.310  -0.473  -2.418  1.00  0.00     0.000 A 
ENDBRANCH   6   7
ENDBRANCH   1   6
TORSDOF 4
ENDMDL
MODEL 4
REMARK VINA RESULT:      -6.7      3.827      4.931
REMARK SMILES O=C(O)CCc1ccccc1
REMARK SMILES IDX 4 1 2 2 1 3 3 4 5 6 6 7 7 8 11 9 8 10 10 11 9 12
REMARK H PARENT 3 5
REMARK Flexibility Score: inf
ROOT
ATOM      1  C   UNL     1       5.500   2.873   0.003  1.00  0.00     0.127 C 
ENDROOT
BRANCH   1   2
ATOM      2  C   UNL     1       6.271   3.849   0.809  1.00  0.00     0.303 C 
ATOM      3  O   UNL     1       6.922   4.773   0.262  1.00  0.00    -0.252 OA
BRANCH   2   4
ATOM      4  O   UNL     1       6.294   3.767   2.192  1.00  0.00    -0.481 OA
ATOM      5  H   UNL     1       5.980   2.906   2.648  1.00  0.00     0.296 HD
ENDBRANCH   2   4
ENDBRANCH   1   2
BRANCH   1   6
ATOM      6  C   UNL     1       4.969   1.817   0.925  1.00  0.00     0.047 C 
BRANCH   6   7
ATOM      7  C   UNL     1       5.775   0.598   0.959  1.00  0.00    -0.047 A 
ATOM      8  C   UNL     1       5.746  -0.234   2.054  1.00  0.00     0.004 A 
ATOM      9  C   UNL     1       6.566   0.286  -0.122  1.00  0.00     0.004 A 
ATOM     10  C   UNL     1       6.540  -1.382   2.018  1.00  0.00     0.000 A 
ATOM     11  C   UNL     1       7.351  -0.849  -0.156  1.00  0.00     0.000 A 
ATOM     12  C   UNL     1       7.329  -1.688   0.937  1.00  0.00     0.000 A 
ENDBRANCH   6   7
ENDBRANCH   1   6
TORSDOF 4
ENDMDL
MODEL 5
REMARK VINA RESULT:      -6.7      1.921      2.607
REMARK SMILES O=C(O)CCc1ccccc1
REMARK SMILES IDX 4 1 2 2 1 3 3 4 5 6 6 7 7 8 11 9 8 10 10 11 9 12
REMARK H PARENT 3 5
REMARK Flexibility Score: inf
ROOT
ATOM      1  C   UNL     1       8.129   0.303  -2.116  1.00  0.00     0.127 C 
ENDROOT
BRANCH   1   2
ATOM      2  C   UNL     1       9.312   0.383  -1.228  1.00  0.00     0.303 C 
ATOM      3  O   UNL     1       9.453  -0.403  -0.259  1.00  0.00    -0.252 OA
BRANCH   2   4
ATOM      4  O   UNL     1      10.298   1.332  -1.444  1.00  0.00    -0.481 OA
ATOM      5  H   UNL     1      10.733   1.402  -2.368  1.00  0.00     0.296 HD
ENDBRANCH   2   4
ENDBRANCH   1   2
BRANCH   1   6
ATOM      6  C   UNL     1       7.093  -0.546  -1.444  1.00  0.00     0.047 C 
BRANCH   6   7
ATOM      7  C   UNL     1       6.322   0.157  -0.419  1.00  0.00    -0.047 A 
ATOM      8  C   UNL     1       5.778   1.394  -0.674  1.00  0.00     0.004 A 
ATOM      9  C   UNL     1       6.143  -0.435   0.809  1.00  0.00     0.004 A 
ATOM     10  C   UNL     1       5.053   2.007   0.351  1.00  0.00     0.000 A 
ATOM     11  C   UNL     1       5.426   0.172   1.822  1.00  0.00     0.000 A 
ATOM     12  C   UNL     1       4.878   1.412   1.575  1.00  0.00     0.000 A 
ENDBRANCH   6   7
ENDBRANCH   1   6
TORSDOF 4
ENDMDL
