@<TRIPOS>MOLECULE
/home/cewinharhar/GITHUB/reincatalyze/data/processed/docking_pred/2023-Apr-26-1657_maxeplen10_maxtrainstep1000_exh32_gamma099_lrac9e-4_lrcr1e-3/287d700aa29cdd08db1558ad291e1b5912b75232_ligand_2.pdbqt
 12 12 0 0 0
SMALL
GASTEIGER

@<TRIPOS>ATOM
      1  C          5.0570    1.6980    0.6980 C.3     1  UNL1        0.1270
      2  C          4.5830    1.0230    1.9290 C.2     1  UNL1        0.3030
      3  O          5.2820    0.1550    2.5050 O.2     1  UNL1       -0.2520
      4  O          3.3490    1.3340    2.4780 O.3     1  UNL1       -0.4810
      5  H          3.2810    1.5210    3.4830 H       1  UNL1        0.2960
      6  C          6.5540    1.7350    0.7280 C.3     1  UNL1        0.0470
      7  C          7.1900    0.9870   -0.3560 C.2     1  UNL1       -0.0470
      8  C          8.5080    1.2040   -0.6810 C.2     1  UNL1        0.0040
      9  C          6.4520    0.0570   -1.0520 C.2     1  UNL1        0.0040
     10  C          9.0500    0.4530   -1.7270 C.2     1  UNL1        0.0000
     11  C          6.9890   -0.6840   -2.0860 C.2     1  UNL1        0.0000
     12  C          8.3100   -0.4730   -2.4180 C.2     1  UNL1        0.0000
@<TRIPOS>BOND
     1    12    11    2
     2    12    10    1
     3    11     9    1
     4    10     8    2
     5     9     7    2
     6     8     7    1
     7     7     6    1
     8     1     6    1
     9     1     2    1
    10     2     4    1
    11     2     3    2
    12     4     5    1
