@<TRIPOS>MOLECULE
/home/cewinharhar/GITHUB/reincatalyze/data/processed/docking_pred/2023-Apr-26-1657_maxeplen10_maxtrainstep1000_exh32_gamma099_lrac9e-4_lrcr1e-3/287d700aa29cdd08db1558ad291e1b5912b75232_ligand_2.pdbqt
 12 12 0 0 0
SMALL
GASTEIGER

@<TRIPOS>ATOM
      1  C          8.4620   -0.6000   -2.1670 C.3     1  UNL1        0.1270
      2  C          8.4970   -1.8780   -2.9170 C.2     1  UNL1        0.3030
      3  O          9.5780   -2.4880   -3.1140 O.2     1  UNL1       -0.2520
      4  O          7.3350   -2.4360   -3.4240 O.3     1  UNL1       -0.4810
      5  H          7.3440   -3.4080   -3.7440 H       1  UNL1        0.2960
      6  C          7.0480   -0.1070   -2.1440 C.3     1  UNL1        0.0470
      7  C          6.4960    0.0540   -0.7990 C.2     1  UNL1       -0.0470
      8  C          6.6320   -0.9420    0.1400 C.2     1  UNL1        0.0040
      9  C          5.8390    1.2190   -0.4790 C.2     1  UNL1        0.0040
     10  C          6.0810   -0.7190    1.4040 C.2     1  UNL1        0.0000
     11  C          5.2950    1.4370    0.7720 C.2     1  UNL1        0.0000
     12  C          5.4250    0.4450    1.7180 C.2     1  UNL1        0.0000
@<TRIPOS>BOND
     1     5     4    1
     2     4     2    1
     3     3     2    2
     4     2     1    1
     5     1     6    1
     6     6     7    1
     7     7     9    2
     8     7     8    1
     9     9    11    1
    10     8    10    2
    11    11    12    2
    12    10    12    1
