@<TRIPOS>MOLECULE
/home/cewinharhar/GITHUB/reincatalyze/data/processed/docking_pred/2023-Apr-26-1657_maxeplen10_maxtrainstep1000_exh32_gamma099_lrac9e-4_lrcr1e-3/287d700aa29cdd08db1558ad291e1b5912b75232_ligand_2.pdbqt
 12 12 0 0 0
SMALL
GASTEIGER

@<TRIPOS>ATOM
      1  C          8.1290    0.3030   -2.1160 C.3     1  UNL1        0.1270
      2  C          9.3120    0.3830   -1.2280 C.2     1  UNL1        0.3030
      3  O          9.4530   -0.4030   -0.2590 O.2     1  UNL1       -0.2520
      4  O         10.2980    1.3320   -1.4440 O.3     1  UNL1       -0.4810
      5  H         10.7330    1.4020   -2.3680 H       1  UNL1        0.2960
      6  C          7.0930   -0.5460   -1.4440 C.3     1  UNL1        0.0470
      7  C          6.3220    0.1570   -0.4190 C.2     1  UNL1       -0.0470
      8  C          5.7780    1.3940   -0.6740 C.2     1  UNL1        0.0040
      9  C          6.1430   -0.4350    0.8090 C.2     1  UNL1        0.0040
     10  C          5.0530    2.0070    0.3510 C.2     1  UNL1        0.0000
     11  C          5.4260    0.1720    1.8220 C.2     1  UNL1        0.0000
     12  C          4.8780    1.4120    1.5750 C.2     1  UNL1        0.0000
@<TRIPOS>BOND
     1     5     4    1
     2     1     6    1
     3     1     2    1
     4     4     2    1
     5     6     7    1
     6     2     3    2
     7     8     7    2
     8     8    10    1
     9     7     9    1
    10    10    12    2
    11     9    11    2
    12    12    11    1
