@<TRIPOS>MOLECULE
/home/cewinharhar/GITHUB/reincatalyze/data/processed/docking_pred/2023-Apr-26-1657_maxeplen10_maxtrainstep1000_exh32_gamma099_lrac9e-4_lrcr1e-3/287d700aa29cdd08db1558ad291e1b5912b75232_ligand_2.pdbqt
 12 12 0 0 0
SMALL
GASTEIGER

@<TRIPOS>ATOM
      1  C          5.5000    2.8730    0.0030 C.3     1  UNL1        0.1270
      2  C          6.2710    3.8490    0.8090 C.2     1  UNL1        0.3030
      3  O          6.9220    4.7730    0.2620 O.2     1  UNL1       -0.2520
      4  O          6.2940    3.7670    2.1920 O.3     1  UNL1       -0.4810
      5  H          5.9800    2.9060    2.6480 H       1  UNL1        0.2960
      6  C          4.9690    1.8170    0.9250 C.3     1  UNL1        0.0470
      7  C          5.7750    0.5980    0.9590 C.2     1  UNL1       -0.0470
      8  C          5.7460   -0.2340    2.0540 C.2     1  UNL1        0.0040
      9  C          6.5660    0.2860   -0.1220 C.2     1  UNL1        0.0040
     10  C          6.5400   -1.3820    2.0180 C.2     1  UNL1        0.0000
     11  C          7.3510   -0.8490   -0.1560 C.2     1  UNL1        0.0000
     12  C          7.3290   -1.6880    0.9370 C.2     1  UNL1        0.0000
@<TRIPOS>BOND
     1    11     9    1
     2    11    12    2
     3     9     7    2
     4     1     2    1
     5     1     6    1
     6     3     2    2
     7     2     4    1
     8     6     7    1
     9    12    10    1
    10     7     8    1
    11    10     8    2
    12     4     5    1
