@<TRIPOS>MOLECULE
/home/cewinharhar/GITHUB/reincatalyze/data/processed/docking_pred/2023-Apr-26-1657_maxeplen10_maxtrainstep1000_exh32_gamma099_lrac9e-4_lrcr1e-3/2b606219d5526e18d91eeb9dfd7a568ae4147191_ligand_2.pdbqt
 12 12 0 0 0
SMALL
GASTEIGER

@<TRIPOS>ATOM
      1  C          5.0190    1.7760    0.6750 C.3     1  UNL1        0.1270
      2  C          4.5050    1.1100    1.8960 C.2     1  UNL1        0.3030
      3  O          5.1650    0.2120    2.4740 O.2     1  UNL1       -0.2520
      4  O          3.2780    1.4630    2.4330 O.3     1  UNL1       -0.4810
      5  H          3.2350    2.1990    3.1440 H       1  UNL1        0.2960
      6  C          6.5160    1.7810    0.7370 C.3     1  UNL1        0.0470
      7  C          7.1580    1.0250   -0.3370 C.2     1  UNL1       -0.0470
      8  C          8.4770    1.2450   -0.6600 C.2     1  UNL1        0.0040
      9  C          6.4280    0.0840   -1.0240 C.2     1  UNL1        0.0040
     10  C          9.0260    0.4860   -1.6970 C.2     1  UNL1        0.0000
     11  C          6.9720   -0.6660   -2.0490 C.2     1  UNL1        0.0000
     12  C          8.2920   -0.4510   -2.3800 C.2     1  UNL1        0.0000
@<TRIPOS>BOND
     1    12    11    2
     2    12    10    1
     3    11     9    1
     4    10     8    2
     5     9     7    2
     6     8     7    1
     7     7     6    1
     8     1     6    1
     9     1     2    1
    10     2     4    1
    11     2     3    2
    12     4     5    1
