@<TRIPOS>MOLECULE
/home/cewinharhar/GITHUB/reincatalyze/data/processed/docking_pred/2023-Apr-26-1657_maxeplen10_maxtrainstep1000_exh32_gamma099_lrac9e-4_lrcr1e-3/2b606219d5526e18d91eeb9dfd7a568ae4147191_ligand_2.pdbqt
 12 12 0 0 0
SMALL
GASTEIGER

@<TRIPOS>ATOM
      1  C          8.3060   -0.9290   -1.8400 C.3     1  UNL1        0.1270
      2  C          8.4380   -2.0140   -2.8420 C.2     1  UNL1        0.3030
      3  O          9.5510   -2.5450   -3.0820 O.2     1  UNL1       -0.2520
      4  O          7.3340   -2.4710   -3.5430 O.3     1  UNL1       -0.4810
      5  H          6.9440   -3.3910   -3.3180 H       1  UNL1        0.2960
      6  C          7.3550   -1.3850   -0.7760 C.3     1  UNL1        0.0470
      7  C          6.5480   -0.3110   -0.2000 C.2     1  UNL1       -0.0470
      8  C          6.2020    0.7890   -0.9510 C.2     1  UNL1        0.0040
      9  C          6.1320   -0.4110    1.1070 C.2     1  UNL1        0.0040
     10  C          5.4290    1.7760   -0.3360 C.2     1  UNL1        0.0000
     11  C          5.3670    0.5660    1.7140 C.2     1  UNL1        0.0000
     12  C          5.0180    1.6720    0.9690 C.2     1  UNL1        0.0000
@<TRIPOS>BOND
     1     4     5    1
     2     4     2    1
     3     3     2    2
     4     2     1    1
     5     1     6    1
     6     8    10    1
     7     8     7    2
     8     6     7    1
     9    10    12    2
    10     7     9    1
    11    12    11    1
    12     9    11    2
