@<TRIPOS>MOLECULE
/home/cewinharhar/GITHUB/reincatalyze/data/processed/docking_pred/2023-Apr-26-1657_maxeplen10_maxtrainstep1000_exh32_gamma099_lrac9e-4_lrcr1e-3/2b606219d5526e18d91eeb9dfd7a568ae4147191_ligand_2.pdbqt
 12 12 0 0 0
SMALL
GASTEIGER

@<TRIPOS>ATOM
      1  C          8.1570    0.3180   -2.0670 C.3     1  UNL1        0.1270
      2  C          9.3460    0.3800   -1.1840 C.2     1  UNL1        0.3030
      3  O          9.4680   -0.3930   -0.2020 O.2     1  UNL1       -0.2520
      4  O         10.3590    1.2950   -1.4210 O.3     1  UNL1       -0.4810
      5  H         11.3060    0.9560   -1.6090 H       1  UNL1        0.2960
      6  C          7.1330   -0.5620   -1.4170 C.3     1  UNL1        0.0470
      7  C          6.3470    0.1060   -0.3810 C.2     1  UNL1       -0.0470
      8  C          6.1560   -0.4840    0.8470 C.2     1  UNL1        0.0040
      9  C          5.7970    1.3390   -0.6460 C.2     1  UNL1        0.0040
     10  C          5.3940    0.2120    1.7890 C.2     1  UNL1        0.0000
     11  C          5.0440    2.0250    0.2860 C.2     1  UNL1        0.0000
     12  C          4.8470    1.4410    1.5180 C.2     1  UNL1        0.0000
@<TRIPOS>BOND
     1     1     6    1
     2     1     2    1
     3     5     4    1
     4     4     2    1
     5     6     7    1
     6     2     3    2
     7     9     7    2
     8     9    11    1
     9     7     8    1
    10    11    12    2
    11     8    10    2
    12    12    10    1
