@<TRIPOS>MOLECULE
/home/cewinharhar/GITHUB/reincatalyze/data/processed/docking_pred/2023-Apr-26-1657_maxeplen10_maxtrainstep1000_exh32_gamma099_lrac9e-4_lrcr1e-3/2b606219d5526e18d91eeb9dfd7a568ae4147191_ligand_2.pdbqt
 12 12 0 0 0
SMALL
GASTEIGER

@<TRIPOS>ATOM
      1  C          8.4170   -0.6320   -2.1110 C.3     1  UNL1        0.1270
      2  C          8.3740   -1.8920   -2.8910 C.2     1  UNL1        0.3030
      3  O          7.2820   -2.4020   -3.2430 O.2     1  UNL1       -0.2520
      4  O          9.5420   -2.5430   -3.2530 O.3     1  UNL1       -0.4810
      5  H         10.4160   -2.3070   -2.7750 H       1  UNL1        0.2960
      6  C          7.0400   -0.0420   -2.0930 C.3     1  UNL1        0.0470
      7  C          6.4740    0.1050   -0.7530 C.2     1  UNL1       -0.0470
      8  C          5.8160    1.2570   -0.3910 C.2     1  UNL1        0.0040
      9  C          6.6050   -0.9260    0.1480 C.2     1  UNL1        0.0040
     10  C          5.2990    1.3280    0.9050 C.2     1  UNL1        0.0000
     11  C          6.0940   -0.8540    1.4290 C.2     1  UNL1        0.0000
     12  C          5.4340    0.2970    1.8000 C.2     1  UNL1        0.0000
@<TRIPOS>BOND
     1     4     2    1
     2     4     5    1
     3     3     2    2
     4     2     1    1
     5     1     6    1
     6     6     7    1
     7     7     8    2
     8     7     9    1
     9     8    10    1
    10     9    11    2
    11    10    12    2
    12    11    12    1
