MODEL 1
REMARK VINA RESULT:      -7.3      0.000      0.000
REMARK SMILES O=C(O)CCc1ccccc1
REMARK SMILES IDX 4 1 2 2 1 3 3 4 5 6 6 7 7 8 11 9 8 10 10 11 9 12
REMARK H PARENT 3 5
REMARK Flexibility Score: inf
ROOT
ATOM      1  C   UNL     1       8.466  -0.667  -2.080  1.00  0.00     0.127 C 
ENDROOT
BRANCH   1   2
ATOM      2  C   UNL     1       8.479  -1.924  -2.864  1.00  0.00     0.303 C 
ATOM      3  O   UNL     1       9.543  -2.567  -3.046  1.00  0.00    -0.252 OA
BRANCH   2   4
ATOM      4  O   UNL     1       7.314  -2.427  -3.420  1.00  0.00    -0.481 OA
ATOM      5  H   UNL     1       7.274  -3.412  -3.695  1.00  0.00     0.296 HD
ENDBRANCH   2   4
ENDBRANCH   1   2
BRANCH   1   6
ATOM      6  C   UNL     1       7.069  -0.125  -2.083  1.00  0.00     0.047 C 
BRANCH   6   7
ATOM      7  C   UNL     1       6.490   0.033  -0.749  1.00  0.00    -0.047 A 
ATOM      8  C   UNL     1       6.588  -0.973   0.184  1.00  0.00     0.004 A 
ATOM      9  C   UNL     1       5.844   1.205  -0.433  1.00  0.00     0.004 A 
ATOM     10  C   UNL     1       6.013  -0.753   1.437  1.00  0.00     0.000 A 
ATOM     11  C   UNL     1       5.276   1.421   0.807  1.00  0.00     0.000 A 
ATOM     12  C   UNL     1       5.369   0.418   1.747  1.00  0.00     0.000 A 
ENDBRANCH   6   7
ENDBRANCH   1   6
TORSDOF 4
ENDMDL
MODEL 2
REMARK VINA RESULT:      -7.2      0.125      1.731
REMARK SMILES O=C(O)CCc1ccccc1
REMARK SMILES IDX 4 1 2 2 1 3 3 4 5 6 6 7 7 8 11 9 8 10 10 11 9 12
REMARK H PARENT 3 5
REMARK Flexibility Score: inf
ROOT
ATOM      1  C   UNL     1       8.417  -0.632  -2.111  1.00  0.00     0.127 C 
ENDROOT
BRANCH   1   2
ATOM      2  C   UNL     1       8.374  -1.892  -2.891  1.00  0.00     0.303 C 
ATOM      3  O   UNL     1       7.282  -2.402  -3.243  1.00  0.00    -0.252 OA
BRANCH   2   4
ATOM      4  O   UNL     1       9.542  -2.543  -3.253  1.00  0.00    -0.481 OA
ATOM      5  H   UNL     1      10.416  -2.307  -2.775  1.00  0.00     0.296 HD
ENDBRANCH   2   4
ENDBRANCH   1   2
BRANCH   1   6
ATOM      6  C   UNL     1       7.040  -0.042  -2.093  1.00  0.00     0.047 C 
BRANCH   6   7
ATOM      7  C   UNL     1       6.474   0.105  -0.753  1.00  0.00    -0.047 A 
ATOM      8  C   UNL     1       5.816   1.257  -0.391  1.00  0.00     0.004 A 
ATOM      9  C   UNL     1       6.605  -0.926   0.148  1.00  0.00     0.004 A 
ATOM     10  C   UNL     1       5.299   1.328   0.905  1.00  0.00     0.000 A 
ATOM     11  C   UNL     1       6.094  -0.854   1.429  1.00  0.00     0.000 A 
ATOM     12  C   UNL     1       5.434   0.297   1.800  1.00  0.00     0.000 A 
ENDBRANCH   6   7
ENDBRANCH   1   6
TORSDOF 4
ENDMDL
MODEL 3
REMARK VINA RESULT:      -7.2      0.629      1.576
REMARK SMILES O=C(O)CCc1ccccc1
REMARK SMILES IDX 4 1 2 2 1 3 3 4 5 6 6 7 7 8 11 9 8 10 10 11 9 12
REMARK H PARENT 3 5
REMARK Flexibility Score: inf
ROOT
ATOM      1  C   UNL     1       8.306  -0.929  -1.840  1.00  0.00     0.127 C 
ENDROOT
BRANCH   1   2
ATOM      2  C   UNL     1       8.438  -2.014  -2.842  1.00  0.00     0.303 C 
ATOM      3  O   UNL     1       9.551  -2.545  -3.082  1.00  0.00    -0.252 OA
BRANCH   2   4
ATOM      4  O   UNL     1       7.334  -2.471  -3.543  1.00  0.00    -0.481 OA
ATOM      5  H   UNL     1       6.944  -3.391  -3.318  1.00  0.00     0.296 HD
ENDBRANCH   2   4
ENDBRANCH   1   2
BRANCH   1   6
ATOM      6  C   UNL     1       7.355  -1.385  -0.776  1.00  0.00     0.047 C 
BRANCH   6   7
ATOM      7  C   UNL     1       6.548  -0.311  -0.200  1.00  0.00    -0.047 A 
ATOM      8  C   UNL     1       6.202   0.789  -0.951  1.00  0.00     0.004 A 
ATOM      9  C   UNL     1       6.132  -0.411   1.107  1.00  0.00     0.004 A 
ATOM     10  C   UNL     1       5.429   1.776  -0.336  1.00  0.00     0.000 A 
ATOM     11  C   UNL     1       5.367   0.566   1.714  1.00  0.00     0.000 A 
ATOM     12  C   UNL     1       5.018   1.672   0.969  1.00  0.00     0.000 A 
ENDBRANCH   6   7
ENDBRANCH   1   6
TORSDOF 4
ENDMDL
MODEL 4
REMARK VINA RESULT:      -6.7      3.364      5.072
REMARK SMILES O=C(O)CCc1ccccc1
REMARK SMILES IDX 4 1 2 2 1 3 3 4 5 6 6 7 7 8 11 9 8 10 10 11 9 12
REMARK H PARENT 3 5
REMARK Flexibility Score: inf
ROOT
ATOM      1  C   UNL     1       5.019   1.776   0.675  1.00  0.00     0.127 C 
ENDROOT
BRANCH   1   2
ATOM      2  C   UNL     1       4.505   1.110   1.896  1.00  0.00     0.303 C 
ATOM      3  O   UNL     1       5.165   0.212   2.474  1.00  0.00    -0.252 OA
BRANCH   2   4
ATOM      4  O   UNL     1       3.278   1.463   2.433  1.00  0.00    -0.481 OA
ATOM      5  H   UNL     1       3.235   2.199   3.144  1.00  0.00     0.296 HD
ENDBRANCH   2   4
ENDBRANCH   1   2
BRANCH   1   6
ATOM      6  C   UNL     1       6.516   1.781   0.737  1.00  0.00     0.047 C 
BRANCH   6   7
ATOM      7  C   UNL     1       7.158   1.025  -0.337  1.00  0.00    -0.047 A 
ATOM      8  C   UNL     1       8.477   1.245  -0.660  1.00  0.00     0.004 A 
ATOM      9  C   UNL     1       6.428   0.084  -1.024  1.00  0.00     0.004 A 
ATOM     10  C   UNL     1       9.026   0.486  -1.697  1.00  0.00     0.000 A 
ATOM     11  C   UNL     1       6.972  -0.666  -2.049  1.00  0.00     0.000 A 
ATOM     12  C   UNL     1       8.292  -0.451  -2.380  1.00  0.00     0.000 A 
ENDBRANCH   6   7
ENDBRANCH   1   6
TORSDOF 4
ENDMDL
MODEL 5
REMARK VINA RESULT:      -6.6      1.947      2.238
REMARK SMILES O=C(O)CCc1ccccc1
REMARK SMILES IDX 4 1 2 2 1 3 3 4 5 6 6 7 7 8 11 9 8 10 10 11 9 12
REMARK H PARENT 3 5
REMARK Flexibility Score: inf
ROOT
ATOM      1  C   UNL     1       8.157   0.318  -2.067  1.00  0.00     0.127 C 
ENDROOT
BRANCH   1   2
ATOM      2  C   UNL     1       9.346   0.380  -1.184  1.00  0.00     0.303 C 
ATOM      3  O   UNL     1       9.468  -0.393  -0.202  1.00  0.00    -0.252 OA
BRANCH   2   4
ATOM      4  O   UNL     1      10.359   1.295  -1.421  1.00  0.00    -0.481 OA
ATOM      5  H   UNL     1      11.306   0.956  -1.609  1.00  0.00     0.296 HD
ENDBRANCH   2   4
ENDBRANCH   1   2
BRANCH   1   6
ATOM      6  C   UNL     1       7.133  -0.562  -1.417  1.00  0.00     0.047 C 
BRANCH   6   7
ATOM      7  C   UNL     1       6.347   0.106  -0.381  1.00  0.00    -0.047 A 
ATOM      8  C   UNL     1       6.156  -0.484   0.847  1.00  0.00     0.004 A 
ATOM      9  C   UNL     1       5.797   1.339  -0.646  1.00  0.00     0.004 A 
ATOM     10  C   UNL     1       5.394   0.212   1.789  1.00  0.00     0.000 A 
ATOM     11  C   UNL     1       5.044   2.025   0.286  1.00  0.00     0.000 A 
ATOM     12  C   UNL     1       4.847   1.441   1.518  1.00  0.00     0.000 A 
ENDBRANCH   6   7
ENDBRANCH   1   6
TORSDOF 4
ENDMDL
