@<TRIPOS>MOLECULE
/home/cewinharhar/GITHUB/reincatalyze/data/processed/docking_pred/2023-Apr-26-1657_maxeplen10_maxtrainstep1000_exh32_gamma099_lrac9e-4_lrcr1e-3/2b611616233e02901686b2fc0a6dd8ec9c570ff2_ligand_2.pdbqt
 12 12 0 0 0
SMALL
GASTEIGER

@<TRIPOS>ATOM
      1  C          8.4950   -0.6120   -2.1580 C.3     1  UNL1        0.1270
      2  C          8.5120   -1.8910   -2.9050 C.2     1  UNL1        0.3030
      3  O          9.5850   -2.5110   -3.1100 O.2     1  UNL1       -0.2520
      4  O          7.3400   -2.4410   -3.3990 O.3     1  UNL1       -0.4810
      5  H          7.3840   -3.3050   -3.9460 H       1  UNL1        0.2960
      6  C          7.0900   -0.0920   -2.1480 C.3     1  UNL1        0.0470
      7  C          6.5200    0.0560   -0.8100 C.2     1  UNL1       -0.0470
      8  C          6.6490   -0.9460    0.1240 C.2     1  UNL1        0.0040
      9  C          5.8520    1.2150   -0.4890 C.2     1  UNL1        0.0040
     10  C          6.0810   -0.7360    1.3830 C.2     1  UNL1        0.0000
     11  C          5.2910    1.4210    0.7560 C.2     1  UNL1        0.0000
     12  C          5.4150    0.4220    1.6970 C.2     1  UNL1        0.0000
@<TRIPOS>BOND
     1     5     4    1
     2     4     2    1
     3     3     2    2
     4     2     1    1
     5     1     6    1
     6     6     7    1
     7     7     9    2
     8     7     8    1
     9     9    11    1
    10     8    10    2
    11    11    12    2
    12    10    12    1
