@<TRIPOS>MOLECULE
/home/cewinharhar/GITHUB/reincatalyze/data/processed/docking_pred/2023-Apr-26-1657_maxeplen10_maxtrainstep1000_exh32_gamma099_lrac9e-4_lrcr1e-3/2b611616233e02901686b2fc0a6dd8ec9c570ff2_ligand_2.pdbqt
 12 12 0 0 0
SMALL
GASTEIGER

@<TRIPOS>ATOM
      1  C          8.1650   -1.6400    1.1900 C.3     1  UNL1        0.1270
      2  C          8.5010   -2.8280    0.3700 C.2     1  UNL1        0.3030
      3  O          9.1890   -3.7690    0.8380 O.2     1  UNL1       -0.2520
      4  O          8.0620   -2.9330   -0.9400 O.3     1  UNL1       -0.4810
      5  H          8.4780   -3.6410   -1.5520 H       1  UNL1        0.2960
      6  C          6.6730   -1.5300    1.2710 C.3     1  UNL1        0.0470
      7  C          6.1450   -0.2530    0.7950 C.2     1  UNL1       -0.0470
      8  C          5.4120    0.5600    1.6290 C.2     1  UNL1        0.0040
      9  C          6.3900    0.1330   -0.5020 C.2     1  UNL1        0.0040
     10  C          4.9390    1.7660    1.1070 C.2     1  UNL1        0.0000
     11  C          5.9220    1.3260   -1.0170 C.2     1  UNL1        0.0000
     12  C          5.1860    2.1450   -0.1880 C.2     1  UNL1        0.0000
@<TRIPOS>BOND
     1     5     4    1
     2    11     9    1
     3    11    12    2
     4     4     2    1
     5     9     7    2
     6    12    10    1
     7     2     3    2
     8     2     1    1
     9     7     6    1
    10     7     8    1
    11    10     8    2
    12     1     6    1
