@<TRIPOS>MOLECULE
/home/cewinharhar/GITHUB/reincatalyze/data/processed/docking_pred/2023-Apr-26-1657_maxeplen10_maxtrainstep1000_exh32_gamma099_lrac9e-4_lrcr1e-3/2b611616233e02901686b2fc0a6dd8ec9c570ff2_ligand_2.pdbqt
 12 12 0 0 0
SMALL
GASTEIGER

@<TRIPOS>ATOM
      1  C          8.4620   -0.6460   -2.1020 C.3     1  UNL1        0.1270
      2  C          8.4840   -1.9030   -2.8870 C.2     1  UNL1        0.3030
      3  O          9.5540   -2.5330   -3.0750 O.2     1  UNL1       -0.2520
      4  O          7.3210   -2.4180   -3.4360 O.3     1  UNL1       -0.4810
      5  H          7.1230   -3.4180   -3.3420 H       1  UNL1        0.2960
      6  C          7.0630   -0.1090   -2.1140 C.3     1  UNL1        0.0470
      7  C          6.4810    0.0650   -0.7840 C.2     1  UNL1       -0.0470
      8  C          5.8310    1.2290   -0.4480 C.2     1  UNL1        0.0040
      9  C          6.5890   -0.9530    0.1340 C.2     1  UNL1        0.0040
     10  C          5.2990    1.3260    0.8400 C.2     1  UNL1        0.0000
     11  C          6.0630   -0.8560    1.4070 C.2     1  UNL1        0.0000
     12  C          5.4100    0.3070    1.7520 C.2     1  UNL1        0.0000
@<TRIPOS>BOND
     1     4     5    1
     2     4     2    1
     3     3     2    2
     4     2     1    1
     5     6     1    1
     6     6     7    1
     7     7     8    2
     8     7     9    1
     9     8    10    1
    10     9    11    2
    11    10    12    2
    12    11    12    1
