@<TRIPOS>MOLECULE
/home/cewinharhar/GITHUB/reincatalyze/data/processed/docking_pred/2023-Apr-26-1657_maxeplen10_maxtrainstep1000_exh32_gamma099_lrac9e-4_lrcr1e-3/2b611616233e02901686b2fc0a6dd8ec9c570ff2_ligand_2.pdbqt
 12 12 0 0 0
SMALL
GASTEIGER

@<TRIPOS>ATOM
      1  C          5.6430    2.9130   -0.0680 C.3     1  UNL1        0.1270
      2  C          6.3420    3.8360    0.8580 C.2     1  UNL1        0.3030
      3  O          6.1380    3.7940    2.0960 O.2     1  UNL1       -0.2520
      4  O          7.2430    4.7740    0.3790 O.3     1  UNL1       -0.4810
      5  H          7.7240    5.3890    1.0410 H       1  UNL1        0.2960
      6  C          4.9590    1.8580    0.7470 C.3     1  UNL1        0.0470
      7  C          5.7120    0.6110    0.8580 C.2     1  UNL1       -0.0470
      8  C          6.3320    0.0640   -0.2420 C.2     1  UNL1        0.0040
      9  C          5.7980   -0.0150    2.0800 C.2     1  UNL1        0.0040
     10  C          7.0360   -1.1290   -0.0620 C.2     1  UNL1        0.0000
     11  C          6.4940   -1.1950    2.2550 C.2     1  UNL1        0.0000
     12  C          7.1180   -1.7500    1.1590 C.2     1  UNL1        0.0000
@<TRIPOS>BOND
     1     8    10    1
     2     8     7    2
     3     1     6    1
     4     1     2    1
     5    10    12    2
     6     4     2    1
     7     4     5    1
     8     6     7    1
     9     2     3    2
    10     7     9    1
    11    12    11    1
    12     9    11    2
