MODEL 1
REMARK VINA RESULT:      -7.4      0.000      0.000
REMARK SMILES O=C(O)CCc1ccccc1
REMARK SMILES IDX 4 1 2 2 1 3 3 4 5 6 6 7 7 8 11 9 8 10 10 11 9 12
REMARK H PARENT 3 5
REMARK Flexibility Score: inf
ROOT
ATOM      1  C   UNL     1       8.495  -0.612  -2.158  1.00  0.00     0.127 C 
ENDROOT
BRANCH   1   2
ATOM      2  C   UNL     1       8.512  -1.891  -2.905  1.00  0.00     0.303 C 
ATOM      3  O   UNL     1       9.585  -2.511  -3.110  1.00  0.00    -0.252 OA
BRANCH   2   4
ATOM      4  O   UNL     1       7.340  -2.441  -3.399  1.00  0.00    -0.481 OA
ATOM      5  H   UNL     1       7.384  -3.305  -3.946  1.00  0.00     0.296 HD
ENDBRANCH   2   4
ENDBRANCH   1   2
BRANCH   1   6
ATOM      6  C   UNL     1       7.090  -0.092  -2.148  1.00  0.00     0.047 C 
BRANCH   6   7
ATOM      7  C   UNL     1       6.520   0.056  -0.810  1.00  0.00    -0.047 A 
ATOM      8  C   UNL     1       6.649  -0.946   0.124  1.00  0.00     0.004 A 
ATOM      9  C   UNL     1       5.852   1.215  -0.489  1.00  0.00     0.004 A 
ATOM     10  C   UNL     1       6.081  -0.736   1.383  1.00  0.00     0.000 A 
ATOM     11  C   UNL     1       5.291   1.421   0.756  1.00  0.00     0.000 A 
ATOM     12  C   UNL     1       5.415   0.422   1.697  1.00  0.00     0.000 A 
ENDBRANCH   6   7
ENDBRANCH   1   6
TORSDOF 4
ENDMDL
MODEL 2
REMARK VINA RESULT:      -7.4      0.080      1.438
REMARK SMILES O=C(O)CCc1ccccc1
REMARK SMILES IDX 4 1 2 2 1 3 3 4 5 6 6 7 7 8 11 9 8 10 10 11 9 12
REMARK H PARENT 3 5
REMARK Flexibility Score: inf
ROOT
ATOM      1  C   UNL     1       8.462  -0.646  -2.102  1.00  0.00     0.127 C 
ENDROOT
BRANCH   1   2
ATOM      2  C   UNL     1       8.484  -1.903  -2.887  1.00  0.00     0.303 C 
ATOM      3  O   UNL     1       9.554  -2.533  -3.075  1.00  0.00    -0.252 OA
BRANCH   2   4
ATOM      4  O   UNL     1       7.321  -2.418  -3.436  1.00  0.00    -0.481 OA
ATOM      5  H   UNL     1       7.123  -3.418  -3.342  1.00  0.00     0.296 HD
ENDBRANCH   2   4
ENDBRANCH   1   2
BRANCH   1   6
ATOM      6  C   UNL     1       7.063  -0.109  -2.114  1.00  0.00     0.047 C 
BRANCH   6   7
ATOM      7  C   UNL     1       6.481   0.065  -0.784  1.00  0.00    -0.047 A 
ATOM      8  C   UNL     1       5.831   1.229  -0.448  1.00  0.00     0.004 A 
ATOM      9  C   UNL     1       6.589  -0.953   0.134  1.00  0.00     0.004 A 
ATOM     10  C   UNL     1       5.299   1.326   0.840  1.00  0.00     0.000 A 
ATOM     11  C   UNL     1       6.063  -0.856   1.407  1.00  0.00     0.000 A 
ATOM     12  C   UNL     1       5.410   0.307   1.752  1.00  0.00     0.000 A 
ENDBRANCH   6   7
ENDBRANCH   1   6
TORSDOF 4
ENDMDL
MODEL 3
REMARK VINA RESULT:      -6.8      3.361      5.069
REMARK SMILES O=C(O)CCc1ccccc1
REMARK SMILES IDX 4 1 2 2 1 3 3 4 5 6 6 7 7 8 11 9 8 10 10 11 9 12
REMARK H PARENT 3 5
REMARK Flexibility Score: inf
ROOT
ATOM      1  C   UNL     1       5.010   1.764   0.673  1.00  0.00     0.127 C 
ENDROOT
BRANCH   1   2
ATOM      2  C   UNL     1       4.494   1.101   1.894  1.00  0.00     0.303 C 
ATOM      3  O   UNL     1       5.146   0.194   2.467  1.00  0.00    -0.252 OA
BRANCH   2   4
ATOM      4  O   UNL     1       3.272   1.465   2.436  1.00  0.00    -0.481 OA
ATOM      5  H   UNL     1       2.663   0.742   2.830  1.00  0.00     0.296 HD
ENDBRANCH   2   4
ENDBRANCH   1   2
BRANCH   1   6
ATOM      6  C   UNL     1       6.507   1.772   0.739  1.00  0.00     0.047 C 
BRANCH   6   7
ATOM      7  C   UNL     1       7.154   1.025  -0.338  1.00  0.00    -0.047 A 
ATOM      8  C   UNL     1       8.476   1.241  -0.649  1.00  0.00     0.004 A 
ATOM      9  C   UNL     1       6.424   0.096  -1.043  1.00  0.00     0.004 A 
ATOM     10  C   UNL     1       9.029   0.491  -1.690  1.00  0.00     0.000 A 
ATOM     11  C   UNL     1       6.971  -0.645  -2.072  1.00  0.00     0.000 A 
ATOM     12  C   UNL     1       8.296  -0.434  -2.390  1.00  0.00     0.000 A 
ENDBRANCH   6   7
ENDBRANCH   1   6
TORSDOF 4
ENDMDL
MODEL 4
REMARK VINA RESULT:      -6.6      3.850      4.983
REMARK SMILES O=C(O)CCc1ccccc1
REMARK SMILES IDX 4 1 2 2 1 3 3 4 5 6 6 7 7 8 11 9 8 10 10 11 9 12
REMARK H PARENT 3 5
REMARK Flexibility Score: inf
ROOT
ATOM      1  C   UNL     1       5.643   2.913  -0.068  1.00  0.00     0.127 C 
ENDROOT
BRANCH   1   2
ATOM      2  C   UNL     1       6.342   3.836   0.858  1.00  0.00     0.303 C 
ATOM      3  O   UNL     1       6.138   3.794   2.096  1.00  0.00    -0.252 OA
BRANCH   2   4
ATOM      4  O   UNL     1       7.243   4.774   0.379  1.00  0.00    -0.481 OA
ATOM      5  H   UNL     1       7.724   5.389   1.041  1.00  0.00     0.296 HD
ENDBRANCH   2   4
ENDBRANCH   1   2
BRANCH   1   6
ATOM      6  C   UNL     1       4.959   1.858   0.747  1.00  0.00     0.047 C 
BRANCH   6   7
ATOM      7  C   UNL     1       5.712   0.611   0.858  1.00  0.00    -0.047 A 
ATOM      8  C   UNL     1       6.332   0.064  -0.242  1.00  0.00     0.004 A 
ATOM      9  C   UNL     1       5.798  -0.015   2.080  1.00  0.00     0.004 A 
ATOM     10  C   UNL     1       7.036  -1.129  -0.062  1.00  0.00     0.000 A 
ATOM     11  C   UNL     1       6.494  -1.195   2.255  1.00  0.00     0.000 A 
ATOM     12  C   UNL     1       7.118  -1.750   1.159  1.00  0.00     0.000 A 
ENDBRANCH   6   7
ENDBRANCH   1   6
TORSDOF 4
ENDMDL
MODEL 5
REMARK VINA RESULT:      -6.5      1.887      2.863
REMARK SMILES O=C(O)CCc1ccccc1
REMARK SMILES IDX 4 1 2 2 1 3 3 4 5 6 6 7 7 8 11 9 8 10 10 11 9 12
REMARK H PARENT 3 5
REMARK Flexibility Score: inf
ROOT
ATOM      1  C   UNL     1       8.165  -1.640   1.190  1.00  0.00     0.127 C 
ENDROOT
BRANCH   1   2
ATOM      2  C   UNL     1       8.501  -2.828   0.370  1.00  0.00     0.303 C 
ATOM      3  O   UNL     1       9.189  -3.769   0.838  1.00  0.00    -0.252 OA
BRANCH   2   4
ATOM      4  O   UNL     1       8.062  -2.933  -0.940  1.00  0.00    -0.481 OA
ATOM      5  H   UNL     1       8.478  -3.641  -1.552  1.00  0.00     0.296 HD
ENDBRANCH   2   4
ENDBRANCH   1   2
BRANCH   1   6
ATOM      6  C   UNL     1       6.673  -1.530   1.271  1.00  0.00     0.047 C 
BRANCH   6   7
ATOM      7  C   UNL     1       6.145  -0.253   0.795  1.00  0.00    -0.047 A 
ATOM      8  C   UNL     1       5.412   0.560   1.629  1.00  0.00     0.004 A 
ATOM      9  C   UNL     1       6.390   0.133  -0.502  1.00  0.00     0.004 A 
ATOM     10  C   UNL     1       4.939   1.766   1.107  1.00  0.00     0.000 A 
ATOM     11  C   UNL     1       5.922   1.326  -1.017  1.00  0.00     0.000 A 
ATOM     12  C   UNL     1       5.186   2.145  -0.188  1.00  0.00     0.000 A 
ENDBRANCH   6   7
ENDBRANCH   1   6
TORSDOF 4
ENDMDL
