@<TRIPOS>MOLECULE
/home/cewinharhar/GITHUB/reincatalyze/data/processed/docking_pred/2023-Apr-26-1657_maxeplen10_maxtrainstep1000_exh32_gamma099_lrac9e-4_lrcr1e-3/2bd7ebd6000506c3611824cd415c5dddcf27ad2f_ligand_2.pdbqt
 12 12 0 0 0
SMALL
GASTEIGER

@<TRIPOS>ATOM
      1  C          8.4390   -0.5840   -2.2070 C.3     1  UNL1        0.1270
      2  C          8.4840   -1.8810   -2.9210 C.2     1  UNL1        0.3030
      3  O          9.5690   -2.4880   -3.1000 O.2     1  UNL1       -0.2520
      4  O          7.3270   -2.4620   -3.4140 O.3     1  UNL1       -0.4810
      5  H          6.4210   -2.0370   -3.1950 H       1  UNL1        0.2960
      6  C          7.0150   -0.1200   -2.1640 C.3     1  UNL1        0.0470
      7  C          6.4840    0.0440   -0.8120 C.2     1  UNL1       -0.0470
      8  C          6.6150   -0.9590    0.1210 C.2     1  UNL1        0.0040
      9  C          5.8500    1.2170   -0.4770 C.2     1  UNL1        0.0040
     10  C          6.0840   -0.7340    1.3940 C.2     1  UNL1        0.0000
     11  C          5.3260    1.4380    0.7810 C.2     1  UNL1        0.0000
     12  C          5.4520    0.4390    1.7220 C.2     1  UNL1        0.0000
@<TRIPOS>BOND
     1     4     5    1
     2     4     2    1
     3     3     2    2
     4     2     1    1
     5     1     6    1
     6     6     7    1
     7     7     9    2
     8     7     8    1
     9     9    11    1
    10     8    10    2
    11    11    12    2
    12    10    12    1
