@<TRIPOS>MOLECULE
/home/cewinharhar/GITHUB/reincatalyze/data/processed/docking_pred/2023-Apr-26-1657_maxeplen10_maxtrainstep1000_exh32_gamma099_lrac9e-4_lrcr1e-3/2bd7ebd6000506c3611824cd415c5dddcf27ad2f_ligand_2.pdbqt
 12 12 0 0 0
SMALL
GASTEIGER

@<TRIPOS>ATOM
      1  C          5.0310    1.6870    0.6520 C.3     1  UNL1        0.1270
      2  C          4.6010    1.0360    1.9120 C.2     1  UNL1        0.3030
      3  O          5.3370    0.2060    2.4990 O.2     1  UNL1       -0.2520
      4  O          3.3700    1.3270    2.4770 O.3     1  UNL1       -0.4810
      5  H          3.0240    2.2900    2.4550 H       1  UNL1        0.2960
      6  C          6.5260    1.7950    0.6640 C.3     1  UNL1        0.0470
      7  C          7.1860    1.0200   -0.3850 C.2     1  UNL1       -0.0470
      8  C          8.5260    1.1900   -0.6470 C.2     1  UNL1        0.0040
      9  C          6.4520    0.1120   -1.1130 C.2     1  UNL1        0.0040
     10  C          9.0910    0.4160   -1.6630 C.2     1  UNL1        0.0000
     11  C          7.0120   -0.6520   -2.1170 C.2     1  UNL1        0.0000
     12  C          8.3530   -0.4870   -2.3860 C.2     1  UNL1        0.0000
@<TRIPOS>BOND
     1    12    11    2
     2    12    10    1
     3    11     9    1
     4    10     8    2
     5     9     7    2
     6     8     7    1
     7     7     6    1
     8     1     6    1
     9     1     2    1
    10     2     4    1
    11     2     3    2
    12     5     4    1
