@<TRIPOS>MOLECULE
/home/cewinharhar/GITHUB/reincatalyze/data/processed/docking_pred/2023-Apr-26-1657_maxeplen10_maxtrainstep1000_exh32_gamma099_lrac9e-4_lrcr1e-3/2bd7ebd6000506c3611824cd415c5dddcf27ad2f_ligand_2.pdbqt
 12 12 0 0 0
SMALL
GASTEIGER

@<TRIPOS>ATOM
      1  C          8.2520    0.2240   -2.1980 C.3     1  UNL1        0.1270
      2  C          9.3700    0.3510   -1.2340 C.2     1  UNL1        0.3030
      3  O          9.4580   -0.4060   -0.2360 O.2     1  UNL1       -0.2520
      4  O         10.3520    1.3130   -1.4070 O.3     1  UNL1       -0.4810
      5  H         10.2890    1.9560   -2.2020 H       1  UNL1        0.2960
      6  C          7.1330   -0.5140   -1.5280 C.3     1  UNL1        0.0470
      7  C          6.3420    0.3090   -0.6140 C.2     1  UNL1       -0.0470
      8  C          5.8290    1.5180   -1.0220 C.2     1  UNL1        0.0040
      9  C          6.1120   -0.1410    0.6650 C.2     1  UNL1        0.0040
     10  C          5.0820    2.2500   -0.0960 C.2     1  UNL1        0.0000
     11  C          5.3740    0.5840    1.5790 C.2     1  UNL1        0.0000
     12  C          4.8570    1.7970    1.1790 C.2     1  UNL1        0.0000
@<TRIPOS>BOND
     1     5     4    1
     2     1     6    1
     3     1     2    1
     4     6     7    1
     5     4     2    1
     6     2     3    2
     7     8     7    2
     8     8    10    1
     9     7     9    1
    10    10    12    2
    11     9    11    2
    12    12    11    1
