MODEL 1
REMARK VINA RESULT:      -7.3      0.000      0.000
REMARK SMILES O=C(O)CCc1ccccc1
REMARK SMILES IDX 4 1 2 2 1 3 3 4 5 6 6 7 7 8 11 9 8 10 10 11 9 12
REMARK H PARENT 3 5
REMARK Flexibility Score: inf
ROOT
ATOM      1  C   UNL     1       8.438  -0.633  -2.110  1.00  0.00     0.127 C 
ENDROOT
BRANCH   1   2
ATOM      2  C   UNL     1       8.476  -1.891  -2.893  1.00  0.00     0.303 C 
ATOM      3  O   UNL     1       9.556  -2.500  -3.093  1.00  0.00    -0.252 OA
BRANCH   2   4
ATOM      4  O   UNL     1       7.317  -2.431  -3.427  1.00  0.00    -0.481 OA
ATOM      5  H   UNL     1       6.422  -2.252  -2.964  1.00  0.00     0.296 HD
ENDBRANCH   2   4
ENDBRANCH   1   2
BRANCH   1   6
ATOM      6  C   UNL     1       7.028  -0.124  -2.107  1.00  0.00     0.047 C 
BRANCH   6   7
ATOM      7  C   UNL     1       6.467   0.063  -0.770  1.00  0.00    -0.047 A 
ATOM      8  C   UNL     1       5.821   1.231  -0.435  1.00  0.00     0.004 A 
ATOM      9  C   UNL     1       6.590  -0.946   0.158  1.00  0.00     0.004 A 
ATOM     10  C   UNL     1       5.309   1.340   0.859  1.00  0.00     0.000 A 
ATOM     11  C   UNL     1       6.084  -0.835   1.437  1.00  0.00     0.000 A 
ATOM     12  C   UNL     1       5.436   0.331   1.780  1.00  0.00     0.000 A 
ENDBRANCH   6   7
ENDBRANCH   1   6
TORSDOF 4
ENDMDL
MODEL 2
REMARK VINA RESULT:      -7.3      0.079      1.439
REMARK SMILES O=C(O)CCc1ccccc1
REMARK SMILES IDX 4 1 2 2 1 3 3 4 5 6 6 7 7 8 11 9 8 10 10 11 9 12
REMARK H PARENT 3 5
REMARK Flexibility Score: inf
ROOT
ATOM      1  C   UNL     1       8.439  -0.584  -2.207  1.00  0.00     0.127 C 
ENDROOT
BRANCH   1   2
ATOM      2  C   UNL     1       8.484  -1.881  -2.921  1.00  0.00     0.303 C 
ATOM      3  O   UNL     1       9.569  -2.488  -3.100  1.00  0.00    -0.252 OA
BRANCH   2   4
ATOM      4  O   UNL     1       7.327  -2.462  -3.414  1.00  0.00    -0.481 OA
ATOM      5  H   UNL     1       6.421  -2.037  -3.195  1.00  0.00     0.296 HD
ENDBRANCH   2   4
ENDBRANCH   1   2
BRANCH   1   6
ATOM      6  C   UNL     1       7.015  -0.120  -2.164  1.00  0.00     0.047 C 
BRANCH   6   7
ATOM      7  C   UNL     1       6.484   0.044  -0.812  1.00  0.00    -0.047 A 
ATOM      8  C   UNL     1       6.615  -0.959   0.121  1.00  0.00     0.004 A 
ATOM      9  C   UNL     1       5.850   1.217  -0.477  1.00  0.00     0.004 A 
ATOM     10  C   UNL     1       6.084  -0.734   1.394  1.00  0.00     0.000 A 
ATOM     11  C   UNL     1       5.326   1.438   0.781  1.00  0.00     0.000 A 
ATOM     12  C   UNL     1       5.452   0.439   1.722  1.00  0.00     0.000 A 
ENDBRANCH   6   7
ENDBRANCH   1   6
TORSDOF 4
ENDMDL
MODEL 3
REMARK VINA RESULT:      -6.7      3.344      5.019
REMARK SMILES O=C(O)CCc1ccccc1
REMARK SMILES IDX 4 1 2 2 1 3 3 4 5 6 6 7 7 8 11 9 8 10 10 11 9 12
REMARK H PARENT 3 5
REMARK Flexibility Score: inf
ROOT
ATOM      1  C   UNL     1       5.031   1.687   0.652  1.00  0.00     0.127 C 
ENDROOT
BRANCH   1   2
ATOM      2  C   UNL     1       4.601   1.036   1.912  1.00  0.00     0.303 C 
ATOM      3  O   UNL     1       5.337   0.206   2.499  1.00  0.00    -0.252 OA
BRANCH   2   4
ATOM      4  O   UNL     1       3.370   1.327   2.477  1.00  0.00    -0.481 OA
ATOM      5  H   UNL     1       3.024   2.290   2.455  1.00  0.00     0.296 HD
ENDBRANCH   2   4
ENDBRANCH   1   2
BRANCH   1   6
ATOM      6  C   UNL     1       6.526   1.795   0.664  1.00  0.00     0.047 C 
BRANCH   6   7
ATOM      7  C   UNL     1       7.186   1.020  -0.385  1.00  0.00    -0.047 A 
ATOM      8  C   UNL     1       8.526   1.190  -0.647  1.00  0.00     0.004 A 
ATOM      9  C   UNL     1       6.452   0.112  -1.113  1.00  0.00     0.004 A 
ATOM     10  C   UNL     1       9.091   0.416  -1.663  1.00  0.00     0.000 A 
ATOM     11  C   UNL     1       7.012  -0.652  -2.117  1.00  0.00     0.000 A 
ATOM     12  C   UNL     1       8.353  -0.487  -2.386  1.00  0.00     0.000 A 
ENDBRANCH   6   7
ENDBRANCH   1   6
TORSDOF 4
ENDMDL
MODEL 4
REMARK VINA RESULT:      -6.7      3.807      4.927
REMARK SMILES O=C(O)CCc1ccccc1
REMARK SMILES IDX 4 1 2 2 1 3 3 4 5 6 6 7 7 8 11 9 8 10 10 11 9 12
REMARK H PARENT 3 5
REMARK Flexibility Score: inf
ROOT
ATOM      1  C   UNL     1       5.409   2.910   0.010  1.00  0.00     0.127 C 
ENDROOT
BRANCH   1   2
ATOM      2  C   UNL     1       6.211   3.883   0.788  1.00  0.00     0.303 C 
ATOM      3  O   UNL     1       6.922   4.746   0.216  1.00  0.00    -0.252 OA
BRANCH   2   4
ATOM      4  O   UNL     1       6.198   3.867   2.173  1.00  0.00    -0.481 OA
ATOM      5  H   UNL     1       6.358   4.738   2.686  1.00  0.00     0.296 HD
ENDBRANCH   2   4
ENDBRANCH   1   2
BRANCH   1   6
ATOM      6  C   UNL     1       4.915   1.851   0.947  1.00  0.00     0.047 C 
BRANCH   6   7
ATOM      7  C   UNL     1       5.714   0.627   0.937  1.00  0.00    -0.047 A 
ATOM      8  C   UNL     1       6.397   0.243  -0.194  1.00  0.00     0.004 A 
ATOM      9  C   UNL     1       5.780  -0.141   2.076  1.00  0.00     0.004 A 
ATOM     10  C   UNL     1       7.142  -0.937  -0.132  1.00  0.00     0.000 A 
ATOM     11  C   UNL     1       6.517  -1.308   2.135  1.00  0.00     0.000 A 
ATOM     12  C   UNL     1       7.204  -1.700   1.007  1.00  0.00     0.000 A 
ENDBRANCH   6   7
ENDBRANCH   1   6
TORSDOF 4
ENDMDL
MODEL 5
REMARK VINA RESULT:      -6.6      1.932      2.307
REMARK SMILES O=C(O)CCc1ccccc1
REMARK SMILES IDX 4 1 2 2 1 3 3 4 5 6 6 7 7 8 11 9 8 10 10 11 9 12
REMARK H PARENT 3 5
REMARK Flexibility Score: inf
ROOT
ATOM      1  C   UNL     1       8.252   0.224  -2.198  1.00  0.00     0.127 C 
ENDROOT
BRANCH   1   2
ATOM      2  C   UNL     1       9.370   0.351  -1.234  1.00  0.00     0.303 C 
ATOM      3  O   UNL     1       9.458  -0.406  -0.236  1.00  0.00    -0.252 OA
BRANCH   2   4
ATOM      4  O   UNL     1      10.352   1.313  -1.407  1.00  0.00    -0.481 OA
ATOM      5  H   UNL     1      10.289   1.956  -2.202  1.00  0.00     0.296 HD
ENDBRANCH   2   4
ENDBRANCH   1   2
BRANCH   1   6
ATOM      6  C   UNL     1       7.133  -0.514  -1.528  1.00  0.00     0.047 C 
BRANCH   6   7
ATOM      7  C   UNL     1       6.342   0.309  -0.614  1.00  0.00    -0.047 A 
ATOM      8  C   UNL     1       5.829   1.518  -1.022  1.00  0.00     0.004 A 
ATOM      9  C   UNL     1       6.112  -0.141   0.665  1.00  0.00     0.004 A 
ATOM     10  C   UNL     1       5.082   2.250  -0.096  1.00  0.00     0.000 A 
ATOM     11  C   UNL     1       5.374   0.584   1.579  1.00  0.00     0.000 A 
ATOM     12  C   UNL     1       4.857   1.797   1.179  1.00  0.00     0.000 A 
ENDBRANCH   6   7
ENDBRANCH   1   6
TORSDOF 4
ENDMDL
