@<TRIPOS>MOLECULE
/home/cewinharhar/GITHUB/reincatalyze/data/processed/docking_pred/2023-Apr-26-1657_maxeplen10_maxtrainstep1000_exh32_gamma099_lrac9e-4_lrcr1e-3/2bd7ebd6000506c3611824cd415c5dddcf27ad2f_ligand_2.pdbqt
 12 12 0 0 0
SMALL
GASTEIGER

@<TRIPOS>ATOM
      1  C          8.4380   -0.6330   -2.1100 C.3     1  UNL1        0.1270
      2  C          8.4760   -1.8910   -2.8930 C.2     1  UNL1        0.3030
      3  O          9.5560   -2.5000   -3.0930 O.2     1  UNL1       -0.2520
      4  O          7.3170   -2.4310   -3.4270 O.3     1  UNL1       -0.4810
      5  H          6.4220   -2.2520   -2.9640 H       1  UNL1        0.2960
      6  C          7.0280   -0.1240   -2.1070 C.3     1  UNL1        0.0470
      7  C          6.4670    0.0630   -0.7700 C.2     1  UNL1       -0.0470
      8  C          5.8210    1.2310   -0.4350 C.2     1  UNL1        0.0040
      9  C          6.5900   -0.9460    0.1580 C.2     1  UNL1        0.0040
     10  C          5.3090    1.3400    0.8590 C.2     1  UNL1        0.0000
     11  C          6.0840   -0.8350    1.4370 C.2     1  UNL1        0.0000
     12  C          5.4360    0.3310    1.7800 C.2     1  UNL1        0.0000
@<TRIPOS>BOND
     1     4     5    1
     2     4     2    1
     3     3     2    2
     4     2     1    1
     5     1     6    1
     6     6     7    1
     7     7     8    2
     8     7     9    1
     9     8    10    1
    10     9    11    2
    11    10    12    2
    12    11    12    1
