@<TRIPOS>MOLECULE
/home/cewinharhar/GITHUB/reincatalyze/data/processed/docking_pred/2023-Apr-26-1657_maxeplen10_maxtrainstep1000_exh32_gamma099_lrac9e-4_lrcr1e-3/2bd7ebd6000506c3611824cd415c5dddcf27ad2f_ligand_2.pdbqt
 12 12 0 0 0
SMALL
GASTEIGER

@<TRIPOS>ATOM
      1  C          5.4090    2.9100    0.0100 C.3     1  UNL1        0.1270
      2  C          6.2110    3.8830    0.7880 C.2     1  UNL1        0.3030
      3  O          6.9220    4.7460    0.2160 O.2     1  UNL1       -0.2520
      4  O          6.1980    3.8670    2.1730 O.3     1  UNL1       -0.4810
      5  H          6.3580    4.7380    2.6860 H       1  UNL1        0.2960
      6  C          4.9150    1.8510    0.9470 C.3     1  UNL1        0.0470
      7  C          5.7140    0.6270    0.9370 C.2     1  UNL1       -0.0470
      8  C          6.3970    0.2430   -0.1940 C.2     1  UNL1        0.0040
      9  C          5.7800   -0.1410    2.0760 C.2     1  UNL1        0.0040
     10  C          7.1420   -0.9370   -0.1320 C.2     1  UNL1        0.0000
     11  C          6.5170   -1.3080    2.1350 C.2     1  UNL1        0.0000
     12  C          7.2040   -1.7000    1.0070 C.2     1  UNL1        0.0000
@<TRIPOS>BOND
     1     8    10    1
     2     8     7    2
     3    10    12    2
     4     1     2    1
     5     1     6    1
     6     3     2    2
     7     2     4    1
     8     7     6    1
     9     7     9    1
    10    12    11    1
    11     9    11    2
    12     4     5    1
