@<TRIPOS>MOLECULE
/home/cewinharhar/GITHUB/reincatalyze/data/processed/docking_pred/2023-Apr-26-1657_maxeplen10_maxtrainstep1000_exh32_gamma099_lrac9e-4_lrcr1e-3/2cf69de7cf34ef354308742c6722c88054a527ce_ligand_2.pdbqt
 12 12 0 0 0
SMALL
GASTEIGER

@<TRIPOS>ATOM
      1  C          5.0060    1.7920    0.6820 C.3     1  UNL1        0.1270
      2  C          4.4980    1.1170    1.9000 C.2     1  UNL1        0.3030
      3  O          5.1640    0.2180    2.4710 O.2     1  UNL1       -0.2520
      4  O          3.2700    1.4590    2.4420 O.3     1  UNL1       -0.4810
      5  H          2.7520    0.7650    2.9880 H       1  UNL1        0.2960
      6  C          6.5030    1.8020    0.7400 C.3     1  UNL1        0.0470
      7  C          7.1450    1.0510   -0.3380 C.2     1  UNL1       -0.0470
      8  C          8.4770    1.2340   -0.6270 C.2     1  UNL1        0.0040
      9  C          6.3990    0.1520   -1.0660 C.2     1  UNL1        0.0040
     10  C          9.0240    0.4820   -1.6690 C.2     1  UNL1        0.0000
     11  C          6.9420   -0.5900   -2.0960 C.2     1  UNL1        0.0000
     12  C          8.2760   -0.4120   -2.3920 C.2     1  UNL1        0.0000
@<TRIPOS>BOND
     1    12    11    2
     2    12    10    1
     3    11     9    1
     4    10     8    2
     5     9     7    2
     6     8     7    1
     7     7     6    1
     8     1     6    1
     9     1     2    1
    10     2     4    1
    11     2     3    2
    12     4     5    1
