@<TRIPOS>MOLECULE
/home/cewinharhar/GITHUB/reincatalyze/data/processed/docking_pred/2023-Apr-26-1657_maxeplen10_maxtrainstep1000_exh32_gamma099_lrac9e-4_lrcr1e-3/2cf69de7cf34ef354308742c6722c88054a527ce_ligand_2.pdbqt
 12 12 0 0 0
SMALL
GASTEIGER

@<TRIPOS>ATOM
      1  C          8.4080   -0.6830   -2.0390 C.3     1  UNL1        0.1270
      2  C          8.3810   -1.9090   -2.8710 C.2     1  UNL1        0.3030
      3  O          7.2950   -2.4180   -3.2450 O.2     1  UNL1       -0.2520
      4  O          9.5570   -2.5290   -3.2600 O.3     1  UNL1       -0.4810
      5  H         10.4420   -2.0210   -3.1770 H       1  UNL1        0.2960
      6  C          7.0400   -0.0710   -2.0570 C.3     1  UNL1        0.0470
      7  C          6.4570    0.1210   -0.7300 C.2     1  UNL1       -0.0470
      8  C          5.8040    1.2890   -0.4110 C.2     1  UNL1        0.0040
      9  C          6.5660   -0.8840    0.2030 C.2     1  UNL1        0.0040
     10  C          5.2710    1.4030    0.8750 C.2     1  UNL1        0.0000
     11  C          6.0390   -0.7700    1.4730 C.2     1  UNL1        0.0000
     12  C          5.3840    0.3970    1.8010 C.2     1  UNL1        0.0000
@<TRIPOS>BOND
     1     4     5    1
     2     4     2    1
     3     3     2    2
     4     2     1    1
     5     6     1    1
     6     6     7    1
     7     7     8    2
     8     7     9    1
     9     8    10    1
    10     9    11    2
    11    10    12    2
    12    11    12    1
