MODEL 1
REMARK VINA RESULT:      -7.4      0.000      0.000
REMARK SMILES O=C(O)CCc1ccccc1
REMARK SMILES IDX 4 1 2 2 1 3 3 4 5 6 6 7 7 8 11 9 8 10 10 11 9 12
REMARK H PARENT 3 5
REMARK Flexibility Score: inf
ROOT
ATOM      1  C   UNL     1       8.493  -0.614  -2.165  1.00  0.00     0.127 C 
ENDROOT
BRANCH   1   2
ATOM      2  C   UNL     1       8.509  -1.897  -2.905  1.00  0.00     0.303 C 
ATOM      3  O   UNL     1       9.581  -2.522  -3.102  1.00  0.00    -0.252 OA
BRANCH   2   4
ATOM      4  O   UNL     1       7.338  -2.445  -3.402  1.00  0.00    -0.481 OA
ATOM      5  H   UNL     1       6.710  -2.946  -2.768  1.00  0.00     0.296 HD
ENDBRANCH   2   4
ENDBRANCH   1   2
BRANCH   1   6
ATOM      6  C   UNL     1       7.086  -0.098  -2.146  1.00  0.00     0.047 C 
BRANCH   6   7
ATOM      7  C   UNL     1       6.524   0.047  -0.805  1.00  0.00    -0.047 A 
ATOM      8  C   UNL     1       6.650  -0.961   0.123  1.00  0.00     0.004 A 
ATOM      9  C   UNL     1       5.865   1.208  -0.475  1.00  0.00     0.004 A 
ATOM     10  C   UNL     1       6.088  -0.753   1.385  1.00  0.00     0.000 A 
ATOM     11  C   UNL     1       5.310   1.412   0.773  1.00  0.00     0.000 A 
ATOM     12  C   UNL     1       5.431   0.407   1.708  1.00  0.00     0.000 A 
ENDBRANCH   6   7
ENDBRANCH   1   6
TORSDOF 4
ENDMDL
MODEL 2
REMARK VINA RESULT:      -7.3      0.132      1.733
REMARK SMILES O=C(O)CCc1ccccc1
REMARK SMILES IDX 4 1 2 2 1 3 3 4 5 6 6 7 7 8 11 9 8 10 10 11 9 12
REMARK H PARENT 3 5
REMARK Flexibility Score: inf
ROOT
ATOM      1  C   UNL     1       8.408  -0.683  -2.039  1.00  0.00     0.127 C 
ENDROOT
BRANCH   1   2
ATOM      2  C   UNL     1       8.381  -1.909  -2.871  1.00  0.00     0.303 C 
ATOM      3  O   UNL     1       7.295  -2.418  -3.245  1.00  0.00    -0.252 OA
BRANCH   2   4
ATOM      4  O   UNL     1       9.557  -2.529  -3.260  1.00  0.00    -0.481 OA
ATOM      5  H   UNL     1      10.442  -2.021  -3.177  1.00  0.00     0.296 HD
ENDBRANCH   2   4
ENDBRANCH   1   2
BRANCH   1   6
ATOM      6  C   UNL     1       7.040  -0.071  -2.057  1.00  0.00     0.047 C 
BRANCH   6   7
ATOM      7  C   UNL     1       6.457   0.121  -0.730  1.00  0.00    -0.047 A 
ATOM      8  C   UNL     1       5.804   1.289  -0.411  1.00  0.00     0.004 A 
ATOM      9  C   UNL     1       6.566  -0.884   0.203  1.00  0.00     0.004 A 
ATOM     10  C   UNL     1       5.271   1.403   0.875  1.00  0.00     0.000 A 
ATOM     11  C   UNL     1       6.039  -0.770   1.473  1.00  0.00     0.000 A 
ATOM     12  C   UNL     1       5.384   0.397   1.801  1.00  0.00     0.000 A 
ENDBRANCH   6   7
ENDBRANCH   1   6
TORSDOF 4
ENDMDL
MODEL 3
REMARK VINA RESULT:      -6.8      3.365      5.069
REMARK SMILES O=C(O)CCc1ccccc1
REMARK SMILES IDX 4 1 2 2 1 3 3 4 5 6 6 7 7 8 11 9 8 10 10 11 9 12
REMARK H PARENT 3 5
REMARK Flexibility Score: inf
ROOT
ATOM      1  C   UNL     1       5.006   1.792   0.682  1.00  0.00     0.127 C 
ENDROOT
BRANCH   1   2
ATOM      2  C   UNL     1       4.498   1.117   1.900  1.00  0.00     0.303 C 
ATOM      3  O   UNL     1       5.164   0.218   2.471  1.00  0.00    -0.252 OA
BRANCH   2   4
ATOM      4  O   UNL     1       3.270   1.459   2.442  1.00  0.00    -0.481 OA
ATOM      5  H   UNL     1       2.752   0.765   2.988  1.00  0.00     0.296 HD
ENDBRANCH   2   4
ENDBRANCH   1   2
BRANCH   1   6
ATOM      6  C   UNL     1       6.503   1.802   0.740  1.00  0.00     0.047 C 
BRANCH   6   7
ATOM      7  C   UNL     1       7.145   1.051  -0.338  1.00  0.00    -0.047 A 
ATOM      8  C   UNL     1       8.477   1.234  -0.627  1.00  0.00     0.004 A 
ATOM      9  C   UNL     1       6.399   0.152  -1.066  1.00  0.00     0.004 A 
ATOM     10  C   UNL     1       9.024   0.482  -1.669  1.00  0.00     0.000 A 
ATOM     11  C   UNL     1       6.942  -0.590  -2.096  1.00  0.00     0.000 A 
ATOM     12  C   UNL     1       8.276  -0.412  -2.392  1.00  0.00     0.000 A 
ENDBRANCH   6   7
ENDBRANCH   1   6
TORSDOF 4
ENDMDL
MODEL 4
REMARK VINA RESULT:      -6.7      3.835      5.002
REMARK SMILES O=C(O)CCc1ccccc1
REMARK SMILES IDX 4 1 2 2 1 3 3 4 5 6 6 7 7 8 11 9 8 10 10 11 9 12
REMARK H PARENT 3 5
REMARK Flexibility Score: inf
ROOT
ATOM      1  C   UNL     1       5.431   2.919  -0.019  1.00  0.00     0.127 C 
ENDROOT
BRANCH   1   2
ATOM      2  C   UNL     1       6.223   3.884   0.778  1.00  0.00     0.303 C 
ATOM      3  O   UNL     1       6.914   4.774   0.222  1.00  0.00    -0.252 OA
BRANCH   2   4
ATOM      4  O   UNL     1       6.224   3.831   2.162  1.00  0.00    -0.481 OA
ATOM      5  H   UNL     1       7.036   3.441   2.648  1.00  0.00     0.296 HD
ENDBRANCH   2   4
ENDBRANCH   1   2
BRANCH   1   6
ATOM      6  C   UNL     1       4.903   1.865   0.907  1.00  0.00     0.047 C 
BRANCH   6   7
ATOM      7  C   UNL     1       5.689   0.633   0.914  1.00  0.00    -0.047 A 
ATOM      8  C   UNL     1       6.348   0.212  -0.218  1.00  0.00     0.004 A 
ATOM      9  C   UNL     1       5.767  -0.107   2.072  1.00  0.00     0.004 A 
ATOM     10  C   UNL     1       7.081  -0.975  -0.138  1.00  0.00     0.000 A 
ATOM     11  C   UNL     1       6.491  -1.280   2.149  1.00  0.00     0.000 A 
ATOM     12  C   UNL     1       7.154  -1.709   1.019  1.00  0.00     0.000 A 
ENDBRANCH   6   7
ENDBRANCH   1   6
TORSDOF 4
ENDMDL
MODEL 5
REMARK VINA RESULT:      -6.7      1.916      2.291
REMARK SMILES O=C(O)CCc1ccccc1
REMARK SMILES IDX 4 1 2 2 1 3 3 4 5 6 6 7 7 8 11 9 8 10 10 11 9 12
REMARK H PARENT 3 5
REMARK Flexibility Score: inf
ROOT
ATOM      1  C   UNL     1       8.218   0.260  -2.224  1.00  0.00     0.127 C 
ENDROOT
BRANCH   1   2
ATOM      2  C   UNL     1       9.350   0.344  -1.271  1.00  0.00     0.303 C 
ATOM      3  O   UNL     1       9.424  -0.424  -0.280  1.00  0.00    -0.252 OA
BRANCH   2   4
ATOM      4  O   UNL     1      10.360   1.275  -1.448  1.00  0.00    -0.481 OA
ATOM      5  H   UNL     1      10.973   1.505  -0.661  1.00  0.00     0.296 HD
ENDBRANCH   2   4
ENDBRANCH   1   2
BRANCH   1   6
ATOM      6  C   UNL     1       7.103  -0.494  -1.566  1.00  0.00     0.047 C 
BRANCH   6   7
ATOM      7  C   UNL     1       6.330   0.301  -0.613  1.00  0.00    -0.047 A 
ATOM      8  C   UNL     1       6.113  -0.153   0.668  1.00  0.00     0.004 A 
ATOM      9  C   UNL     1       5.820   1.515  -1.009  1.00  0.00     0.004 A 
ATOM     10  C   UNL     1       5.367   0.659   1.525  1.00  0.00     0.000 A 
ATOM     11  C   UNL     1       5.082   2.316  -0.160  1.00  0.00     0.000 A 
ATOM     12  C   UNL     1       4.859   1.869   1.124  1.00  0.00     0.000 A 
ENDBRANCH   6   7
ENDBRANCH   1   6
TORSDOF 4
ENDMDL
