@<TRIPOS>MOLECULE
/home/cewinharhar/GITHUB/reincatalyze/data/processed/docking_pred/2023-Apr-26-1657_maxeplen10_maxtrainstep1000_exh32_gamma099_lrac9e-4_lrcr1e-3/2cf69de7cf34ef354308742c6722c88054a527ce_ligand_2.pdbqt
 12 12 0 0 0
SMALL
GASTEIGER

@<TRIPOS>ATOM
      1  C          8.4930   -0.6140   -2.1650 C.3     1  UNL1        0.1270
      2  C          8.5090   -1.8970   -2.9050 C.2     1  UNL1        0.3030
      3  O          9.5810   -2.5220   -3.1020 O.2     1  UNL1       -0.2520
      4  O          7.3380   -2.4450   -3.4020 O.3     1  UNL1       -0.4810
      5  H          6.7100   -2.9460   -2.7680 H       1  UNL1        0.2960
      6  C          7.0860   -0.0980   -2.1460 C.3     1  UNL1        0.0470
      7  C          6.5240    0.0470   -0.8050 C.2     1  UNL1       -0.0470
      8  C          6.6500   -0.9610    0.1230 C.2     1  UNL1        0.0040
      9  C          5.8650    1.2080   -0.4750 C.2     1  UNL1        0.0040
     10  C          6.0880   -0.7530    1.3850 C.2     1  UNL1        0.0000
     11  C          5.3100    1.4120    0.7730 C.2     1  UNL1        0.0000
     12  C          5.4310    0.4070    1.7080 C.2     1  UNL1        0.0000
@<TRIPOS>BOND
     1     4     2    1
     2     4     5    1
     3     3     2    2
     4     2     1    1
     5     1     6    1
     6     6     7    1
     7     7     9    2
     8     7     8    1
     9     9    11    1
    10     8    10    2
    11    11    12    2
    12    10    12    1
