@<TRIPOS>MOLECULE
/home/cewinharhar/GITHUB/reincatalyze/data/processed/docking_pred/2023-Apr-26-1657_maxeplen10_maxtrainstep1000_exh32_gamma099_lrac9e-4_lrcr1e-3/2cf69de7cf34ef354308742c6722c88054a527ce_ligand_2.pdbqt
 12 12 0 0 0
SMALL
GASTEIGER

@<TRIPOS>ATOM
      1  C          5.4310    2.9190   -0.0190 C.3     1  UNL1        0.1270
      2  C          6.2230    3.8840    0.7780 C.2     1  UNL1        0.3030
      3  O          6.9140    4.7740    0.2220 O.2     1  UNL1       -0.2520
      4  O          6.2240    3.8310    2.1620 O.3     1  UNL1       -0.4810
      5  H          7.0360    3.4410    2.6480 H       1  UNL1        0.2960
      6  C          4.9030    1.8650    0.9070 C.3     1  UNL1        0.0470
      7  C          5.6890    0.6330    0.9140 C.2     1  UNL1       -0.0470
      8  C          6.3480    0.2120   -0.2180 C.2     1  UNL1        0.0040
      9  C          5.7670   -0.1070    2.0720 C.2     1  UNL1        0.0040
     10  C          7.0810   -0.9750   -0.1380 C.2     1  UNL1        0.0000
     11  C          6.4910   -1.2800    2.1490 C.2     1  UNL1        0.0000
     12  C          7.1540   -1.7090    1.0190 C.2     1  UNL1        0.0000
@<TRIPOS>BOND
     1     8    10    1
     2     8     7    2
     3    10    12    2
     4     1     2    1
     5     1     6    1
     6     3     2    2
     7     2     4    1
     8     6     7    1
     9     7     9    1
    10    12    11    1
    11     9    11    2
    12     4     5    1
