@<TRIPOS>MOLECULE
/home/cewinharhar/GITHUB/reincatalyze/data/processed/docking_pred/2023-Apr-26-1657_maxeplen10_maxtrainstep1000_exh32_gamma099_lrac9e-4_lrcr1e-3/2cf69de7cf34ef354308742c6722c88054a527ce_ligand_2.pdbqt
 12 12 0 0 0
SMALL
GASTEIGER

@<TRIPOS>ATOM
      1  C          8.2180    0.2600   -2.2240 C.3     1  UNL1        0.1270
      2  C          9.3500    0.3440   -1.2710 C.2     1  UNL1        0.3030
      3  O          9.4240   -0.4240   -0.2800 O.2     1  UNL1       -0.2520
      4  O         10.3600    1.2750   -1.4480 O.3     1  UNL1       -0.4810
      5  H         10.9730    1.5050   -0.6610 H       1  UNL1        0.2960
      6  C          7.1030   -0.4940   -1.5660 C.3     1  UNL1        0.0470
      7  C          6.3300    0.3010   -0.6130 C.2     1  UNL1       -0.0470
      8  C          6.1130   -0.1530    0.6680 C.2     1  UNL1        0.0040
      9  C          5.8200    1.5150   -1.0090 C.2     1  UNL1        0.0040
     10  C          5.3670    0.6590    1.5250 C.2     1  UNL1        0.0000
     11  C          5.0820    2.3160   -0.1600 C.2     1  UNL1        0.0000
     12  C          4.8590    1.8690    1.1240 C.2     1  UNL1        0.0000
@<TRIPOS>BOND
     1     1     6    1
     2     1     2    1
     3     6     7    1
     4     4     2    1
     5     4     5    1
     6     2     3    2
     7     9     7    2
     8     9    11    1
     9     7     8    1
    10    11    12    2
    11     8    10    2
    12    12    10    1
