@<TRIPOS>MOLECULE
/home/cewinharhar/GITHUB/reincatalyze/data/processed/docking_pred/2023-Apr-26-1657_maxeplen10_maxtrainstep1000_exh32_gamma099_lrac9e-4_lrcr1e-3/2d2d9026ea33a6842fa37a74e1533968fe9c5ac5_ligand_2.pdbqt
 12 12 0 0 0
SMALL
GASTEIGER

@<TRIPOS>ATOM
      1  C          8.4190   -0.6630   -2.0860 C.3     1  UNL1        0.1270
      2  C          8.4660   -1.9070   -2.8900 C.2     1  UNL1        0.3030
      3  O          9.5500   -2.5040   -3.1020 O.2     1  UNL1       -0.2520
      4  O          7.3100   -2.4460   -3.4320 O.3     1  UNL1       -0.4810
      5  H          7.2710   -3.4500   -3.6300 H       1  UNL1        0.2960
      6  C          7.0080   -0.1570   -2.0840 C.3     1  UNL1        0.0470
      7  C          6.4530    0.0510   -0.7480 C.2     1  UNL1       -0.0470
      8  C          5.8230    1.2300   -0.4240 C.2     1  UNL1        0.0040
      9  C          6.5630   -0.9510    0.1880 C.2     1  UNL1        0.0040
     10  C          5.3150    1.3580    0.8710 C.2     1  UNL1        0.0000
     11  C          6.0610   -0.8230    1.4680 C.2     1  UNL1        0.0000
     12  C          5.4290    0.3560    1.8010 C.2     1  UNL1        0.0000
@<TRIPOS>BOND
     1     5     4    1
     2     4     2    1
     3     3     2    2
     4     2     1    1
     5     1     6    1
     6     6     7    1
     7     7     8    2
     8     7     9    1
     9     8    10    1
    10     9    11    2
    11    10    12    2
    12    11    12    1
