MODEL 1
REMARK VINA RESULT:      -7.3      0.000      0.000
REMARK SMILES O=C(O)CCc1ccccc1
REMARK SMILES IDX 4 1 2 2 1 3 3 4 5 6 6 7 7 8 11 9 8 10 10 11 9 12
REMARK H PARENT 3 5
REMARK Flexibility Score: inf
ROOT
ATOM      1  C   UNL     1       8.419  -0.663  -2.086  1.00  0.00     0.127 C 
ENDROOT
BRANCH   1   2
ATOM      2  C   UNL     1       8.466  -1.907  -2.890  1.00  0.00     0.303 C 
ATOM      3  O   UNL     1       9.550  -2.504  -3.102  1.00  0.00    -0.252 OA
BRANCH   2   4
ATOM      4  O   UNL     1       7.310  -2.446  -3.432  1.00  0.00    -0.481 OA
ATOM      5  H   UNL     1       7.271  -3.450  -3.630  1.00  0.00     0.296 HD
ENDBRANCH   2   4
ENDBRANCH   1   2
BRANCH   1   6
ATOM      6  C   UNL     1       7.008  -0.157  -2.084  1.00  0.00     0.047 C 
BRANCH   6   7
ATOM      7  C   UNL     1       6.453   0.051  -0.748  1.00  0.00    -0.047 A 
ATOM      8  C   UNL     1       5.823   1.230  -0.424  1.00  0.00     0.004 A 
ATOM      9  C   UNL     1       6.563  -0.951   0.188  1.00  0.00     0.004 A 
ATOM     10  C   UNL     1       5.315   1.358   0.871  1.00  0.00     0.000 A 
ATOM     11  C   UNL     1       6.061  -0.823   1.468  1.00  0.00     0.000 A 
ATOM     12  C   UNL     1       5.429   0.356   1.801  1.00  0.00     0.000 A 
ENDBRANCH   6   7
ENDBRANCH   1   6
TORSDOF 4
ENDMDL
MODEL 2
REMARK VINA RESULT:      -7.3      0.096      1.730
REMARK SMILES O=C(O)CCc1ccccc1
REMARK SMILES IDX 4 1 2 2 1 3 3 4 5 6 6 7 7 8 11 9 8 10 10 11 9 12
REMARK H PARENT 3 5
REMARK Flexibility Score: inf
ROOT
ATOM      1  C   UNL     1       8.398  -0.617  -2.144  1.00  0.00     0.127 C 
ENDROOT
BRANCH   1   2
ATOM      2  C   UNL     1       8.374  -1.886  -2.909  1.00  0.00     0.303 C 
ATOM      3  O   UNL     1       7.290  -2.420  -3.252  1.00  0.00    -0.252 OA
BRANCH   2   4
ATOM      4  O   UNL     1       9.553  -2.521  -3.268  1.00  0.00    -0.481 OA
ATOM      5  H   UNL     1      10.152  -2.915  -2.537  1.00  0.00     0.296 HD
ENDBRANCH   2   4
ENDBRANCH   1   2
BRANCH   1   6
ATOM      6  C   UNL     1       7.004  -0.068  -2.100  1.00  0.00     0.047 C 
BRANCH   6   7
ATOM      7  C   UNL     1       6.461   0.066  -0.750  1.00  0.00    -0.047 A 
ATOM      8  C   UNL     1       6.587  -0.954   0.164  1.00  0.00     0.004 A 
ATOM      9  C   UNL     1       5.819   1.231  -0.398  1.00  0.00     0.004 A 
ATOM     10  C   UNL     1       6.045  -0.755   1.436  1.00  0.00     0.000 A 
ATOM     11  C   UNL     1       5.283   1.425   0.860  1.00  0.00     0.000 A 
ATOM     12  C   UNL     1       5.405   0.408   1.781  1.00  0.00     0.000 A 
ENDBRANCH   6   7
ENDBRANCH   1   6
TORSDOF 4
ENDMDL
MODEL 3
REMARK VINA RESULT:      -7.2      0.659      1.616
REMARK SMILES O=C(O)CCc1ccccc1
REMARK SMILES IDX 4 1 2 2 1 3 3 4 5 6 6 7 7 8 11 9 8 10 10 11 9 12
REMARK H PARENT 3 5
REMARK Flexibility Score: inf
ROOT
ATOM      1  C   UNL     1       8.350  -0.975  -1.720  1.00  0.00     0.127 C 
ENDROOT
BRANCH   1   2
ATOM      2  C   UNL     1       8.430  -2.004  -2.785  1.00  0.00     0.303 C 
ATOM      3  O   UNL     1       9.526  -2.530  -3.100  1.00  0.00    -0.252 OA
BRANCH   2   4
ATOM      4  O   UNL     1       7.294  -2.412  -3.463  1.00  0.00    -0.481 OA
ATOM      5  H   UNL     1       7.211  -3.389  -3.758  1.00  0.00     0.296 HD
ENDBRANCH   2   4
ENDBRANCH   1   2
BRANCH   1   6
ATOM      6  C   UNL     1       7.364  -1.438  -0.691  1.00  0.00     0.047 C 
BRANCH   6   7
ATOM      7  C   UNL     1       6.555  -0.365  -0.118  1.00  0.00    -0.047 A 
ATOM      8  C   UNL     1       6.095  -0.445   1.176  1.00  0.00     0.004 A 
ATOM      9  C   UNL     1       6.257   0.736  -0.888  1.00  0.00     0.004 A 
ATOM     10  C   UNL     1       5.329   0.618   1.659  1.00  0.00     0.000 A 
ATOM     11  C   UNL     1       5.499   1.786  -0.409  1.00  0.00     0.000 A 
ATOM     12  C   UNL     1       5.033   1.713   0.886  1.00  0.00     0.000 A 
ENDBRANCH   6   7
ENDBRANCH   1   6
TORSDOF 4
ENDMDL
MODEL 4
REMARK VINA RESULT:      -6.8      3.384      5.099
REMARK SMILES O=C(O)CCc1ccccc1
REMARK SMILES IDX 4 1 2 2 1 3 3 4 5 6 6 7 7 8 11 9 8 10 10 11 9 12
REMARK H PARENT 3 5
REMARK Flexibility Score: inf
ROOT
ATOM      1  C   UNL     1       5.035   1.795   0.747  1.00  0.00     0.127 C 
ENDROOT
BRANCH   1   2
ATOM      2  C   UNL     1       4.478   1.104   1.934  1.00  0.00     0.303 C 
ATOM      3  O   UNL     1       5.104   0.174   2.499  1.00  0.00    -0.252 OA
BRANCH   2   4
ATOM      4  O   UNL     1       3.246   1.468   2.454  1.00  0.00    -0.481 OA
ATOM      5  H   UNL     1       3.197   2.221   3.145  1.00  0.00     0.296 HD
ENDBRANCH   2   4
ENDBRANCH   1   2
BRANCH   1   6
ATOM      6  C   UNL     1       6.529   1.698   0.805  1.00  0.00     0.047 C 
BRANCH   6   7
ATOM      7  C   UNL     1       7.120   0.954  -0.307  1.00  0.00    -0.047 A 
ATOM      8  C   UNL     1       6.392   0.002  -0.981  1.00  0.00     0.004 A 
ATOM      9  C   UNL     1       8.418   1.219  -0.677  1.00  0.00     0.004 A 
ATOM     10  C   UNL     1       7.019  -0.669  -2.033  1.00  0.00     0.000 A 
ATOM     11  C   UNL     1       9.037   0.554  -1.717  1.00  0.00     0.000 A 
ATOM     12  C   UNL     1       8.315  -0.402  -2.398  1.00  0.00     0.000 A 
ENDBRANCH   6   7
ENDBRANCH   1   6
TORSDOF 4
ENDMDL
MODEL 5
REMARK VINA RESULT:      -6.7      3.383      5.065
REMARK SMILES O=C(O)CCc1ccccc1
REMARK SMILES IDX 4 1 2 2 1 3 3 4 5 6 6 7 7 8 11 9 8 10 10 11 9 12
REMARK H PARENT 3 5
REMARK Flexibility Score: inf
ROOT
ATOM      1  C   UNL     1       5.003   1.780   0.651  1.00  0.00     0.127 C 
ENDROOT
BRANCH   1   2
ATOM      2  C   UNL     1       4.512   1.129   1.889  1.00  0.00     0.303 C 
ATOM      3  O   UNL     1       5.196   0.259   2.482  1.00  0.00    -0.252 OA
BRANCH   2   4
ATOM      4  O   UNL     1       3.280   1.465   2.427  1.00  0.00    -0.481 OA
ATOM      5  H   UNL     1       3.032   2.452   2.535  1.00  0.00     0.296 HD
ENDBRANCH   2   4
ENDBRANCH   1   2
BRANCH   1   6
ATOM      6  C   UNL     1       6.499   1.832   0.709  1.00  0.00     0.047 C 
BRANCH   6   7
ATOM      7  C   UNL     1       7.161   1.083  -0.358  1.00  0.00    -0.047 A 
ATOM      8  C   UNL     1       8.507   1.239  -0.596  1.00  0.00     0.004 A 
ATOM      9  C   UNL     1       6.423   0.212  -1.125  1.00  0.00     0.004 A 
ATOM     10  C   UNL     1       9.074   0.491  -1.630  1.00  0.00     0.000 A 
ATOM     11  C   UNL     1       6.984  -0.527  -2.147  1.00  0.00     0.000 A 
ATOM     12  C   UNL     1       8.332  -0.376  -2.393  1.00  0.00     0.000 A 
ENDBRANCH   6   7
ENDBRANCH   1   6
TORSDOF 4
ENDMDL
