@<TRIPOS>MOLECULE
/home/cewinharhar/GITHUB/reincatalyze/data/processed/docking_pred/2023-Apr-26-1657_maxeplen10_maxtrainstep1000_exh32_gamma099_lrac9e-4_lrcr1e-3/2d2d9026ea33a6842fa37a74e1533968fe9c5ac5_ligand_2.pdbqt
 12 12 0 0 0
SMALL
GASTEIGER

@<TRIPOS>ATOM
      1  C          5.0350    1.7950    0.7470 C.3     1  UNL1        0.1270
      2  C          4.4780    1.1040    1.9340 C.2     1  UNL1        0.3030
      3  O          5.1040    0.1740    2.4990 O.2     1  UNL1       -0.2520
      4  O          3.2460    1.4680    2.4540 O.3     1  UNL1       -0.4810
      5  H          3.1970    2.2210    3.1450 H       1  UNL1        0.2960
      6  C          6.5290    1.6980    0.8050 C.3     1  UNL1        0.0470
      7  C          7.1200    0.9540   -0.3070 C.2     1  UNL1       -0.0470
      8  C          6.3920    0.0020   -0.9810 C.2     1  UNL1        0.0040
      9  C          8.4180    1.2190   -0.6770 C.2     1  UNL1        0.0040
     10  C          7.0190   -0.6690   -2.0330 C.2     1  UNL1        0.0000
     11  C          9.0370    0.5540   -1.7170 C.2     1  UNL1        0.0000
     12  C          8.3150   -0.4020   -2.3980 C.2     1  UNL1        0.0000
@<TRIPOS>BOND
     1    12    10    2
     2    12    11    1
     3    10     8    1
     4    11     9    2
     5     8     7    2
     6     9     7    1
     7     7     6    1
     8     1     6    1
     9     1     2    1
    10     2     4    1
    11     2     3    2
    12     4     5    1
