@<TRIPOS>MOLECULE
/home/cewinharhar/GITHUB/reincatalyze/data/processed/docking_pred/2023-Apr-26-1657_maxeplen10_maxtrainstep1000_exh32_gamma099_lrac9e-4_lrcr1e-3/2d2d9026ea33a6842fa37a74e1533968fe9c5ac5_ligand_2.pdbqt
 12 12 0 0 0
SMALL
GASTEIGER

@<TRIPOS>ATOM
      1  C          8.3500   -0.9750   -1.7200 C.3     1  UNL1        0.1270
      2  C          8.4300   -2.0040   -2.7850 C.2     1  UNL1        0.3030
      3  O          9.5260   -2.5300   -3.1000 O.2     1  UNL1       -0.2520
      4  O          7.2940   -2.4120   -3.4630 O.3     1  UNL1       -0.4810
      5  H          7.2110   -3.3890   -3.7580 H       1  UNL1        0.2960
      6  C          7.3640   -1.4380   -0.6910 C.3     1  UNL1        0.0470
      7  C          6.5550   -0.3650   -0.1180 C.2     1  UNL1       -0.0470
      8  C          6.0950   -0.4450    1.1760 C.2     1  UNL1        0.0040
      9  C          6.2570    0.7360   -0.8880 C.2     1  UNL1        0.0040
     10  C          5.3290    0.6180    1.6590 C.2     1  UNL1        0.0000
     11  C          5.4990    1.7860   -0.4090 C.2     1  UNL1        0.0000
     12  C          5.0330    1.7130    0.8860 C.2     1  UNL1        0.0000
@<TRIPOS>BOND
     1     5     4    1
     2     4     2    1
     3     3     2    2
     4     2     1    1
     5     1     6    1
     6     9    11    1
     7     9     7    2
     8     6     7    1
     9    11    12    2
    10     7     8    1
    11    12    10    1
    12     8    10    2
