@<TRIPOS>MOLECULE
/home/cewinharhar/GITHUB/reincatalyze/data/processed/docking_pred/2023-Apr-26-1657_maxeplen10_maxtrainstep1000_exh32_gamma099_lrac9e-4_lrcr1e-3/2d2d9026ea33a6842fa37a74e1533968fe9c5ac5_ligand_2.pdbqt
 12 12 0 0 0
SMALL
GASTEIGER

@<TRIPOS>ATOM
      1  C          8.3980   -0.6170   -2.1440 C.3     1  UNL1        0.1270
      2  C          8.3740   -1.8860   -2.9090 C.2     1  UNL1        0.3030
      3  O          7.2900   -2.4200   -3.2520 O.2     1  UNL1       -0.2520
      4  O          9.5530   -2.5210   -3.2680 O.3     1  UNL1       -0.4810
      5  H         10.1520   -2.9150   -2.5370 H       1  UNL1        0.2960
      6  C          7.0040   -0.0680   -2.1000 C.3     1  UNL1        0.0470
      7  C          6.4610    0.0660   -0.7500 C.2     1  UNL1       -0.0470
      8  C          6.5870   -0.9540    0.1640 C.2     1  UNL1        0.0040
      9  C          5.8190    1.2310   -0.3980 C.2     1  UNL1        0.0040
     10  C          6.0450   -0.7550    1.4360 C.2     1  UNL1        0.0000
     11  C          5.2830    1.4250    0.8600 C.2     1  UNL1        0.0000
     12  C          5.4050    0.4080    1.7810 C.2     1  UNL1        0.0000
@<TRIPOS>BOND
     1     4     2    1
     2     4     5    1
     3     3     2    2
     4     2     1    1
     5     1     6    1
     6     6     7    1
     7     7     9    2
     8     7     8    1
     9     9    11    1
    10     8    10    2
    11    11    12    2
    12    10    12    1
