@<TRIPOS>MOLECULE
/home/cewinharhar/GITHUB/reincatalyze/data/processed/docking_pred/2023-Apr-26-1657_maxeplen10_maxtrainstep1000_exh32_gamma099_lrac9e-4_lrcr1e-3/2d2d9026ea33a6842fa37a74e1533968fe9c5ac5_ligand_2.pdbqt
 12 12 0 0 0
SMALL
GASTEIGER

@<TRIPOS>ATOM
      1  C          5.0030    1.7800    0.6510 C.3     1  UNL1        0.1270
      2  C          4.5120    1.1290    1.8890 C.2     1  UNL1        0.3030
      3  O          5.1960    0.2590    2.4820 O.2     1  UNL1       -0.2520
      4  O          3.2800    1.4650    2.4270 O.3     1  UNL1       -0.4810
      5  H          3.0320    2.4520    2.5350 H       1  UNL1        0.2960
      6  C          6.4990    1.8320    0.7090 C.3     1  UNL1        0.0470
      7  C          7.1610    1.0830   -0.3580 C.2     1  UNL1       -0.0470
      8  C          8.5070    1.2390   -0.5960 C.2     1  UNL1        0.0040
      9  C          6.4230    0.2120   -1.1250 C.2     1  UNL1        0.0040
     10  C          9.0740    0.4910   -1.6300 C.2     1  UNL1        0.0000
     11  C          6.9840   -0.5270   -2.1470 C.2     1  UNL1        0.0000
     12  C          8.3320   -0.3760   -2.3930 C.2     1  UNL1        0.0000
@<TRIPOS>BOND
     1    12    11    2
     2    12    10    1
     3    11     9    1
     4    10     8    2
     5     9     7    2
     6     8     7    1
     7     7     6    1
     8     1     6    1
     9     1     2    1
    10     2     4    1
    11     2     3    2
    12     4     5    1
