@<TRIPOS>MOLECULE
/home/cewinharhar/GITHUB/reincatalyze/data/processed/docking_pred/2023-Apr-26-1657_maxeplen10_maxtrainstep1000_exh32_gamma099_lrac9e-4_lrcr1e-3/2d863d4e78c56822cb27942f8f89755da93ab859_ligand_2.pdbqt
 12 12 0 0 0
SMALL
GASTEIGER

@<TRIPOS>ATOM
      1  C          8.3290   -0.7970   -1.9710 C.3     1  UNL1        0.1270
      2  C          8.3750   -1.9530   -2.8960 C.2     1  UNL1        0.3030
      3  O          7.3230   -2.4520   -3.3680 O.2     1  UNL1       -0.2520
      4  O          9.5850   -2.5180   -3.2660 O.3     1  UNL1       -0.4810
      5  H          9.6020   -3.2230   -4.0090 H       1  UNL1        0.2960
      6  C          7.6740   -1.2380   -0.6970 C.3     1  UNL1        0.0470
      7  C          6.7480   -0.2580   -0.1340 C.2     1  UNL1       -0.0470
      8  C          6.3130    0.8110   -0.8830 C.2     1  UNL1        0.0040
      9  C          6.3090   -0.4150    1.1600 C.2     1  UNL1        0.0040
     10  C          5.4280    1.7080   -0.2810 C.2     1  UNL1        0.0000
     11  C          5.4340    0.4720    1.7540 C.2     1  UNL1        0.0000
     12  C          4.9940    1.5460    1.0110 C.2     1  UNL1        0.0000
@<TRIPOS>BOND
     1     5     4    1
     2     3     2    2
     3     4     2    1
     4     2     1    1
     5     1     6    1
     6     8    10    1
     7     8     7    2
     8     6     7    1
     9    10    12    2
    10     7     9    1
    11    12    11    1
    12     9    11    2
