@<TRIPOS>MOLECULE
/home/cewinharhar/GITHUB/reincatalyze/data/processed/docking_pred/2023-Apr-26-1657_maxeplen10_maxtrainstep1000_exh32_gamma099_lrac9e-4_lrcr1e-3/2d863d4e78c56822cb27942f8f89755da93ab859_ligand_2.pdbqt
 12 12 0 0 0
SMALL
GASTEIGER

@<TRIPOS>ATOM
      1  C          5.0630    1.6800    0.6920 C.3     1  UNL1        0.1270
      2  C          4.5910    1.0110    1.9270 C.2     1  UNL1        0.3030
      3  O          5.2890    0.1410    2.5030 O.2     1  UNL1       -0.2520
      4  O          3.3610    1.3300    2.4810 O.3     1  UNL1       -0.4810
      5  H          2.5090    1.1630    1.9390 H       1  UNL1        0.2960
      6  C          6.5600    1.7220    0.7220 C.3     1  UNL1        0.0470
      7  C          7.1980    0.9780   -0.3630 C.2     1  UNL1       -0.0470
      8  C          8.5140    1.2050   -0.6930 C.2     1  UNL1        0.0040
      9  C          6.4670    0.0400   -1.0550 C.2     1  UNL1        0.0040
     10  C          9.0580    0.4570   -1.7400 C.2     1  UNL1        0.0000
     11  C          7.0060   -0.6980   -2.0890 C.2     1  UNL1        0.0000
     12  C          8.3230   -0.4760   -2.4270 C.2     1  UNL1        0.0000
@<TRIPOS>BOND
     1    12    11    2
     2    12    10    1
     3    11     9    1
     4    10     8    2
     5     9     7    2
     6     8     7    1
     7     7     6    1
     8     1     6    1
     9     1     2    1
    10     2     4    1
    11     2     3    2
    12     5     4    1
