@<TRIPOS>MOLECULE
/home/cewinharhar/GITHUB/reincatalyze/data/processed/docking_pred/2023-Apr-26-1657_maxeplen10_maxtrainstep1000_exh32_gamma099_lrac9e-4_lrcr1e-3/2d863d4e78c56822cb27942f8f89755da93ab859_ligand_2.pdbqt
 12 12 0 0 0
SMALL
GASTEIGER

@<TRIPOS>ATOM
      1  C          8.2620    0.5000   -1.9180 C.3     1  UNL1        0.1270
      2  C          9.4710    0.4320   -1.0620 C.2     1  UNL1        0.3030
      3  O          9.5360   -0.3590   -0.0890 O.2     1  UNL1       -0.2520
      4  O         10.5650    1.2440   -1.3140 O.3     1  UNL1       -0.4810
      5  H         10.4780    2.0070   -1.9910 H       1  UNL1        0.2960
      6  C          7.2340   -0.4330   -1.3550 C.3     1  UNL1        0.0470
      7  C          6.3990    0.1620   -0.3130 C.2     1  UNL1       -0.0470
      8  C          6.2150   -0.4770    0.8920 C.2     1  UNL1        0.0040
      9  C          5.7950    1.3750   -0.5480 C.2     1  UNL1        0.0040
     10  C          5.4050    0.1500    1.8410 C.2     1  UNL1        0.0000
     11  C          4.9940    1.9940    0.3920 C.2     1  UNL1        0.0000
     12  C          4.8050    1.3600    1.6010 C.2     1  UNL1        0.0000
@<TRIPOS>BOND
     1     5     4    1
     2     1     6    1
     3     1     2    1
     4     6     7    1
     5     4     2    1
     6     2     3    2
     7     9     7    2
     8     9    11    1
     9     7     8    1
    10    11    12    2
    11     8    10    2
    12    12    10    1
