@<TRIPOS>MOLECULE
/home/cewinharhar/GITHUB/reincatalyze/data/processed/docking_pred/2023-Apr-26-1657_maxeplen10_maxtrainstep1000_exh32_gamma099_lrac9e-4_lrcr1e-3/2d863d4e78c56822cb27942f8f89755da93ab859_ligand_2.pdbqt
 12 12 0 0 0
SMALL
GASTEIGER

@<TRIPOS>ATOM
      1  C          8.4270   -0.6140   -2.1630 C.3     1  UNL1        0.1270
      2  C          8.4740   -1.8970   -2.9050 C.2     1  UNL1        0.3030
      3  O          9.5580   -2.5020   -3.0900 O.2     1  UNL1       -0.2520
      4  O          7.3180   -2.4640   -3.4160 O.3     1  UNL1       -0.4810
      5  H          7.3910   -3.2020   -4.1220 H       1  UNL1        0.2960
      6  C          7.0050   -0.1430   -2.1270 C.3     1  UNL1        0.0470
      7  C          6.4730    0.0390   -0.7780 C.2     1  UNL1       -0.0470
      8  C          5.8570    1.2150   -0.4170 C.2     1  UNL1        0.0040
      9  C          6.5930   -0.9830    0.1350 C.2     1  UNL1        0.0040
     10  C          5.3720    1.3190    0.8880 C.2     1  UNL1        0.0000
     11  C          6.1140   -0.8790    1.4250 C.2     1  UNL1        0.0000
     12  C          5.4950    0.2960    1.7950 C.2     1  UNL1        0.0000
@<TRIPOS>BOND
     1     5     4    1
     2     4     2    1
     3     3     2    2
     4     2     1    1
     5     1     6    1
     6     6     7    1
     7     7     8    2
     8     7     9    1
     9     8    10    1
    10     9    11    2
    11    10    12    2
    12    11    12    1
