@<TRIPOS>MOLECULE
/home/cewinharhar/GITHUB/reincatalyze/data/processed/docking_pred/2023-Apr-26-1657_maxeplen10_maxtrainstep1000_exh32_gamma099_lrac9e-4_lrcr1e-3/2d863d4e78c56822cb27942f8f89755da93ab859_ligand_2.pdbqt
 12 12 0 0 0
SMALL
GASTEIGER

@<TRIPOS>ATOM
      1  C          8.4790   -0.6390   -2.1110 C.3     1  UNL1        0.1270
      2  C          8.4860   -1.8940   -2.8990 C.2     1  UNL1        0.3030
      3  O          9.5530   -2.5200   -3.1170 O.2     1  UNL1       -0.2520
      4  O          7.3110   -2.4120   -3.4190 O.3     1  UNL1       -0.4810
      5  H          6.8880   -3.2340   -2.9790 H       1  UNL1        0.2960
      6  C          7.0850   -0.0900   -2.1120 C.3     1  UNL1        0.0470
      7  C          6.5060    0.0620   -0.7780 C.2     1  UNL1       -0.0470
      8  C          6.6320   -0.9330    0.1620 C.2     1  UNL1        0.0040
      9  C          5.8290    1.2200   -0.4690 C.2     1  UNL1        0.0040
     10  C          6.0540   -0.7190    1.4150 C.2     1  UNL1        0.0000
     11  C          5.2580    1.4300    0.7700 C.2     1  UNL1        0.0000
     12  C          5.3800    0.4370    1.7180 C.2     1  UNL1        0.0000
@<TRIPOS>BOND
     1     4     5    1
     2     4     2    1
     3     3     2    2
     4     2     1    1
     5     6     1    1
     6     6     7    1
     7     7     9    2
     8     7     8    1
     9     9    11    1
    10     8    10    2
    11    11    12    2
    12    10    12    1
