MODEL 1
REMARK VINA RESULT:      -7.4      0.000      0.000
REMARK SMILES O=C(O)CCc1ccccc1
REMARK SMILES IDX 4 1 2 2 1 3 3 4 5 6 6 7 7 8 11 9 8 10 10 11 9 12
REMARK H PARENT 3 5
REMARK Flexibility Score: inf
ROOT
ATOM      1  C   UNL     1       8.479  -0.639  -2.111  1.00  0.00     0.127 C 
ENDROOT
BRANCH   1   2
ATOM      2  C   UNL     1       8.486  -1.894  -2.899  1.00  0.00     0.303 C 
ATOM      3  O   UNL     1       9.553  -2.520  -3.117  1.00  0.00    -0.252 OA
BRANCH   2   4
ATOM      4  O   UNL     1       7.311  -2.412  -3.419  1.00  0.00    -0.481 OA
ATOM      5  H   UNL     1       6.888  -3.234  -2.979  1.00  0.00     0.296 HD
ENDBRANCH   2   4
ENDBRANCH   1   2
BRANCH   1   6
ATOM      6  C   UNL     1       7.085  -0.090  -2.112  1.00  0.00     0.047 C 
BRANCH   6   7
ATOM      7  C   UNL     1       6.506   0.062  -0.778  1.00  0.00    -0.047 A 
ATOM      8  C   UNL     1       6.632  -0.933   0.162  1.00  0.00     0.004 A 
ATOM      9  C   UNL     1       5.829   1.220  -0.469  1.00  0.00     0.004 A 
ATOM     10  C   UNL     1       6.054  -0.719   1.415  1.00  0.00     0.000 A 
ATOM     11  C   UNL     1       5.258   1.430   0.770  1.00  0.00     0.000 A 
ATOM     12  C   UNL     1       5.380   0.437   1.718  1.00  0.00     0.000 A 
ENDBRANCH   6   7
ENDBRANCH   1   6
TORSDOF 4
ENDMDL
MODEL 2
REMARK VINA RESULT:      -7.3      0.111      1.440
REMARK SMILES O=C(O)CCc1ccccc1
REMARK SMILES IDX 4 1 2 2 1 3 3 4 5 6 6 7 7 8 11 9 8 10 10 11 9 12
REMARK H PARENT 3 5
REMARK Flexibility Score: inf
ROOT
ATOM      1  C   UNL     1       8.427  -0.614  -2.163  1.00  0.00     0.127 C 
ENDROOT
BRANCH   1   2
ATOM      2  C   UNL     1       8.474  -1.897  -2.905  1.00  0.00     0.303 C 
ATOM      3  O   UNL     1       9.558  -2.502  -3.090  1.00  0.00    -0.252 OA
BRANCH   2   4
ATOM      4  O   UNL     1       7.318  -2.464  -3.416  1.00  0.00    -0.481 OA
ATOM      5  H   UNL     1       7.391  -3.202  -4.122  1.00  0.00     0.296 HD
ENDBRANCH   2   4
ENDBRANCH   1   2
BRANCH   1   6
ATOM      6  C   UNL     1       7.005  -0.143  -2.127  1.00  0.00     0.047 C 
BRANCH   6   7
ATOM      7  C   UNL     1       6.473   0.039  -0.778  1.00  0.00    -0.047 A 
ATOM      8  C   UNL     1       5.857   1.215  -0.417  1.00  0.00     0.004 A 
ATOM      9  C   UNL     1       6.593  -0.983   0.135  1.00  0.00     0.004 A 
ATOM     10  C   UNL     1       5.372   1.319   0.888  1.00  0.00     0.000 A 
ATOM     11  C   UNL     1       6.114  -0.879   1.425  1.00  0.00     0.000 A 
ATOM     12  C   UNL     1       5.495   0.296   1.795  1.00  0.00     0.000 A 
ENDBRANCH   6   7
ENDBRANCH   1   6
TORSDOF 4
ENDMDL
MODEL 3
REMARK VINA RESULT:      -7.0      0.611      1.842
REMARK SMILES O=C(O)CCc1ccccc1
REMARK SMILES IDX 4 1 2 2 1 3 3 4 5 6 6 7 7 8 11 9 8 10 10 11 9 12
REMARK H PARENT 3 5
REMARK Flexibility Score: inf
ROOT
ATOM      1  C   UNL     1       8.329  -0.797  -1.971  1.00  0.00     0.127 C 
ENDROOT
BRANCH   1   2
ATOM      2  C   UNL     1       8.375  -1.953  -2.896  1.00  0.00     0.303 C 
ATOM      3  O   UNL     1       7.323  -2.452  -3.368  1.00  0.00    -0.252 OA
BRANCH   2   4
ATOM      4  O   UNL     1       9.585  -2.518  -3.266  1.00  0.00    -0.481 OA
ATOM      5  H   UNL     1       9.602  -3.223  -4.009  1.00  0.00     0.296 HD
ENDBRANCH   2   4
ENDBRANCH   1   2
BRANCH   1   6
ATOM      6  C   UNL     1       7.674  -1.238  -0.697  1.00  0.00     0.047 C 
BRANCH   6   7
ATOM      7  C   UNL     1       6.748  -0.258  -0.134  1.00  0.00    -0.047 A 
ATOM      8  C   UNL     1       6.313   0.811  -0.883  1.00  0.00     0.004 A 
ATOM      9  C   UNL     1       6.309  -0.415   1.160  1.00  0.00     0.004 A 
ATOM     10  C   UNL     1       5.428   1.708  -0.281  1.00  0.00     0.000 A 
ATOM     11  C   UNL     1       5.434   0.472   1.754  1.00  0.00     0.000 A 
ATOM     12  C   UNL     1       4.994   1.546   1.011  1.00  0.00     0.000 A 
ENDBRANCH   6   7
ENDBRANCH   1   6
TORSDOF 4
ENDMDL
MODEL 4
REMARK VINA RESULT:      -6.7      3.332      5.045
REMARK SMILES O=C(O)CCc1ccccc1
REMARK SMILES IDX 4 1 2 2 1 3 3 4 5 6 6 7 7 8 11 9 8 10 10 11 9 12
REMARK H PARENT 3 5
REMARK Flexibility Score: inf
ROOT
ATOM      1  C   UNL     1       5.063   1.680   0.692  1.00  0.00     0.127 C 
ENDROOT
BRANCH   1   2
ATOM      2  C   UNL     1       4.591   1.011   1.927  1.00  0.00     0.303 C 
ATOM      3  O   UNL     1       5.289   0.141   2.503  1.00  0.00    -0.252 OA
BRANCH   2   4
ATOM      4  O   UNL     1       3.361   1.330   2.481  1.00  0.00    -0.481 OA
ATOM      5  H   UNL     1       2.509   1.163   1.939  1.00  0.00     0.296 HD
ENDBRANCH   2   4
ENDBRANCH   1   2
BRANCH   1   6
ATOM      6  C   UNL     1       6.560   1.722   0.722  1.00  0.00     0.047 C 
BRANCH   6   7
ATOM      7  C   UNL     1       7.198   0.978  -0.363  1.00  0.00    -0.047 A 
ATOM      8  C   UNL     1       8.514   1.205  -0.693  1.00  0.00     0.004 A 
ATOM      9  C   UNL     1       6.467   0.040  -1.055  1.00  0.00     0.004 A 
ATOM     10  C   UNL     1       9.058   0.457  -1.740  1.00  0.00     0.000 A 
ATOM     11  C   UNL     1       7.006  -0.698  -2.089  1.00  0.00     0.000 A 
ATOM     12  C   UNL     1       8.323  -0.476  -2.427  1.00  0.00     0.000 A 
ENDBRANCH   6   7
ENDBRANCH   1   6
TORSDOF 4
ENDMDL
MODEL 5
REMARK VINA RESULT:      -6.6      2.010      2.303
REMARK SMILES O=C(O)CCc1ccccc1
REMARK SMILES IDX 4 1 2 2 1 3 3 4 5 6 6 7 7 8 11 9 8 10 10 11 9 12
REMARK H PARENT 3 5
REMARK Flexibility Score: inf
ROOT
ATOM      1  C   UNL     1       8.262   0.500  -1.918  1.00  0.00     0.127 C 
ENDROOT
BRANCH   1   2
ATOM      2  C   UNL     1       9.471   0.432  -1.062  1.00  0.00     0.303 C 
ATOM      3  O   UNL     1       9.536  -0.359  -0.089  1.00  0.00    -0.252 OA
BRANCH   2   4
ATOM      4  O   UNL     1      10.565   1.244  -1.314  1.00  0.00    -0.481 OA
ATOM      5  H   UNL     1      10.478   2.007  -1.991  1.00  0.00     0.296 HD
ENDBRANCH   2   4
ENDBRANCH   1   2
BRANCH   1   6
ATOM      6  C   UNL     1       7.234  -0.433  -1.355  1.00  0.00     0.047 C 
BRANCH   6   7
ATOM      7  C   UNL     1       6.399   0.162  -0.313  1.00  0.00    -0.047 A 
ATOM      8  C   UNL     1       6.215  -0.477   0.892  1.00  0.00     0.004 A 
ATOM      9  C   UNL     1       5.795   1.375  -0.548  1.00  0.00     0.004 A 
ATOM     10  C   UNL     1       5.405   0.150   1.841  1.00  0.00     0.000 A 
ATOM     11  C   UNL     1       4.994   1.994   0.392  1.00  0.00     0.000 A 
ATOM     12  C   UNL     1       4.805   1.360   1.601  1.00  0.00     0.000 A 
ENDBRANCH   6   7
ENDBRANCH   1   6
TORSDOF 4
ENDMDL
