@<TRIPOS>MOLECULE
/home/cewinharhar/GITHUB/reincatalyze/data/processed/docking_pred/2023-Apr-26-1657_maxeplen10_maxtrainstep1000_exh32_gamma099_lrac9e-4_lrcr1e-3/2f41e52dfc6618f39d2325611a45b0a1c53476a0_ligand_2.pdbqt
 12 12 0 0 0
SMALL
GASTEIGER

@<TRIPOS>ATOM
      1  C          8.1360   -0.7020   -2.1040 C.3     1  UNL1        0.1270
      2  C          8.3240   -1.9220   -2.9230 C.2     1  UNL1        0.3030
      3  O          9.4600   -2.4350   -3.0750 O.2     1  UNL1       -0.2520
      4  O          7.2470   -2.5320   -3.5460 O.3     1  UNL1       -0.4810
      5  H          7.4120   -3.1270   -4.3630 H       1  UNL1        0.2960
      6  C          7.6680   -1.1160   -0.7420 C.3     1  UNL1        0.0470
      7  C          6.7250   -0.1840   -0.1280 C.2     1  UNL1       -0.0470
      8  C          6.2730   -0.3840    1.1560 C.2     1  UNL1        0.0040
      9  C          6.2910    0.9050   -0.8490 C.2     1  UNL1        0.0040
     10  C          5.3730    0.5480    1.6790 C.2     1  UNL1        0.0000
     11  C          5.4020    1.8250   -0.3310 C.2     1  UNL1        0.0000
     12  C          4.9430    1.6310    0.9540 C.2     1  UNL1        0.0000
@<TRIPOS>BOND
     1     5     4    1
     2     4     2    1
     3     3     2    2
     4     2     1    1
     5     1     6    1
     6     9    11    1
     7     9     7    2
     8     6     7    1
     9    11    12    2
    10     7     8    1
    11    12    10    1
    12     8    10    2
