MODEL 1
REMARK VINA RESULT:      -7.4      0.000      0.000
REMARK SMILES O=C(O)CCc1ccccc1
REMARK SMILES IDX 4 1 2 2 1 3 3 4 5 6 6 7 7 8 11 9 8 10 10 11 9 12
REMARK H PARENT 3 5
REMARK Flexibility Score: inf
ROOT
ATOM      1  C   UNL     1       8.500  -0.618  -2.131  1.00  0.00     0.127 C 
ENDROOT
BRANCH   1   2
ATOM      2  C   UNL     1       8.517  -1.888  -2.895  1.00  0.00     0.303 C 
ATOM      3  O   UNL     1       9.592  -2.497  -3.121  1.00  0.00    -0.252 OA
BRANCH   2   4
ATOM      4  O   UNL     1       7.342  -2.439  -3.381  1.00  0.00    -0.481 OA
ATOM      5  H   UNL     1       6.642  -2.788  -2.721  1.00  0.00     0.296 HD
ENDBRANCH   2   4
ENDBRANCH   1   2
BRANCH   1   6
ATOM      6  C   UNL     1       7.099  -0.088  -2.129  1.00  0.00     0.047 C 
BRANCH   6   7
ATOM      7  C   UNL     1       6.520   0.059  -0.795  1.00  0.00    -0.047 A 
ATOM      8  C   UNL     1       6.650  -0.941   0.142  1.00  0.00     0.004 A 
ATOM      9  C   UNL     1       5.842   1.213  -0.480  1.00  0.00     0.004 A 
ATOM     10  C   UNL     1       6.073  -0.732   1.396  1.00  0.00     0.000 A 
ATOM     11  C   UNL     1       5.272   1.418   0.761  1.00  0.00     0.000 A 
ATOM     12  C   UNL     1       5.397   0.421   1.704  1.00  0.00     0.000 A 
ENDBRANCH   6   7
ENDBRANCH   1   6
TORSDOF 4
ENDMDL
MODEL 2
REMARK VINA RESULT:      -7.3      0.140      1.734
REMARK SMILES O=C(O)CCc1ccccc1
REMARK SMILES IDX 4 1 2 2 1 3 3 4 5 6 6 7 7 8 11 9 8 10 10 11 9 12
REMARK H PARENT 3 5
REMARK Flexibility Score: inf
ROOT
ATOM      1  C   UNL     1       8.388  -0.641  -2.091  1.00  0.00     0.127 C 
ENDROOT
BRANCH   1   2
ATOM      2  C   UNL     1       8.370  -1.892  -2.886  1.00  0.00     0.303 C 
ATOM      3  O   UNL     1       7.289  -2.416  -3.251  1.00  0.00    -0.252 OA
BRANCH   2   4
ATOM      4  O   UNL     1       9.551  -2.519  -3.249  1.00  0.00    -0.481 OA
ATOM      5  H   UNL     1      10.000  -2.269  -4.134  1.00  0.00     0.296 HD
ENDBRANCH   2   4
ENDBRANCH   1   2
BRANCH   1   6
ATOM      6  C   UNL     1       6.999  -0.079  -2.068  1.00  0.00     0.047 C 
BRANCH   6   7
ATOM      7  C   UNL     1       6.447   0.085  -0.724  1.00  0.00    -0.047 A 
ATOM      8  C   UNL     1       5.811   1.250  -0.363  1.00  0.00     0.004 A 
ATOM      9  C   UNL     1       6.567  -0.943   0.182  1.00  0.00     0.004 A 
ATOM     10  C   UNL     1       5.307   1.337   0.937  1.00  0.00     0.000 A 
ATOM     11  C   UNL     1       6.069  -0.855   1.466  1.00  0.00     0.000 A 
ATOM     12  C   UNL     1       5.431   0.309   1.836  1.00  0.00     0.000 A 
ENDBRANCH   6   7
ENDBRANCH   1   6
TORSDOF 4
ENDMDL
MODEL 3
REMARK VINA RESULT:      -7.1      0.610      1.037
REMARK SMILES O=C(O)CCc1ccccc1
REMARK SMILES IDX 4 1 2 2 1 3 3 4 5 6 6 7 7 8 11 9 8 10 10 11 9 12
REMARK H PARENT 3 5
REMARK Flexibility Score: inf
ROOT
ATOM      1  C   UNL     1       8.136  -0.702  -2.104  1.00  0.00     0.127 C 
ENDROOT
BRANCH   1   2
ATOM      2  C   UNL     1       8.324  -1.922  -2.923  1.00  0.00     0.303 C 
ATOM      3  O   UNL     1       9.460  -2.435  -3.075  1.00  0.00    -0.252 OA
BRANCH   2   4
ATOM      4  O   UNL     1       7.247  -2.532  -3.546  1.00  0.00    -0.481 OA
ATOM      5  H   UNL     1       7.412  -3.127  -4.363  1.00  0.00     0.296 HD
ENDBRANCH   2   4
ENDBRANCH   1   2
BRANCH   1   6
ATOM      6  C   UNL     1       7.668  -1.116  -0.742  1.00  0.00     0.047 C 
BRANCH   6   7
ATOM      7  C   UNL     1       6.725  -0.184  -0.128  1.00  0.00    -0.047 A 
ATOM      8  C   UNL     1       6.273  -0.384   1.156  1.00  0.00     0.004 A 
ATOM      9  C   UNL     1       6.291   0.905  -0.849  1.00  0.00     0.004 A 
ATOM     10  C   UNL     1       5.373   0.548   1.679  1.00  0.00     0.000 A 
ATOM     11  C   UNL     1       5.402   1.825  -0.331  1.00  0.00     0.000 A 
ATOM     12  C   UNL     1       4.943   1.631   0.954  1.00  0.00     0.000 A 
ENDBRANCH   6   7
ENDBRANCH   1   6
TORSDOF 4
ENDMDL
MODEL 4
REMARK VINA RESULT:      -6.7      3.335      5.042
REMARK SMILES O=C(O)CCc1ccccc1
REMARK SMILES IDX 4 1 2 2 1 3 3 4 5 6 6 7 7 8 11 9 8 10 10 11 9 12
REMARK H PARENT 3 5
REMARK Flexibility Score: inf
ROOT
ATOM      1  C   UNL     1       5.032   1.772   0.706  1.00  0.00     0.127 C 
ENDROOT
BRANCH   1   2
ATOM      2  C   UNL     1       4.579   1.064   1.926  1.00  0.00     0.303 C 
ATOM      3  O   UNL     1       5.302   0.201   2.484  1.00  0.00    -0.252 OA
BRANCH   2   4
ATOM      4  O   UNL     1       3.341   1.335   2.486  1.00  0.00    -0.481 OA
ATOM      5  H   UNL     1       2.494   1.011   2.010  1.00  0.00     0.296 HD
ENDBRANCH   2   4
ENDBRANCH   1   2
BRANCH   1   6
ATOM      6  C   UNL     1       6.530   1.807   0.711  1.00  0.00     0.047 C 
BRANCH   6   7
ATOM      7  C   UNL     1       7.146   1.036  -0.368  1.00  0.00    -0.047 A 
ATOM      8  C   UNL     1       6.402   0.155  -1.117  1.00  0.00     0.004 A 
ATOM      9  C   UNL     1       8.486   1.202  -0.631  1.00  0.00     0.004 A 
ATOM     10  C   UNL     1       7.056  -0.547  -2.133  1.00  0.00     0.000 A 
ATOM     11  C   UNL     1       9.131   0.507  -1.635  1.00  0.00     0.000 A 
ATOM     12  C   UNL     1       8.393  -0.378  -2.390  1.00  0.00     0.000 A 
ENDBRANCH   6   7
ENDBRANCH   1   6
TORSDOF 4
ENDMDL
MODEL 5
REMARK VINA RESULT:      -6.6      1.917      2.633
REMARK SMILES O=C(O)CCc1ccccc1
REMARK SMILES IDX 4 1 2 2 1 3 3 4 5 6 6 7 7 8 11 9 8 10 10 11 9 12
REMARK H PARENT 3 5
REMARK Flexibility Score: inf
ROOT
ATOM      1  C   UNL     1       8.229   0.103  -2.192  1.00  0.00     0.127 C 
ENDROOT
BRANCH   1   2
ATOM      2  C   UNL     1       9.334   0.309  -1.227  1.00  0.00     0.303 C 
ATOM      3  O   UNL     1       9.452  -0.418  -0.209  1.00  0.00    -0.252 OA
BRANCH   2   4
ATOM      4  O   UNL     1      10.269   1.312  -1.421  1.00  0.00    -0.481 OA
ATOM      5  H   UNL     1      10.022   2.123  -1.996  1.00  0.00     0.296 HD
ENDBRANCH   2   4
ENDBRANCH   1   2
BRANCH   1   6
ATOM      6  C   UNL     1       7.109  -0.597  -1.484  1.00  0.00     0.047 C 
BRANCH   6   7
ATOM      7  C   UNL     1       6.332   0.269  -0.599  1.00  0.00    -0.047 A 
ATOM      8  C   UNL     1       5.831   1.468  -1.051  1.00  0.00     0.004 A 
ATOM      9  C   UNL     1       6.103  -0.128   0.698  1.00  0.00     0.004 A 
ATOM     10  C   UNL     1       5.096   2.244  -0.151  1.00  0.00     0.000 A 
ATOM     11  C   UNL     1       5.377   0.640   1.586  1.00  0.00     0.000 A 
ATOM     12  C   UNL     1       4.872   1.843   1.142  1.00  0.00     0.000 A 
ENDBRANCH   6   7
ENDBRANCH   1   6
TORSDOF 4
ENDMDL
