@<TRIPOS>MOLECULE
/home/cewinharhar/GITHUB/reincatalyze/data/processed/docking_pred/2023-Apr-26-1657_maxeplen10_maxtrainstep1000_exh32_gamma099_lrac9e-4_lrcr1e-3/2f41e52dfc6618f39d2325611a45b0a1c53476a0_ligand_2.pdbqt
 12 12 0 0 0
SMALL
GASTEIGER

@<TRIPOS>ATOM
      1  C          5.0320    1.7720    0.7060 C.3     1  UNL1        0.1270
      2  C          4.5790    1.0640    1.9260 C.2     1  UNL1        0.3030
      3  O          5.3020    0.2010    2.4840 O.2     1  UNL1       -0.2520
      4  O          3.3410    1.3350    2.4860 O.3     1  UNL1       -0.4810
      5  H          2.4940    1.0110    2.0100 H       1  UNL1        0.2960
      6  C          6.5300    1.8070    0.7110 C.3     1  UNL1        0.0470
      7  C          7.1460    1.0360   -0.3680 C.2     1  UNL1       -0.0470
      8  C          6.4020    0.1550   -1.1170 C.2     1  UNL1        0.0040
      9  C          8.4860    1.2020   -0.6310 C.2     1  UNL1        0.0040
     10  C          7.0560   -0.5470   -2.1330 C.2     1  UNL1        0.0000
     11  C          9.1310    0.5070   -1.6350 C.2     1  UNL1        0.0000
     12  C          8.3930   -0.3780   -2.3900 C.2     1  UNL1        0.0000
@<TRIPOS>BOND
     1    12    10    2
     2    12    11    1
     3    10     8    1
     4    11     9    2
     5     8     7    2
     6     9     7    1
     7     7     6    1
     8     1     6    1
     9     1     2    1
    10     2     3    2
    11     2     4    1
    12     5     4    1
