@<TRIPOS>MOLECULE
/home/cewinharhar/GITHUB/reincatalyze/data/processed/docking_pred/2023-Apr-26-1657_maxeplen10_maxtrainstep1000_exh32_gamma099_lrac9e-4_lrcr1e-3/2f41e52dfc6618f39d2325611a45b0a1c53476a0_ligand_2.pdbqt
 12 12 0 0 0
SMALL
GASTEIGER

@<TRIPOS>ATOM
      1  C          8.5000   -0.6180   -2.1310 C.3     1  UNL1        0.1270
      2  C          8.5170   -1.8880   -2.8950 C.2     1  UNL1        0.3030
      3  O          9.5920   -2.4970   -3.1210 O.2     1  UNL1       -0.2520
      4  O          7.3420   -2.4390   -3.3810 O.3     1  UNL1       -0.4810
      5  H          6.6420   -2.7880   -2.7210 H       1  UNL1        0.2960
      6  C          7.0990   -0.0880   -2.1290 C.3     1  UNL1        0.0470
      7  C          6.5200    0.0590   -0.7950 C.2     1  UNL1       -0.0470
      8  C          6.6500   -0.9410    0.1420 C.2     1  UNL1        0.0040
      9  C          5.8420    1.2130   -0.4800 C.2     1  UNL1        0.0040
     10  C          6.0730   -0.7320    1.3960 C.2     1  UNL1        0.0000
     11  C          5.2720    1.4180    0.7610 C.2     1  UNL1        0.0000
     12  C          5.3970    0.4210    1.7040 C.2     1  UNL1        0.0000
@<TRIPOS>BOND
     1     4     2    1
     2     4     5    1
     3     3     2    2
     4     2     1    1
     5     1     6    1
     6     6     7    1
     7     7     9    2
     8     7     8    1
     9     9    11    1
    10     8    10    2
    11    11    12    2
    12    10    12    1
