@<TRIPOS>MOLECULE
/home/cewinharhar/GITHUB/reincatalyze/data/processed/docking_pred/2023-Apr-26-1657_maxeplen10_maxtrainstep1000_exh32_gamma099_lrac9e-4_lrcr1e-3/2f41e52dfc6618f39d2325611a45b0a1c53476a0_ligand_2.pdbqt
 12 12 0 0 0
SMALL
GASTEIGER

@<TRIPOS>ATOM
      1  C          8.2290    0.1030   -2.1920 C.3     1  UNL1        0.1270
      2  C          9.3340    0.3090   -1.2270 C.2     1  UNL1        0.3030
      3  O          9.4520   -0.4180   -0.2090 O.2     1  UNL1       -0.2520
      4  O         10.2690    1.3120   -1.4210 O.3     1  UNL1       -0.4810
      5  H         10.0220    2.1230   -1.9960 H       1  UNL1        0.2960
      6  C          7.1090   -0.5970   -1.4840 C.3     1  UNL1        0.0470
      7  C          6.3320    0.2690   -0.5990 C.2     1  UNL1       -0.0470
      8  C          5.8310    1.4680   -1.0510 C.2     1  UNL1        0.0040
      9  C          6.1030   -0.1280    0.6980 C.2     1  UNL1        0.0040
     10  C          5.0960    2.2440   -0.1510 C.2     1  UNL1        0.0000
     11  C          5.3770    0.6400    1.5860 C.2     1  UNL1        0.0000
     12  C          4.8720    1.8430    1.1420 C.2     1  UNL1        0.0000
@<TRIPOS>BOND
     1     1     6    1
     2     1     2    1
     3     5     4    1
     4     6     7    1
     5     4     2    1
     6     2     3    2
     7     8     7    2
     8     8    10    1
     9     7     9    1
    10    10    12    2
    11     9    11    2
    12    12    11    1
