@<TRIPOS>MOLECULE
/home/cewinharhar/GITHUB/reincatalyze/data/processed/docking_pred/2023-Apr-26-1657_maxeplen10_maxtrainstep1000_exh32_gamma099_lrac9e-4_lrcr1e-3/30246d56752cb6be0208f58fab85103c625ac011_ligand_2.pdbqt
 12 12 0 0 0
SMALL
GASTEIGER

@<TRIPOS>ATOM
      1  C          5.0150    1.7800    0.7100 C.3     1  UNL1        0.1270
      2  C          4.4810    1.1030    1.9150 C.2     1  UNL1        0.3030
      3  O          5.1240    0.1860    2.4850 O.2     1  UNL1       -0.2520
      4  O          3.2540    1.4640    2.4480 O.3     1  UNL1       -0.4810
      5  H          2.7160    2.2120    2.0030 H       1  UNL1        0.2960
      6  C          6.5120    1.7530    0.7780 C.3     1  UNL1        0.0470
      7  C          7.1440    1.0240   -0.3200 C.2     1  UNL1       -0.0470
      8  C          8.4560    1.2620   -0.6580 C.2     1  UNL1        0.0040
      9  C          6.4110    0.0920   -1.0170 C.2     1  UNL1        0.0040
     10  C          8.9960    0.5290   -1.7180 C.2     1  UNL1        0.0000
     11  C          6.9460   -0.6320   -2.0650 C.2     1  UNL1        0.0000
     12  C          8.2600   -0.3990   -2.4100 C.2     1  UNL1        0.0000
@<TRIPOS>BOND
     1    12    11    2
     2    12    10    1
     3    11     9    1
     4    10     8    2
     5     9     7    2
     6     8     7    1
     7     7     6    1
     8     1     6    1
     9     1     2    1
    10     2     4    1
    11     2     3    2
    12     5     4    1
