@<TRIPOS>MOLECULE
/home/cewinharhar/GITHUB/reincatalyze/data/processed/docking_pred/2023-Apr-26-1657_maxeplen10_maxtrainstep1000_exh32_gamma099_lrac9e-4_lrcr1e-3/30246d56752cb6be0208f58fab85103c625ac011_ligand_2.pdbqt
 12 12 0 0 0
SMALL
GASTEIGER

@<TRIPOS>ATOM
      1  C          8.4220   -0.5990   -2.1820 C.3     1  UNL1        0.1270
      2  C          8.4660   -1.8910   -2.9070 C.2     1  UNL1        0.3030
      3  O          9.5460   -2.5120   -3.0660 O.2     1  UNL1       -0.2520
      4  O          7.3110   -2.4510   -3.4300 O.3     1  UNL1       -0.4810
      5  H          7.0360   -3.3940   -3.1410 H       1  UNL1        0.2960
      6  C          7.0010   -0.1240   -2.1510 C.3     1  UNL1        0.0470
      7  C          6.4690    0.0690   -0.8030 C.2     1  UNL1       -0.0470
      8  C          5.8460    1.2450   -0.4550 C.2     1  UNL1        0.0040
      9  C          6.5950   -0.9430    0.1200 C.2     1  UNL1        0.0040
     10  C          5.3600    1.3590    0.8490 C.2     1  UNL1        0.0000
     11  C          6.1150   -0.8280    1.4090 C.2     1  UNL1        0.0000
     12  C          5.4900    0.3470    1.7660 C.2     1  UNL1        0.0000
@<TRIPOS>BOND
     1     4     5    1
     2     4     2    1
     3     3     2    2
     4     2     1    1
     5     1     6    1
     6     6     7    1
     7     7     8    2
     8     7     9    1
     9     8    10    1
    10     9    11    2
    11    10    12    2
    12    11    12    1
