@<TRIPOS>MOLECULE
/home/cewinharhar/GITHUB/reincatalyze/data/processed/docking_pred/2023-Apr-26-1657_maxeplen10_maxtrainstep1000_exh32_gamma099_lrac9e-4_lrcr1e-3/30246d56752cb6be0208f58fab85103c625ac011_ligand_2.pdbqt
 12 12 0 0 0
SMALL
GASTEIGER

@<TRIPOS>ATOM
      1  C          5.4830    2.8790   -0.0080 C.3     1  UNL1        0.1270
      2  C          6.2560    3.8560    0.7950 C.2     1  UNL1        0.3030
      3  O          6.9140    4.7740    0.2460 O.2     1  UNL1       -0.2520
      4  O          6.2740    3.7820    2.1780 O.3     1  UNL1       -0.4810
      5  H          7.1730    3.7280    2.6650 H       1  UNL1        0.2960
      6  C          4.9300    1.8410    0.9190 C.3     1  UNL1        0.0470
      7  C          5.7080    0.6030    0.9580 C.2     1  UNL1       -0.0470
      8  C          5.7960   -0.1360    2.1140 C.2     1  UNL1        0.0040
      9  C          6.3530    0.1800   -0.1810 C.2     1  UNL1        0.0040
     10  C          6.5550   -1.3080    2.0780 C.2     1  UNL1        0.0000
     11  C          7.1040   -0.9780   -0.2150 C.2     1  UNL1        0.0000
     12  C          7.1980   -1.7240    0.9400 C.2     1  UNL1        0.0000
@<TRIPOS>BOND
     1    11     9    1
     2    11    12    2
     3     9     7    2
     4     1     2    1
     5     1     6    1
     6     3     2    2
     7     2     4    1
     8     6     7    1
     9    12    10    1
    10     7     8    1
    11    10     8    2
    12     4     5    1
