@<TRIPOS>MOLECULE
/home/cewinharhar/GITHUB/reincatalyze/data/processed/docking_pred/2023-Apr-26-1657_maxeplen10_maxtrainstep1000_exh32_gamma099_lrac9e-4_lrcr1e-3/30246d56752cb6be0208f58fab85103c625ac011_ligand_2.pdbqt
 12 12 0 0 0
SMALL
GASTEIGER

@<TRIPOS>ATOM
      1  C          8.2200    0.2620   -2.0860 C.3     1  UNL1        0.1270
      2  C          9.3950    0.3620   -1.1880 C.2     1  UNL1        0.3030
      3  O          9.5040   -0.3710   -0.1740 O.2     1  UNL1       -0.2520
      4  O         10.4100    1.2700   -1.4450 O.3     1  UNL1       -0.4810
      5  H         10.5270    2.0780   -0.8280 H       1  UNL1        0.2960
      6  C          7.1810   -0.5790   -1.4090 C.3     1  UNL1        0.0470
      7  C          6.3760    0.1470   -0.4270 C.2     1  UNL1       -0.0470
      8  C          6.1600   -0.3740    0.8270 C.2     1  UNL1        0.0040
      9  C          5.8350    1.3640   -0.7710 C.2     1  UNL1        0.0040
     10  C          5.3820    0.3740    1.7140 C.2     1  UNL1        0.0000
     11  C          5.0660    2.1020    0.1070 C.2     1  UNL1        0.0000
     12  C          4.8440    1.5870    1.3660 C.2     1  UNL1        0.0000
@<TRIPOS>BOND
     1     1     6    1
     2     1     2    1
     3     4     2    1
     4     4     5    1
     5     6     7    1
     6     2     3    2
     7     9     7    2
     8     9    11    1
     9     7     8    1
    10    11    12    2
    11     8    10    2
    12    12    10    1
