MODEL 1
REMARK VINA RESULT:      -7.3      0.000      0.000
REMARK SMILES O=C(O)CCc1ccccc1
REMARK SMILES IDX 4 1 2 2 1 3 3 4 5 6 6 7 7 8 11 9 8 10 10 11 9 12
REMARK H PARENT 3 5
REMARK Flexibility Score: inf
ROOT
ATOM      1  C   UNL     1       8.436  -0.588  -2.202  1.00  0.00     0.127 C 
ENDROOT
BRANCH   1   2
ATOM      2  C   UNL     1       8.482  -1.884  -2.919  1.00  0.00     0.303 C 
ATOM      3  O   UNL     1       9.567  -2.492  -3.094  1.00  0.00    -0.252 OA
BRANCH   2   4
ATOM      4  O   UNL     1       7.326  -2.462  -3.418  1.00  0.00    -0.481 OA
ATOM      5  H   UNL     1       7.212  -3.478  -3.368  1.00  0.00     0.296 HD
ENDBRANCH   2   4
ENDBRANCH   1   2
BRANCH   1   6
ATOM      6  C   UNL     1       7.011  -0.125  -2.158  1.00  0.00     0.047 C 
BRANCH   6   7
ATOM      7  C   UNL     1       6.482   0.040  -0.806  1.00  0.00    -0.047 A 
ATOM      8  C   UNL     1       6.617  -0.959   0.130  1.00  0.00     0.004 A 
ATOM      9  C   UNL     1       5.844   1.213  -0.474  1.00  0.00     0.004 A 
ATOM     10  C   UNL     1       6.088  -0.731   1.402  1.00  0.00     0.000 A 
ATOM     11  C   UNL     1       5.321   1.436   0.785  1.00  0.00     0.000 A 
ATOM     12  C   UNL     1       5.452   0.440   1.728  1.00  0.00     0.000 A 
ENDBRANCH   6   7
ENDBRANCH   1   6
TORSDOF 4
ENDMDL
MODEL 2
REMARK VINA RESULT:      -7.3      0.060      1.437
REMARK SMILES O=C(O)CCc1ccccc1
REMARK SMILES IDX 4 1 2 2 1 3 3 4 5 6 6 7 7 8 11 9 8 10 10 11 9 12
REMARK H PARENT 3 5
REMARK Flexibility Score: inf
ROOT
ATOM      1  C   UNL     1       8.422  -0.599  -2.182  1.00  0.00     0.127 C 
ENDROOT
BRANCH   1   2
ATOM      2  C   UNL     1       8.466  -1.891  -2.907  1.00  0.00     0.303 C 
ATOM      3  O   UNL     1       9.546  -2.512  -3.066  1.00  0.00    -0.252 OA
BRANCH   2   4
ATOM      4  O   UNL     1       7.311  -2.451  -3.430  1.00  0.00    -0.481 OA
ATOM      5  H   UNL     1       7.036  -3.394  -3.141  1.00  0.00     0.296 HD
ENDBRANCH   2   4
ENDBRANCH   1   2
BRANCH   1   6
ATOM      6  C   UNL     1       7.001  -0.124  -2.151  1.00  0.00     0.047 C 
BRANCH   6   7
ATOM      7  C   UNL     1       6.469   0.069  -0.803  1.00  0.00    -0.047 A 
ATOM      8  C   UNL     1       5.846   1.245  -0.455  1.00  0.00     0.004 A 
ATOM      9  C   UNL     1       6.595  -0.943   0.120  1.00  0.00     0.004 A 
ATOM     10  C   UNL     1       5.360   1.359   0.849  1.00  0.00     0.000 A 
ATOM     11  C   UNL     1       6.115  -0.828   1.409  1.00  0.00     0.000 A 
ATOM     12  C   UNL     1       5.490   0.347   1.766  1.00  0.00     0.000 A 
ENDBRANCH   6   7
ENDBRANCH   1   6
TORSDOF 4
ENDMDL
MODEL 3
REMARK VINA RESULT:      -6.8      3.378      5.080
REMARK SMILES O=C(O)CCc1ccccc1
REMARK SMILES IDX 4 1 2 2 1 3 3 4 5 6 6 7 7 8 11 9 8 10 10 11 9 12
REMARK H PARENT 3 5
REMARK Flexibility Score: inf
ROOT
ATOM      1  C   UNL     1       5.015   1.780   0.710  1.00  0.00     0.127 C 
ENDROOT
BRANCH   1   2
ATOM      2  C   UNL     1       4.481   1.103   1.915  1.00  0.00     0.303 C 
ATOM      3  O   UNL     1       5.124   0.186   2.485  1.00  0.00    -0.252 OA
BRANCH   2   4
ATOM      4  O   UNL     1       3.254   1.464   2.448  1.00  0.00    -0.481 OA
ATOM      5  H   UNL     1       2.716   2.212   2.003  1.00  0.00     0.296 HD
ENDBRANCH   2   4
ENDBRANCH   1   2
BRANCH   1   6
ATOM      6  C   UNL     1       6.512   1.753   0.778  1.00  0.00     0.047 C 
BRANCH   6   7
ATOM      7  C   UNL     1       7.144   1.024  -0.320  1.00  0.00    -0.047 A 
ATOM      8  C   UNL     1       8.456   1.262  -0.658  1.00  0.00     0.004 A 
ATOM      9  C   UNL     1       6.411   0.092  -1.017  1.00  0.00     0.004 A 
ATOM     10  C   UNL     1       8.996   0.529  -1.718  1.00  0.00     0.000 A 
ATOM     11  C   UNL     1       6.946  -0.632  -2.065  1.00  0.00     0.000 A 
ATOM     12  C   UNL     1       8.260  -0.399  -2.410  1.00  0.00     0.000 A 
ENDBRANCH   6   7
ENDBRANCH   1   6
TORSDOF 4
ENDMDL
MODEL 4
REMARK VINA RESULT:      -6.7      3.830      4.930
REMARK SMILES O=C(O)CCc1ccccc1
REMARK SMILES IDX 4 1 2 2 1 3 3 4 5 6 6 7 7 8 11 9 8 10 10 11 9 12
REMARK H PARENT 3 5
REMARK Flexibility Score: inf
ROOT
ATOM      1  C   UNL     1       5.483   2.879  -0.008  1.00  0.00     0.127 C 
ENDROOT
BRANCH   1   2
ATOM      2  C   UNL     1       6.256   3.856   0.795  1.00  0.00     0.303 C 
ATOM      3  O   UNL     1       6.914   4.774   0.246  1.00  0.00    -0.252 OA
BRANCH   2   4
ATOM      4  O   UNL     1       6.274   3.782   2.178  1.00  0.00    -0.481 OA
ATOM      5  H   UNL     1       7.173   3.728   2.665  1.00  0.00     0.296 HD
ENDBRANCH   2   4
ENDBRANCH   1   2
BRANCH   1   6
ATOM      6  C   UNL     1       4.930   1.841   0.919  1.00  0.00     0.047 C 
BRANCH   6   7
ATOM      7  C   UNL     1       5.708   0.603   0.958  1.00  0.00    -0.047 A 
ATOM      8  C   UNL     1       5.796  -0.136   2.114  1.00  0.00     0.004 A 
ATOM      9  C   UNL     1       6.353   0.180  -0.181  1.00  0.00     0.004 A 
ATOM     10  C   UNL     1       6.555  -1.308   2.078  1.00  0.00     0.000 A 
ATOM     11  C   UNL     1       7.104  -0.978  -0.215  1.00  0.00     0.000 A 
ATOM     12  C   UNL     1       7.198  -1.724   0.940  1.00  0.00     0.000 A 
ENDBRANCH   6   7
ENDBRANCH   1   6
TORSDOF 4
ENDMDL
MODEL 5
REMARK VINA RESULT:      -6.7      1.954      2.271
REMARK SMILES O=C(O)CCc1ccccc1
REMARK SMILES IDX 4 1 2 2 1 3 3 4 5 6 6 7 7 8 11 9 8 10 10 11 9 12
REMARK H PARENT 3 5
REMARK Flexibility Score: inf
ROOT
ATOM      1  C   UNL     1       8.220   0.262  -2.086  1.00  0.00     0.127 C 
ENDROOT
BRANCH   1   2
ATOM      2  C   UNL     1       9.395   0.362  -1.188  1.00  0.00     0.303 C 
ATOM      3  O   UNL     1       9.504  -0.371  -0.174  1.00  0.00    -0.252 OA
BRANCH   2   4
ATOM      4  O   UNL     1      10.410   1.270  -1.445  1.00  0.00    -0.481 OA
ATOM      5  H   UNL     1      10.527   2.078  -0.828  1.00  0.00     0.296 HD
ENDBRANCH   2   4
ENDBRANCH   1   2
BRANCH   1   6
ATOM      6  C   UNL     1       7.181  -0.579  -1.409  1.00  0.00     0.047 C 
BRANCH   6   7
ATOM      7  C   UNL     1       6.376   0.147  -0.427  1.00  0.00    -0.047 A 
ATOM      8  C   UNL     1       6.160  -0.374   0.827  1.00  0.00     0.004 A 
ATOM      9  C   UNL     1       5.835   1.364  -0.771  1.00  0.00     0.004 A 
ATOM     10  C   UNL     1       5.382   0.374   1.714  1.00  0.00     0.000 A 
ATOM     11  C   UNL     1       5.066   2.102   0.107  1.00  0.00     0.000 A 
ATOM     12  C   UNL     1       4.844   1.587   1.366  1.00  0.00     0.000 A 
ENDBRANCH   6   7
ENDBRANCH   1   6
TORSDOF 4
ENDMDL
