MODEL 1
REMARK VINA RESULT:      -7.3      0.000      0.000
REMARK SMILES O=C(O)CCc1ccccc1
REMARK SMILES IDX 4 1 2 2 1 3 3 4 5 6 6 7 7 8 11 9 8 10 10 11 9 12
REMARK H PARENT 3 5
REMARK Flexibility Score: inf
ROOT
ATOM      1  C   UNL     1       8.449  -0.681  -2.088  1.00  0.00     0.127 C 
ENDROOT
BRANCH   1   2
ATOM      2  C   UNL     1       8.452  -1.924  -2.895  1.00  0.00     0.303 C 
ATOM      3  O   UNL     1       9.505  -2.586  -3.068  1.00  0.00    -0.252 OA
BRANCH   2   4
ATOM      4  O   UNL     1       7.287  -2.391  -3.484  1.00  0.00    -0.481 OA
ATOM      5  H   UNL     1       7.185  -3.393  -3.667  1.00  0.00     0.296 HD
ENDBRANCH   2   4
ENDBRANCH   1   2
BRANCH   1   6
ATOM      6  C   UNL     1       7.052  -0.140  -2.062  1.00  0.00     0.047 C 
BRANCH   6   7
ATOM      7  C   UNL     1       6.503   0.024  -0.717  1.00  0.00    -0.047 A 
ATOM      8  C   UNL     1       5.798   1.155  -0.378  1.00  0.00     0.004 A 
ATOM      9  C   UNL     1       6.698  -0.971   0.213  1.00  0.00     0.004 A 
ATOM     10  C   UNL     1       5.302   1.244   0.924  1.00  0.00     0.000 A 
ATOM     11  C   UNL     1       6.208  -0.881   1.501  1.00  0.00     0.000 A 
ATOM     12  C   UNL     1       5.500   0.249   1.848  1.00  0.00     0.000 A 
ENDBRANCH   6   7
ENDBRANCH   1   6
TORSDOF 4
ENDMDL
MODEL 2
REMARK VINA RESULT:      -7.3      0.161      1.732
REMARK SMILES O=C(O)CCc1ccccc1
REMARK SMILES IDX 4 1 2 2 1 3 3 4 5 6 6 7 7 8 11 9 8 10 10 11 9 12
REMARK H PARENT 3 5
REMARK Flexibility Score: inf
ROOT
ATOM      1  C   UNL     1       8.404  -0.611  -2.149  1.00  0.00     0.127 C 
ENDROOT
BRANCH   1   2
ATOM      2  C   UNL     1       8.374  -1.885  -2.905  1.00  0.00     0.303 C 
ATOM      3  O   UNL     1       7.287  -2.412  -3.250  1.00  0.00    -0.252 OA
BRANCH   2   4
ATOM      4  O   UNL     1       9.549  -2.532  -3.254  1.00  0.00    -0.481 OA
ATOM      5  H   UNL     1       9.779  -3.426  -2.810  1.00  0.00     0.296 HD
ENDBRANCH   2   4
ENDBRANCH   1   2
BRANCH   1   6
ATOM      6  C   UNL     1       7.013  -0.057  -2.105  1.00  0.00     0.047 C 
BRANCH   6   7
ATOM      7  C   UNL     1       6.468   0.077  -0.755  1.00  0.00    -0.047 A 
ATOM      8  C   UNL     1       6.591  -0.945   0.157  1.00  0.00     0.004 A 
ATOM      9  C   UNL     1       5.829   1.243  -0.401  1.00  0.00     0.004 A 
ATOM     10  C   UNL     1       6.048  -0.748   1.429  1.00  0.00     0.000 A 
ATOM     11  C   UNL     1       5.292   1.436   0.856  1.00  0.00     0.000 A 
ATOM     12  C   UNL     1       5.411   0.416   1.776  1.00  0.00     0.000 A 
ENDBRANCH   6   7
ENDBRANCH   1   6
TORSDOF 4
ENDMDL
MODEL 3
REMARK VINA RESULT:      -6.9      0.643      1.435
REMARK SMILES O=C(O)CCc1ccccc1
REMARK SMILES IDX 4 1 2 2 1 3 3 4 5 6 6 7 7 8 11 9 8 10 10 11 9 12
REMARK H PARENT 3 5
REMARK Flexibility Score: inf
ROOT
ATOM      1  C   UNL     1       8.262  -0.687  -2.108  1.00  0.00     0.127 C 
ENDROOT
BRANCH   1   2
ATOM      2  C   UNL     1       8.319  -1.925  -2.920  1.00  0.00     0.303 C 
ATOM      3  O   UNL     1       7.273  -2.461  -3.365  1.00  0.00    -0.252 OA
BRANCH   2   4
ATOM      4  O   UNL     1       9.532  -2.528  -3.212  1.00  0.00    -0.481 OA
ATOM      5  H   UNL     1      10.302  -2.454  -2.541  1.00  0.00     0.296 HD
ENDBRANCH   2   4
ENDBRANCH   1   2
BRANCH   1   6
ATOM      6  C   UNL     1       7.827  -1.053  -0.722  1.00  0.00     0.047 C 
BRANCH   6   7
ATOM      7  C   UNL     1       6.838  -0.141  -0.149  1.00  0.00    -0.047 A 
ATOM      8  C   UNL     1       6.351   0.918  -0.880  1.00  0.00     0.004 A 
ATOM      9  C   UNL     1       6.393  -0.354   1.135  1.00  0.00     0.004 A 
ATOM     10  C   UNL     1       5.408   1.748  -0.269  1.00  0.00     0.000 A 
ATOM     11  C   UNL     1       5.460   0.467   1.737  1.00  0.00     0.000 A 
ATOM     12  C   UNL     1       4.968   1.531   1.012  1.00  0.00     0.000 A 
ENDBRANCH   6   7
ENDBRANCH   1   6
TORSDOF 4
ENDMDL
MODEL 4
REMARK VINA RESULT:      -6.7      3.359      5.027
REMARK SMILES O=C(O)CCc1ccccc1
REMARK SMILES IDX 4 1 2 2 1 3 3 4 5 6 6 7 7 8 11 9 8 10 10 11 9 12
REMARK H PARENT 3 5
REMARK Flexibility Score: inf
ROOT
ATOM      1  C   UNL     1       5.068   1.728   0.679  1.00  0.00     0.127 C 
ENDROOT
BRANCH   1   2
ATOM      2  C   UNL     1       4.598   1.051   1.911  1.00  0.00     0.303 C 
ATOM      3  O   UNL     1       5.305   0.190   2.491  1.00  0.00    -0.252 OA
BRANCH   2   4
ATOM      4  O   UNL     1       3.360   1.350   2.457  1.00  0.00    -0.481 OA
ATOM      5  H   UNL     1       2.899   2.228   2.203  1.00  0.00     0.296 HD
ENDBRANCH   2   4
ENDBRANCH   1   2
BRANCH   1   6
ATOM      6  C   UNL     1       6.565   1.764   0.704  1.00  0.00     0.047 C 
BRANCH   6   7
ATOM      7  C   UNL     1       7.196   1.003  -0.373  1.00  0.00    -0.047 A 
ATOM      8  C   UNL     1       8.517   1.208  -0.699  1.00  0.00     0.004 A 
ATOM      9  C   UNL     1       6.453   0.072  -1.062  1.00  0.00     0.004 A 
ATOM     10  C   UNL     1       9.054   0.445  -1.739  1.00  0.00     0.000 A 
ATOM     11  C   UNL     1       6.986  -0.681  -2.089  1.00  0.00     0.000 A 
ATOM     12  C   UNL     1       8.308  -0.481  -2.423  1.00  0.00     0.000 A 
ENDBRANCH   6   7
ENDBRANCH   1   6
TORSDOF 4
ENDMDL
MODEL 5
REMARK VINA RESULT:      -6.7      3.824      4.969
REMARK SMILES O=C(O)CCc1ccccc1
REMARK SMILES IDX 4 1 2 2 1 3 3 4 5 6 6 7 7 8 11 9 8 10 10 11 9 12
REMARK H PARENT 3 5
REMARK Flexibility Score: inf
ROOT
ATOM      1  C   UNL     1       5.486   2.894  -0.011  1.00  0.00     0.127 C 
ENDROOT
BRANCH   1   2
ATOM      2  C   UNL     1       6.271   3.849   0.806  1.00  0.00     0.303 C 
ATOM      3  O   UNL     1       6.930   4.775   0.271  1.00  0.00    -0.252 OA
BRANCH   2   4
ATOM      4  O   UNL     1       6.298   3.746   2.187  1.00  0.00    -0.481 OA
ATOM      5  H   UNL     1       5.541   3.253   2.668  1.00  0.00     0.296 HD
ENDBRANCH   2   4
ENDBRANCH   1   2
BRANCH   1   6
ATOM      6  C   UNL     1       4.924   1.846   0.900  1.00  0.00     0.047 C 
BRANCH   6   7
ATOM      7  C   UNL     1       5.720   0.621   0.961  1.00  0.00    -0.047 A 
ATOM      8  C   UNL     1       5.685  -0.186   2.074  1.00  0.00     0.004 A 
ATOM      9  C   UNL     1       6.508   0.279  -0.113  1.00  0.00     0.004 A 
ATOM     10  C   UNL     1       6.471  -1.341   2.063  1.00  0.00     0.000 A 
ATOM     11  C   UNL     1       7.284  -0.863  -0.123  1.00  0.00     0.000 A 
ATOM     12  C   UNL     1       7.256  -1.677   0.989  1.00  0.00     0.000 A 
ENDBRANCH   6   7
ENDBRANCH   1   6
TORSDOF 4
ENDMDL
