@<TRIPOS>MOLECULE
/home/cewinharhar/GITHUB/reincatalyze/data/processed/docking_pred/2023-Apr-26-1657_maxeplen10_maxtrainstep1000_exh32_gamma099_lrac9e-4_lrcr1e-3/306d1dfeb5e1085b4f3e24b09348dc81ae645662_ligand_2.pdbqt
 12 12 0 0 0
SMALL
GASTEIGER

@<TRIPOS>ATOM
      1  C          8.4040   -0.6110   -2.1490 C.3     1  UNL1        0.1270
      2  C          8.3740   -1.8850   -2.9050 C.2     1  UNL1        0.3030
      3  O          7.2870   -2.4120   -3.2500 O.2     1  UNL1       -0.2520
      4  O          9.5490   -2.5320   -3.2540 O.3     1  UNL1       -0.4810
      5  H          9.7790   -3.4260   -2.8100 H       1  UNL1        0.2960
      6  C          7.0130   -0.0570   -2.1050 C.3     1  UNL1        0.0470
      7  C          6.4680    0.0770   -0.7550 C.2     1  UNL1       -0.0470
      8  C          6.5910   -0.9450    0.1570 C.2     1  UNL1        0.0040
      9  C          5.8290    1.2430   -0.4010 C.2     1  UNL1        0.0040
     10  C          6.0480   -0.7480    1.4290 C.2     1  UNL1        0.0000
     11  C          5.2920    1.4360    0.8560 C.2     1  UNL1        0.0000
     12  C          5.4110    0.4160    1.7760 C.2     1  UNL1        0.0000
@<TRIPOS>BOND
     1     4     2    1
     2     4     5    1
     3     3     2    2
     4     2     1    1
     5     1     6    1
     6     6     7    1
     7     7     9    2
     8     7     8    1
     9     9    11    1
    10     8    10    2
    11    11    12    2
    12    10    12    1
