@<TRIPOS>MOLECULE
/home/cewinharhar/GITHUB/reincatalyze/data/processed/docking_pred/2023-Apr-26-1657_maxeplen10_maxtrainstep1000_exh32_gamma099_lrac9e-4_lrcr1e-3/306d1dfeb5e1085b4f3e24b09348dc81ae645662_ligand_2.pdbqt
 12 12 0 0 0
SMALL
GASTEIGER

@<TRIPOS>ATOM
      1  C          8.4490   -0.6810   -2.0880 C.3     1  UNL1        0.1270
      2  C          8.4520   -1.9240   -2.8950 C.2     1  UNL1        0.3030
      3  O          9.5050   -2.5860   -3.0680 O.2     1  UNL1       -0.2520
      4  O          7.2870   -2.3910   -3.4840 O.3     1  UNL1       -0.4810
      5  H          7.1850   -3.3930   -3.6670 H       1  UNL1        0.2960
      6  C          7.0520   -0.1400   -2.0620 C.3     1  UNL1        0.0470
      7  C          6.5030    0.0240   -0.7170 C.2     1  UNL1       -0.0470
      8  C          5.7980    1.1550   -0.3780 C.2     1  UNL1        0.0040
      9  C          6.6980   -0.9710    0.2130 C.2     1  UNL1        0.0040
     10  C          5.3020    1.2440    0.9240 C.2     1  UNL1        0.0000
     11  C          6.2080   -0.8810    1.5010 C.2     1  UNL1        0.0000
     12  C          5.5000    0.2490    1.8480 C.2     1  UNL1        0.0000
@<TRIPOS>BOND
     1     5     4    1
     2     4     2    1
     3     3     2    2
     4     2     1    1
     5     1     6    1
     6     6     7    1
     7     7     8    2
     8     7     9    1
     9     8    10    1
    10     9    11    2
    11    10    12    2
    12    11    12    1
