@<TRIPOS>MOLECULE
/home/cewinharhar/GITHUB/reincatalyze/data/processed/docking_pred/2023-Apr-26-1657_maxeplen10_maxtrainstep1000_exh32_gamma099_lrac9e-4_lrcr1e-3/306d1dfeb5e1085b4f3e24b09348dc81ae645662_ligand_2.pdbqt
 12 12 0 0 0
SMALL
GASTEIGER

@<TRIPOS>ATOM
      1  C          8.2620   -0.6870   -2.1080 C.3     1  UNL1        0.1270
      2  C          8.3190   -1.9250   -2.9200 C.2     1  UNL1        0.3030
      3  O          7.2730   -2.4610   -3.3650 O.2     1  UNL1       -0.2520
      4  O          9.5320   -2.5280   -3.2120 O.3     1  UNL1       -0.4810
      5  H         10.3020   -2.4540   -2.5410 H       1  UNL1        0.2960
      6  C          7.8270   -1.0530   -0.7220 C.3     1  UNL1        0.0470
      7  C          6.8380   -0.1410   -0.1490 C.2     1  UNL1       -0.0470
      8  C          6.3510    0.9180   -0.8800 C.2     1  UNL1        0.0040
      9  C          6.3930   -0.3540    1.1350 C.2     1  UNL1        0.0040
     10  C          5.4080    1.7480   -0.2690 C.2     1  UNL1        0.0000
     11  C          5.4600    0.4670    1.7370 C.2     1  UNL1        0.0000
     12  C          4.9680    1.5310    1.0120 C.2     1  UNL1        0.0000
@<TRIPOS>BOND
     1     3     2    2
     2     4     2    1
     3     4     5    1
     4     2     1    1
     5     1     6    1
     6     8    10    1
     7     8     7    2
     8     6     7    1
     9    10    12    2
    10     7     9    1
    11    12    11    1
    12     9    11    2
