@<TRIPOS>MOLECULE
/home/cewinharhar/GITHUB/reincatalyze/data/processed/docking_pred/2023-Apr-26-1657_maxeplen10_maxtrainstep1000_exh32_gamma099_lrac9e-4_lrcr1e-3/306d1dfeb5e1085b4f3e24b09348dc81ae645662_ligand_2.pdbqt
 12 12 0 0 0
SMALL
GASTEIGER

@<TRIPOS>ATOM
      1  C          5.4860    2.8940   -0.0110 C.3     1  UNL1        0.1270
      2  C          6.2710    3.8490    0.8060 C.2     1  UNL1        0.3030
      3  O          6.9300    4.7750    0.2710 O.2     1  UNL1       -0.2520
      4  O          6.2980    3.7460    2.1870 O.3     1  UNL1       -0.4810
      5  H          5.5410    3.2530    2.6680 H       1  UNL1        0.2960
      6  C          4.9240    1.8460    0.9000 C.3     1  UNL1        0.0470
      7  C          5.7200    0.6210    0.9610 C.2     1  UNL1       -0.0470
      8  C          5.6850   -0.1860    2.0740 C.2     1  UNL1        0.0040
      9  C          6.5080    0.2790   -0.1130 C.2     1  UNL1        0.0040
     10  C          6.4710   -1.3410    2.0630 C.2     1  UNL1        0.0000
     11  C          7.2840   -0.8630   -0.1230 C.2     1  UNL1        0.0000
     12  C          7.2560   -1.6770    0.9890 C.2     1  UNL1        0.0000
@<TRIPOS>BOND
     1    11     9    1
     2    11    12    2
     3     9     7    2
     4     1     2    1
     5     1     6    1
     6     3     2    2
     7     2     4    1
     8     6     7    1
     9     7     8    1
    10    12    10    1
    11    10     8    2
    12     4     5    1
