@<TRIPOS>MOLECULE
/home/cewinharhar/GITHUB/reincatalyze/data/processed/docking_pred/2023-Apr-26-1657_maxeplen10_maxtrainstep1000_exh32_gamma099_lrac9e-4_lrcr1e-3/306d1dfeb5e1085b4f3e24b09348dc81ae645662_ligand_2.pdbqt
 12 12 0 0 0
SMALL
GASTEIGER

@<TRIPOS>ATOM
      1  C          5.0680    1.7280    0.6790 C.3     1  UNL1        0.1270
      2  C          4.5980    1.0510    1.9110 C.2     1  UNL1        0.3030
      3  O          5.3050    0.1900    2.4910 O.2     1  UNL1       -0.2520
      4  O          3.3600    1.3500    2.4570 O.3     1  UNL1       -0.4810
      5  H          2.8990    2.2280    2.2030 H       1  UNL1        0.2960
      6  C          6.5650    1.7640    0.7040 C.3     1  UNL1        0.0470
      7  C          7.1960    1.0030   -0.3730 C.2     1  UNL1       -0.0470
      8  C          8.5170    1.2080   -0.6990 C.2     1  UNL1        0.0040
      9  C          6.4530    0.0720   -1.0620 C.2     1  UNL1        0.0040
     10  C          9.0540    0.4450   -1.7390 C.2     1  UNL1        0.0000
     11  C          6.9860   -0.6810   -2.0890 C.2     1  UNL1        0.0000
     12  C          8.3080   -0.4810   -2.4230 C.2     1  UNL1        0.0000
@<TRIPOS>BOND
     1    12    11    2
     2    12    10    1
     3    11     9    1
     4    10     8    2
     5     9     7    2
     6     8     7    1
     7     7     6    1
     8     1     6    1
     9     1     2    1
    10     2     4    1
    11     2     3    2
    12     5     4    1
