@<TRIPOS>MOLECULE
/home/cewinharhar/GITHUB/reincatalyze/data/processed/docking_pred/2023-Apr-26-1657_maxeplen10_maxtrainstep1000_exh32_gamma099_lrac9e-4_lrcr1e-3/31018d4d3337f577513d0037205f1d699057d88b_ligand_2.pdbqt
 12 12 0 0 0
SMALL
GASTEIGER

@<TRIPOS>ATOM
      1  C          8.4300   -0.5660   -2.2310 C.3     1  UNL1        0.1270
      2  C          8.4860   -1.8800   -2.9150 C.2     1  UNL1        0.3030
      3  O          9.5740   -2.4890   -3.0650 O.2     1  UNL1       -0.2520
      4  O          7.3360   -2.4730   -3.4090 O.3     1  UNL1       -0.4810
      5  H          7.1270   -3.4440   -3.1610 H       1  UNL1        0.2960
      6  C          6.9990   -0.1240   -2.1790 C.3     1  UNL1        0.0470
      7  C          6.4770    0.0400   -0.8240 C.2     1  UNL1       -0.0470
      8  C          6.6190   -0.9590    0.1110 C.2     1  UNL1        0.0040
      9  C          5.8380    1.2110   -0.4880 C.2     1  UNL1        0.0040
     10  C          6.0960   -0.7330    1.3860 C.2     1  UNL1        0.0000
     11  C          5.3210    1.4330    0.7730 C.2     1  UNL1        0.0000
     12  C          5.4600    0.4370    1.7150 C.2     1  UNL1        0.0000
@<TRIPOS>BOND
     1     4     5    1
     2     4     2    1
     3     3     2    2
     4     2     1    1
     5     1     6    1
     6     6     7    1
     7     7     9    2
     8     7     8    1
     9     9    11    1
    10     8    10    2
    11    11    12    2
    12    10    12    1
