@<TRIPOS>MOLECULE
/home/cewinharhar/GITHUB/reincatalyze/data/processed/docking_pred/2023-Apr-26-1657_maxeplen10_maxtrainstep1000_exh32_gamma099_lrac9e-4_lrcr1e-3/31018d4d3337f577513d0037205f1d699057d88b_ligand_2.pdbqt
 12 12 0 0 0
SMALL
GASTEIGER

@<TRIPOS>ATOM
      1  C          8.2480    0.1740   -2.1610 C.3     1  UNL1        0.1270
      2  C          9.3800    0.3460   -1.2200 C.2     1  UNL1        0.3030
      3  O          9.4950   -0.3790   -0.2020 O.2     1  UNL1       -0.2520
      4  O         10.3450    1.3160   -1.4400 O.3     1  UNL1       -0.4810
      5  H         10.0550    2.2540   -1.7300 H       1  UNL1        0.2960
      6  C          7.1770   -0.6140   -1.4700 C.3     1  UNL1        0.0470
      7  C          6.3850    0.1640   -0.5200 C.2     1  UNL1       -0.0470
      8  C          6.1560   -0.3030    0.7530 C.2     1  UNL1        0.0040
      9  C          5.8690    1.3780   -0.9120 C.2     1  UNL1        0.0040
     10  C          5.3910    0.4940    1.6080 C.2     1  UNL1        0.0000
     11  C          5.1130    2.1640   -0.0650 C.2     1  UNL1        0.0000
     12  C          4.8780    1.7030    1.2120 C.2     1  UNL1        0.0000
@<TRIPOS>BOND
     1     1     6    1
     2     1     2    1
     3     5     4    1
     4     6     7    1
     5     4     2    1
     6     2     3    2
     7     9     7    2
     8     9    11    1
     9     7     8    1
    10    11    12    2
    11     8    10    2
    12    12    10    1
