@<TRIPOS>MOLECULE
/home/cewinharhar/GITHUB/reincatalyze/data/processed/docking_pred/2023-Apr-26-1657_maxeplen10_maxtrainstep1000_exh32_gamma099_lrac9e-4_lrcr1e-3/31018d4d3337f577513d0037205f1d699057d88b_ligand_2.pdbqt
 12 12 0 0 0
SMALL
GASTEIGER

@<TRIPOS>ATOM
      1  C          5.0340    1.7380    0.6740 C.3     1  UNL1        0.1270
      2  C          4.5110    1.0940    1.9020 C.2     1  UNL1        0.3030
      3  O          5.1620    0.1990    2.4950 O.2     1  UNL1       -0.2520
      4  O          3.2850    1.4650    2.4310 O.3     1  UNL1       -0.4810
      5  H          2.8750    2.3630    2.1630 H       1  UNL1        0.2960
      6  C          6.5310    1.7340    0.7420 C.3     1  UNL1        0.0470
      7  C          7.1730    1.0010   -0.3480 C.2     1  UNL1       -0.0470
      8  C          8.4950    1.2190   -0.6590 C.2     1  UNL1        0.0040
      9  C          6.4400    0.0830   -1.0630 C.2     1  UNL1        0.0040
     10  C          9.0440    0.4820   -1.7110 C.2     1  UNL1        0.0000
     11  C          6.9830   -0.6440   -2.1030 C.2     1  UNL1        0.0000
     12  C          8.3070   -0.4320   -2.4220 C.2     1  UNL1        0.0000
@<TRIPOS>BOND
     1    12    11    2
     2    12    10    1
     3    11     9    1
     4    10     8    2
     5     9     7    2
     6     8     7    1
     7     7     6    1
     8     1     6    1
     9     1     2    1
    10     2     4    1
    11     2     3    2
    12     5     4    1
