@<TRIPOS>MOLECULE
/home/cewinharhar/GITHUB/reincatalyze/data/processed/docking_pred/2023-Apr-26-1657_maxeplen10_maxtrainstep1000_exh32_gamma099_lrac9e-4_lrcr1e-3/31018d4d3337f577513d0037205f1d699057d88b_ligand_2.pdbqt
 12 12 0 0 0
SMALL
GASTEIGER

@<TRIPOS>ATOM
      1  C          7.9230   -2.3500    0.8830 C.3     1  UNL1        0.1270
      2  C          8.8200   -3.4420    0.4390 C.2     1  UNL1        0.3030
      3  O          9.7060   -3.9060    1.1990 O.2     1  UNL1       -0.2520
      4  O          8.7050   -3.9840   -0.8310 O.3     1  UNL1       -0.4810
      5  H          9.3910   -3.7300   -1.5480 H       1  UNL1        0.2960
      6  C          7.5210   -1.5530   -0.3200 C.3     1  UNL1        0.0470
      7  C          6.6870   -0.3920   -0.0130 C.2     1  UNL1       -0.0470
      8  C          6.4860    0.5970   -0.9480 C.2     1  UNL1        0.0040
      9  C          6.0980   -0.2980    1.2260 C.2     1  UNL1        0.0040
     10  C          5.6770    1.6760   -0.5860 C.2     1  UNL1        0.0000
     11  C          5.2980    0.7700    1.5830 C.2     1  UNL1        0.0000
     12  C          5.0930    1.7650    0.6520 C.2     1  UNL1        0.0000
@<TRIPOS>BOND
     1     5     4    1
     2     8    10    1
     3     8     7    2
     4     4     2    1
     5    10    12    2
     6     6     7    1
     7     6     1    1
     8     7     9    1
     9     2     1    1
    10     2     3    2
    11    12    11    1
    12     9    11    2
