@<TRIPOS>MOLECULE
/home/cewinharhar/GITHUB/reincatalyze/data/processed/docking_pred/2023-Apr-26-1657_maxeplen10_maxtrainstep1000_exh32_gamma099_lrac9e-4_lrcr1e-3/31018d4d3337f577513d0037205f1d699057d88b_ligand_2.pdbqt
 12 12 0 0 0
SMALL
GASTEIGER

@<TRIPOS>ATOM
      1  C          8.4160   -0.6400   -2.1020 C.3     1  UNL1        0.1270
      2  C          8.3760   -1.9020   -2.8780 C.2     1  UNL1        0.3030
      3  O          7.2870   -2.4060   -3.2460 O.2     1  UNL1       -0.2520
      4  O          9.5460   -2.5620   -3.2190 O.3     1  UNL1       -0.4810
      5  H          9.5560   -3.5860   -3.2390 H       1  UNL1        0.2960
      6  C          7.0370   -0.0520   -2.0900 C.3     1  UNL1        0.0470
      7  C          6.4720    0.1090   -0.7510 C.2     1  UNL1       -0.0470
      8  C          5.8050    1.2610   -0.4040 C.2     1  UNL1        0.0040
      9  C          6.6110   -0.9090    0.1630 C.2     1  UNL1        0.0040
     10  C          5.2900    1.3460    0.8920 C.2     1  UNL1        0.0000
     11  C          6.1010   -0.8240    1.4440 C.2     1  UNL1        0.0000
     12  C          5.4320    0.3270    1.8000 C.2     1  UNL1        0.0000
@<TRIPOS>BOND
     1     3     2    2
     2     5     4    1
     3     4     2    1
     4     2     1    1
     5     1     6    1
     6     6     7    1
     7     7     8    2
     8     7     9    1
     9     8    10    1
    10     9    11    2
    11    10    12    2
    12    11    12    1
