MODEL 1
REMARK VINA RESULT:      -7.3      0.000      0.000
REMARK SMILES O=C(O)CCc1ccccc1
REMARK SMILES IDX 4 1 2 2 1 3 3 4 5 6 6 7 7 8 11 9 8 10 10 11 9 12
REMARK H PARENT 3 5
REMARK Flexibility Score: inf
ROOT
ATOM      1  C   UNL     1       8.430  -0.566  -2.231  1.00  0.00     0.127 C 
ENDROOT
BRANCH   1   2
ATOM      2  C   UNL     1       8.486  -1.880  -2.915  1.00  0.00     0.303 C 
ATOM      3  O   UNL     1       9.574  -2.489  -3.065  1.00  0.00    -0.252 OA
BRANCH   2   4
ATOM      4  O   UNL     1       7.336  -2.473  -3.409  1.00  0.00    -0.481 OA
ATOM      5  H   UNL     1       7.127  -3.444  -3.161  1.00  0.00     0.296 HD
ENDBRANCH   2   4
ENDBRANCH   1   2
BRANCH   1   6
ATOM      6  C   UNL     1       6.999  -0.124  -2.179  1.00  0.00     0.047 C 
BRANCH   6   7
ATOM      7  C   UNL     1       6.477   0.040  -0.824  1.00  0.00    -0.047 A 
ATOM      8  C   UNL     1       6.619  -0.959   0.111  1.00  0.00     0.004 A 
ATOM      9  C   UNL     1       5.838   1.211  -0.488  1.00  0.00     0.004 A 
ATOM     10  C   UNL     1       6.096  -0.733   1.386  1.00  0.00     0.000 A 
ATOM     11  C   UNL     1       5.321   1.433   0.773  1.00  0.00     0.000 A 
ATOM     12  C   UNL     1       5.460   0.437   1.715  1.00  0.00     0.000 A 
ENDBRANCH   6   7
ENDBRANCH   1   6
TORSDOF 4
ENDMDL
MODEL 2
REMARK VINA RESULT:      -7.2      0.133      1.733
REMARK SMILES O=C(O)CCc1ccccc1
REMARK SMILES IDX 4 1 2 2 1 3 3 4 5 6 6 7 7 8 11 9 8 10 10 11 9 12
REMARK H PARENT 3 5
REMARK Flexibility Score: inf
ROOT
ATOM      1  C   UNL     1       8.416  -0.640  -2.102  1.00  0.00     0.127 C 
ENDROOT
BRANCH   1   2
ATOM      2  C   UNL     1       8.376  -1.902  -2.878  1.00  0.00     0.303 C 
ATOM      3  O   UNL     1       7.287  -2.406  -3.246  1.00  0.00    -0.252 OA
BRANCH   2   4
ATOM      4  O   UNL     1       9.546  -2.562  -3.219  1.00  0.00    -0.481 OA
ATOM      5  H   UNL     1       9.556  -3.586  -3.239  1.00  0.00     0.296 HD
ENDBRANCH   2   4
ENDBRANCH   1   2
BRANCH   1   6
ATOM      6  C   UNL     1       7.037  -0.052  -2.090  1.00  0.00     0.047 C 
BRANCH   6   7
ATOM      7  C   UNL     1       6.472   0.109  -0.751  1.00  0.00    -0.047 A 
ATOM      8  C   UNL     1       5.805   1.261  -0.404  1.00  0.00     0.004 A 
ATOM      9  C   UNL     1       6.611  -0.909   0.163  1.00  0.00     0.004 A 
ATOM     10  C   UNL     1       5.290   1.346   0.892  1.00  0.00     0.000 A 
ATOM     11  C   UNL     1       6.101  -0.824   1.444  1.00  0.00     0.000 A 
ATOM     12  C   UNL     1       5.432   0.327   1.800  1.00  0.00     0.000 A 
ENDBRANCH   6   7
ENDBRANCH   1   6
TORSDOF 4
ENDMDL
MODEL 3
REMARK VINA RESULT:      -6.7      3.373      5.068
REMARK SMILES O=C(O)CCc1ccccc1
REMARK SMILES IDX 4 1 2 2 1 3 3 4 5 6 6 7 7 8 11 9 8 10 10 11 9 12
REMARK H PARENT 3 5
REMARK Flexibility Score: inf
ROOT
ATOM      1  C   UNL     1       5.034   1.738   0.674  1.00  0.00     0.127 C 
ENDROOT
BRANCH   1   2
ATOM      2  C   UNL     1       4.511   1.094   1.902  1.00  0.00     0.303 C 
ATOM      3  O   UNL     1       5.162   0.199   2.495  1.00  0.00    -0.252 OA
BRANCH   2   4
ATOM      4  O   UNL     1       3.285   1.465   2.431  1.00  0.00    -0.481 OA
ATOM      5  H   UNL     1       2.875   2.363   2.163  1.00  0.00     0.296 HD
ENDBRANCH   2   4
ENDBRANCH   1   2
BRANCH   1   6
ATOM      6  C   UNL     1       6.531   1.734   0.742  1.00  0.00     0.047 C 
BRANCH   6   7
ATOM      7  C   UNL     1       7.173   1.001  -0.348  1.00  0.00    -0.047 A 
ATOM      8  C   UNL     1       8.495   1.219  -0.659  1.00  0.00     0.004 A 
ATOM      9  C   UNL     1       6.440   0.083  -1.063  1.00  0.00     0.004 A 
ATOM     10  C   UNL     1       9.044   0.482  -1.711  1.00  0.00     0.000 A 
ATOM     11  C   UNL     1       6.983  -0.644  -2.103  1.00  0.00     0.000 A 
ATOM     12  C   UNL     1       8.307  -0.432  -2.422  1.00  0.00     0.000 A 
ENDBRANCH   6   7
ENDBRANCH   1   6
TORSDOF 4
ENDMDL
MODEL 4
REMARK VINA RESULT:      -6.6      1.922      2.273
REMARK SMILES O=C(O)CCc1ccccc1
REMARK SMILES IDX 4 1 2 2 1 3 3 4 5 6 6 7 7 8 11 9 8 10 10 11 9 12
REMARK H PARENT 3 5
REMARK Flexibility Score: inf
ROOT
ATOM      1  C   UNL     1       8.248   0.174  -2.161  1.00  0.00     0.127 C 
ENDROOT
BRANCH   1   2
ATOM      2  C   UNL     1       9.380   0.346  -1.220  1.00  0.00     0.303 C 
ATOM      3  O   UNL     1       9.495  -0.379  -0.202  1.00  0.00    -0.252 OA
BRANCH   2   4
ATOM      4  O   UNL     1      10.345   1.316  -1.440  1.00  0.00    -0.481 OA
ATOM      5  H   UNL     1      10.055   2.254  -1.730  1.00  0.00     0.296 HD
ENDBRANCH   2   4
ENDBRANCH   1   2
BRANCH   1   6
ATOM      6  C   UNL     1       7.177  -0.614  -1.470  1.00  0.00     0.047 C 
BRANCH   6   7
ATOM      7  C   UNL     1       6.385   0.164  -0.520  1.00  0.00    -0.047 A 
ATOM      8  C   UNL     1       6.156  -0.303   0.753  1.00  0.00     0.004 A 
ATOM      9  C   UNL     1       5.869   1.378  -0.912  1.00  0.00     0.004 A 
ATOM     10  C   UNL     1       5.391   0.494   1.608  1.00  0.00     0.000 A 
ATOM     11  C   UNL     1       5.113   2.164  -0.065  1.00  0.00     0.000 A 
ATOM     12  C   UNL     1       4.878   1.703   1.212  1.00  0.00     0.000 A 
ENDBRANCH   6   7
ENDBRANCH   1   6
TORSDOF 4
ENDMDL
MODEL 5
REMARK VINA RESULT:      -6.4      2.053      2.819
REMARK SMILES O=C(O)CCc1ccccc1
REMARK SMILES IDX 4 1 2 2 1 3 3 4 5 6 6 7 7 8 11 9 8 10 10 11 9 12
REMARK H PARENT 3 5
REMARK Flexibility Score: inf
ROOT
ATOM      1  C   UNL     1       7.923  -2.350   0.883  1.00  0.00     0.127 C 
ENDROOT
BRANCH   1   2
ATOM      2  C   UNL     1       8.820  -3.442   0.439  1.00  0.00     0.303 C 
ATOM      3  O   UNL     1       9.706  -3.906   1.199  1.00  0.00    -0.252 OA
BRANCH   2   4
ATOM      4  O   UNL     1       8.705  -3.984  -0.831  1.00  0.00    -0.481 OA
ATOM      5  H   UNL     1       9.391  -3.730  -1.548  1.00  0.00     0.296 HD
ENDBRANCH   2   4
ENDBRANCH   1   2
BRANCH   1   6
ATOM      6  C   UNL     1       7.521  -1.553  -0.320  1.00  0.00     0.047 C 
BRANCH   6   7
ATOM      7  C   UNL     1       6.687  -0.392  -0.013  1.00  0.00    -0.047 A 
ATOM      8  C   UNL     1       6.486   0.597  -0.948  1.00  0.00     0.004 A 
ATOM      9  C   UNL     1       6.098  -0.298   1.226  1.00  0.00     0.004 A 
ATOM     10  C   UNL     1       5.677   1.676  -0.586  1.00  0.00     0.000 A 
ATOM     11  C   UNL     1       5.298   0.770   1.583  1.00  0.00     0.000 A 
ATOM     12  C   UNL     1       5.093   1.765   0.652  1.00  0.00     0.000 A 
ENDBRANCH   6   7
ENDBRANCH   1   6
TORSDOF 4
ENDMDL
