@<TRIPOS>MOLECULE
/home/cewinharhar/GITHUB/reincatalyze/data/processed/docking_pred/2023-Apr-26-1657_maxeplen10_maxtrainstep1000_exh32_gamma099_lrac9e-4_lrcr1e-3/3109bb1a4c888d48ff6ee722b945383cff227a99_ligand_2.pdbqt
 12 12 0 0 0
SMALL
GASTEIGER

@<TRIPOS>ATOM
      1  C          5.4860    2.8910   -0.0230 C.3     1  UNL1        0.1270
      2  C          6.2540    3.8650    0.7890 C.2     1  UNL1        0.3030
      3  O          6.9280    4.7750    0.2460 O.2     1  UNL1       -0.2520
      4  O          6.2480    3.7970    2.1720 O.3     1  UNL1       -0.4810
      5  H          6.6630    2.9830    2.6350 H       1  UNL1        0.2960
      6  C          4.9250    1.8500    0.8980 C.3     1  UNL1        0.0470
      7  C          5.7010    0.6120    0.9380 C.2     1  UNL1       -0.0470
      8  C          5.7770   -0.1340    2.0910 C.2     1  UNL1        0.0040
      9  C          6.3590    0.1950   -0.1970 C.2     1  UNL1        0.0040
     10  C          6.5350   -1.3060    2.0560 C.2     1  UNL1        0.0000
     11  C          7.1090   -0.9640   -0.2290 C.2     1  UNL1        0.0000
     12  C          7.1900   -1.7170    0.9230 C.2     1  UNL1        0.0000
@<TRIPOS>BOND
     1    11     9    1
     2    11    12    2
     3     9     7    2
     4     1     2    1
     5     1     6    1
     6     3     2    2
     7     2     4    1
     8     6     7    1
     9    12    10    1
    10     7     8    1
    11    10     8    2
    12     4     5    1
