@<TRIPOS>MOLECULE
/home/cewinharhar/GITHUB/reincatalyze/data/processed/docking_pred/2023-Apr-26-1657_maxeplen10_maxtrainstep1000_exh32_gamma099_lrac9e-4_lrcr1e-3/3109bb1a4c888d48ff6ee722b945383cff227a99_ligand_2.pdbqt
 12 12 0 0 0
SMALL
GASTEIGER

@<TRIPOS>ATOM
      1  C          8.4220   -0.5450   -2.2450 C.3     1  UNL1        0.1270
      2  C          8.4770   -1.8600   -2.9260 C.2     1  UNL1        0.3030
      3  O          9.5660   -2.4660   -3.0840 O.2     1  UNL1       -0.2520
      4  O          7.3250   -2.4590   -3.4090 O.3     1  UNL1       -0.4810
      5  H          7.3950   -3.1350   -4.1750 H       1  UNL1        0.2960
      6  C          6.9890   -0.1110   -2.1770 C.3     1  UNL1        0.0470
      7  C          6.4780    0.0400   -0.8160 C.2     1  UNL1       -0.0470
      8  C          6.6220   -0.9710    0.1060 C.2     1  UNL1        0.0040
      9  C          5.8490    1.2110   -0.4610 C.2     1  UNL1        0.0040
     10  C          6.1100   -0.7580    1.3880 C.2     1  UNL1        0.0000
     11  C          5.3430    1.4200    0.8070 C.2     1  UNL1        0.0000
     12  C          5.4820    0.4120    1.7360 C.2     1  UNL1        0.0000
@<TRIPOS>BOND
     1     5     4    1
     2     4     2    1
     3     3     2    2
     4     2     1    1
     5     1     6    1
     6     6     7    1
     7     7     9    2
     8     7     8    1
     9     9    11    1
    10     8    10    2
    11    11    12    2
    12    10    12    1
