@<TRIPOS>MOLECULE
/home/cewinharhar/GITHUB/reincatalyze/data/processed/docking_pred/2023-Apr-26-1657_maxeplen10_maxtrainstep1000_exh32_gamma099_lrac9e-4_lrcr1e-3/3109bb1a4c888d48ff6ee722b945383cff227a99_ligand_2.pdbqt
 12 12 0 0 0
SMALL
GASTEIGER

@<TRIPOS>ATOM
      1  C          7.2550   -1.3660   -2.0910 C.3     1  UNL1        0.1270
      2  C          8.6870   -1.4330   -2.4660 C.2     1  UNL1        0.3030
      3  O          9.1470   -2.4120   -3.1030 O.2     1  UNL1       -0.2520
      4  O          9.5590   -0.4130   -2.1220 O.3     1  UNL1       -0.4810
      5  H         10.1620   -0.5250   -1.3020 H       1  UNL1        0.2960
      6  C          7.1590   -1.3620   -0.5950 C.3     1  UNL1        0.0470
      7  C          6.3790   -0.2510   -0.0520 C.2     1  UNL1       -0.0470
      8  C          6.1350    0.8720   -0.8070 C.2     1  UNL1        0.0040
      9  C          5.8850   -0.3410    1.2280 C.2     1  UNL1        0.0040
     10  C          5.3820    1.8940   -0.2250 C.2     1  UNL1        0.0000
     11  C          5.1410    0.6700    1.8030 C.2     1  UNL1        0.0000
     12  C          4.8920    1.7990    1.0540 C.2     1  UNL1        0.0000
@<TRIPOS>BOND
     1     3     2    2
     2     2     4    1
     3     2     1    1
     4     4     5    1
     5     1     6    1
     6     8    10    1
     7     8     7    2
     8     6     7    1
     9    10    12    2
    10     7     9    1
    11    12    11    1
    12     9    11    2
