MODEL 1
REMARK VINA RESULT:      -7.3      0.000      0.000
REMARK SMILES O=C(O)CCc1ccccc1
REMARK SMILES IDX 4 1 2 2 1 3 3 4 5 6 6 7 7 8 11 9 8 10 10 11 9 12
REMARK H PARENT 3 5
REMARK Flexibility Score: inf
ROOT
ATOM      1  C   UNL     1       8.500  -0.669  -2.086  1.00  0.00     0.127 C 
ENDROOT
BRANCH   1   2
ATOM      2  C   UNL     1       8.512  -1.913  -2.891  1.00  0.00     0.303 C 
ATOM      3  O   UNL     1       9.581  -2.530  -3.121  1.00  0.00    -0.252 OA
BRANCH   2   4
ATOM      4  O   UNL     1       7.337  -2.431  -3.413  1.00  0.00    -0.481 OA
ATOM      5  H   UNL     1       6.845  -1.914  -4.147  1.00  0.00     0.296 HD
ENDBRANCH   2   4
ENDBRANCH   1   2
BRANCH   1   6
ATOM      6  C   UNL     1       7.115  -0.100  -2.118  1.00  0.00     0.047 C 
BRANCH   6   7
ATOM      7  C   UNL     1       6.519   0.090  -0.797  1.00  0.00    -0.047 A 
ATOM      8  C   UNL     1       5.842   1.247  -0.490  1.00  0.00     0.004 A 
ATOM      9  C   UNL     1       6.640  -0.908   0.143  1.00  0.00     0.004 A 
ATOM     10  C   UNL     1       5.297   1.359   0.791  1.00  0.00     0.000 A 
ATOM     11  C   UNL     1       6.101  -0.795   1.409  1.00  0.00     0.000 A 
ATOM     12  C   UNL     1       5.422   0.361   1.725  1.00  0.00     0.000 A 
ENDBRANCH   6   7
ENDBRANCH   1   6
TORSDOF 4
ENDMDL
MODEL 2
REMARK VINA RESULT:      -7.3      0.098      1.439
REMARK SMILES O=C(O)CCc1ccccc1
REMARK SMILES IDX 4 1 2 2 1 3 3 4 5 6 6 7 7 8 11 9 8 10 10 11 9 12
REMARK H PARENT 3 5
REMARK Flexibility Score: inf
ROOT
ATOM      1  C   UNL     1       8.422  -0.545  -2.245  1.00  0.00     0.127 C 
ENDROOT
BRANCH   1   2
ATOM      2  C   UNL     1       8.477  -1.860  -2.926  1.00  0.00     0.303 C 
ATOM      3  O   UNL     1       9.566  -2.466  -3.084  1.00  0.00    -0.252 OA
BRANCH   2   4
ATOM      4  O   UNL     1       7.325  -2.459  -3.409  1.00  0.00    -0.481 OA
ATOM      5  H   UNL     1       7.395  -3.135  -4.175  1.00  0.00     0.296 HD
ENDBRANCH   2   4
ENDBRANCH   1   2
BRANCH   1   6
ATOM      6  C   UNL     1       6.989  -0.111  -2.177  1.00  0.00     0.047 C 
BRANCH   6   7
ATOM      7  C   UNL     1       6.478   0.040  -0.816  1.00  0.00    -0.047 A 
ATOM      8  C   UNL     1       6.622  -0.971   0.106  1.00  0.00     0.004 A 
ATOM      9  C   UNL     1       5.849   1.211  -0.461  1.00  0.00     0.004 A 
ATOM     10  C   UNL     1       6.110  -0.758   1.388  1.00  0.00     0.000 A 
ATOM     11  C   UNL     1       5.343   1.420   0.807  1.00  0.00     0.000 A 
ATOM     12  C   UNL     1       5.482   0.412   1.736  1.00  0.00     0.000 A 
ENDBRANCH   6   7
ENDBRANCH   1   6
TORSDOF 4
ENDMDL
MODEL 3
REMARK VINA RESULT:      -6.8      3.378      5.092
REMARK SMILES O=C(O)CCc1ccccc1
REMARK SMILES IDX 4 1 2 2 1 3 3 4 5 6 6 7 7 8 11 9 8 10 10 11 9 12
REMARK H PARENT 3 5
REMARK Flexibility Score: inf
ROOT
ATOM      1  C   UNL     1       4.989   1.781   0.706  1.00  0.00     0.127 C 
ENDROOT
BRANCH   1   2
ATOM      2  C   UNL     1       4.471   1.108   1.920  1.00  0.00     0.303 C 
ATOM      3  O   UNL     1       5.124   0.200   2.490  1.00  0.00    -0.252 OA
BRANCH   2   4
ATOM      4  O   UNL     1       3.245   1.464   2.460  1.00  0.00    -0.481 OA
ATOM      5  H   UNL     1       3.058   2.448   2.671  1.00  0.00     0.296 HD
ENDBRANCH   2   4
ENDBRANCH   1   2
BRANCH   1   6
ATOM      6  C   UNL     1       6.487   1.760   0.760  1.00  0.00     0.047 C 
BRANCH   6   7
ATOM      7  C   UNL     1       7.110   1.012  -0.330  1.00  0.00    -0.047 A 
ATOM      8  C   UNL     1       6.391   0.087  -1.050  1.00  0.00     0.004 A 
ATOM      9  C   UNL     1       8.432   1.244  -0.634  1.00  0.00     0.004 A 
ATOM     10  C   UNL     1       7.051  -0.590  -2.078  1.00  0.00     0.000 A 
ATOM     11  C   UNL     1       9.083   0.574  -1.650  1.00  0.00     0.000 A 
ATOM     12  C   UNL     1       8.369  -0.355  -2.376  1.00  0.00     0.000 A 
ENDBRANCH   6   7
ENDBRANCH   1   6
TORSDOF 4
ENDMDL
MODEL 4
REMARK VINA RESULT:      -6.8      1.010      1.587
REMARK SMILES O=C(O)CCc1ccccc1
REMARK SMILES IDX 4 1 2 2 1 3 3 4 5 6 6 7 7 8 11 9 8 10 10 11 9 12
REMARK H PARENT 3 5
REMARK Flexibility Score: inf
ROOT
ATOM      1  C   UNL     1       7.255  -1.366  -2.091  1.00  0.00     0.127 C 
ENDROOT
BRANCH   1   2
ATOM      2  C   UNL     1       8.687  -1.433  -2.466  1.00  0.00     0.303 C 
ATOM      3  O   UNL     1       9.147  -2.412  -3.103  1.00  0.00    -0.252 OA
BRANCH   2   4
ATOM      4  O   UNL     1       9.559  -0.413  -2.122  1.00  0.00    -0.481 OA
ATOM      5  H   UNL     1      10.162  -0.525  -1.302  1.00  0.00     0.296 HD
ENDBRANCH   2   4
ENDBRANCH   1   2
BRANCH   1   6
ATOM      6  C   UNL     1       7.159  -1.362  -0.595  1.00  0.00     0.047 C 
BRANCH   6   7
ATOM      7  C   UNL     1       6.379  -0.251  -0.052  1.00  0.00    -0.047 A 
ATOM      8  C   UNL     1       6.135   0.872  -0.807  1.00  0.00     0.004 A 
ATOM      9  C   UNL     1       5.885  -0.341   1.228  1.00  0.00     0.004 A 
ATOM     10  C   UNL     1       5.382   1.894  -0.225  1.00  0.00     0.000 A 
ATOM     11  C   UNL     1       5.141   0.670   1.803  1.00  0.00     0.000 A 
ATOM     12  C   UNL     1       4.892   1.799   1.054  1.00  0.00     0.000 A 
ENDBRANCH   6   7
ENDBRANCH   1   6
TORSDOF 4
ENDMDL
MODEL 5
REMARK VINA RESULT:      -6.7      3.825      4.997
REMARK SMILES O=C(O)CCc1ccccc1
REMARK SMILES IDX 4 1 2 2 1 3 3 4 5 6 6 7 7 8 11 9 8 10 10 11 9 12
REMARK H PARENT 3 5
REMARK Flexibility Score: inf
ROOT
ATOM      1  C   UNL     1       5.486   2.891  -0.023  1.00  0.00     0.127 C 
ENDROOT
BRANCH   1   2
ATOM      2  C   UNL     1       6.254   3.865   0.789  1.00  0.00     0.303 C 
ATOM      3  O   UNL     1       6.928   4.775   0.246  1.00  0.00    -0.252 OA
BRANCH   2   4
ATOM      4  O   UNL     1       6.248   3.797   2.172  1.00  0.00    -0.481 OA
ATOM      5  H   UNL     1       6.663   2.983   2.635  1.00  0.00     0.296 HD
ENDBRANCH   2   4
ENDBRANCH   1   2
BRANCH   1   6
ATOM      6  C   UNL     1       4.925   1.850   0.898  1.00  0.00     0.047 C 
BRANCH   6   7
ATOM      7  C   UNL     1       5.701   0.612   0.938  1.00  0.00    -0.047 A 
ATOM      8  C   UNL     1       5.777  -0.134   2.091  1.00  0.00     0.004 A 
ATOM      9  C   UNL     1       6.359   0.195  -0.197  1.00  0.00     0.004 A 
ATOM     10  C   UNL     1       6.535  -1.306   2.056  1.00  0.00     0.000 A 
ATOM     11  C   UNL     1       7.109  -0.964  -0.229  1.00  0.00     0.000 A 
ATOM     12  C   UNL     1       7.190  -1.717   0.923  1.00  0.00     0.000 A 
ENDBRANCH   6   7
ENDBRANCH   1   6
TORSDOF 4
ENDMDL
