@<TRIPOS>MOLECULE
/home/cewinharhar/GITHUB/reincatalyze/data/processed/docking_pred/2023-Apr-26-1657_maxeplen10_maxtrainstep1000_exh32_gamma099_lrac9e-4_lrcr1e-3/3109bb1a4c888d48ff6ee722b945383cff227a99_ligand_2.pdbqt
 12 12 0 0 0
SMALL
GASTEIGER

@<TRIPOS>ATOM
      1  C          8.5000   -0.6690   -2.0860 C.3     1  UNL1        0.1270
      2  C          8.5120   -1.9130   -2.8910 C.2     1  UNL1        0.3030
      3  O          9.5810   -2.5300   -3.1210 O.2     1  UNL1       -0.2520
      4  O          7.3370   -2.4310   -3.4130 O.3     1  UNL1       -0.4810
      5  H          6.8450   -1.9140   -4.1470 H       1  UNL1        0.2960
      6  C          7.1150   -0.1000   -2.1180 C.3     1  UNL1        0.0470
      7  C          6.5190    0.0900   -0.7970 C.2     1  UNL1       -0.0470
      8  C          5.8420    1.2470   -0.4900 C.2     1  UNL1        0.0040
      9  C          6.6400   -0.9080    0.1430 C.2     1  UNL1        0.0040
     10  C          5.2970    1.3590    0.7910 C.2     1  UNL1        0.0000
     11  C          6.1010   -0.7950    1.4090 C.2     1  UNL1        0.0000
     12  C          5.4220    0.3610    1.7250 C.2     1  UNL1        0.0000
@<TRIPOS>BOND
     1     5     4    1
     2     4     2    1
     3     3     2    2
     4     2     1    1
     5     6     1    1
     6     6     7    1
     7     7     8    2
     8     7     9    1
     9     8    10    1
    10     9    11    2
    11    10    12    2
    12    11    12    1
