@<TRIPOS>MOLECULE
/home/cewinharhar/GITHUB/reincatalyze/data/processed/docking_pred/2023-Apr-26-1657_maxeplen10_maxtrainstep1000_exh32_gamma099_lrac9e-4_lrcr1e-3/3110d36e974f17e9d190d2a4a051583463654b40_ligand_2.pdbqt
 12 12 0 0 0
SMALL
GASTEIGER

@<TRIPOS>ATOM
      1  C          8.2460   -0.9350   -1.8270 C.3     1  UNL1        0.1270
      2  C          8.4140   -2.0090   -2.8340 C.2     1  UNL1        0.3030
      3  O          9.5490   -2.4660   -3.1150 O.2     1  UNL1       -0.2520
      4  O          7.3180   -2.5400   -3.4950 O.3     1  UNL1       -0.4810
      5  H          6.3820   -2.4050   -3.1020 H       1  UNL1        0.2960
      6  C          7.2650   -1.4040   -0.7960 C.3     1  UNL1        0.0470
      7  C          6.4980   -0.3280   -0.1710 C.2     1  UNL1       -0.0470
      8  C          6.0870   -0.4260    1.1380 C.2     1  UNL1        0.0040
      9  C          6.1910    0.7920   -0.9080 C.2     1  UNL1        0.0040
     10  C          5.3590    0.6410    1.6700 C.2     1  UNL1        0.0000
     11  C          5.4710    1.8460   -0.3810 C.2     1  UNL1        0.0000
     12  C          5.0540    1.7560    0.9300 C.2     1  UNL1        0.0000
@<TRIPOS>BOND
     1     4     5    1
     2     4     2    1
     3     3     2    2
     4     2     1    1
     5     1     6    1
     6     9    11    1
     7     9     7    2
     8     6     7    1
     9    11    12    2
    10     7     8    1
    11    12    10    1
    12     8    10    2
