@<TRIPOS>MOLECULE
/home/cewinharhar/GITHUB/reincatalyze/data/processed/docking_pred/2023-Apr-26-1657_maxeplen10_maxtrainstep1000_exh32_gamma099_lrac9e-4_lrcr1e-3/3110d36e974f17e9d190d2a4a051583463654b40_ligand_2.pdbqt
 12 12 0 0 0
SMALL
GASTEIGER

@<TRIPOS>ATOM
      1  C          4.9900    1.8090    0.7190 C.3     1  UNL1        0.1270
      2  C          4.4820    1.1140    1.9250 C.2     1  UNL1        0.3030
      3  O          5.1440    0.2010    2.4770 O.2     1  UNL1       -0.2520
      4  O          3.2570    1.4540    2.4770 O.3     1  UNL1       -0.4810
      5  H          3.0200    2.4420    2.5990 H       1  UNL1        0.2960
      6  C          6.4880    1.7930    0.7620 C.3     1  UNL1        0.0470
      7  C          7.1060    1.0490   -0.3340 C.2     1  UNL1       -0.0470
      8  C          6.3650    0.1790   -1.1000 C.2     1  UNL1        0.0040
      9  C          8.4440    1.2300   -0.5970 C.2     1  UNL1        0.0040
     10  C          7.0220   -0.4970   -2.1310 C.2     1  UNL1        0.0000
     11  C          9.0910    0.5610   -1.6170 C.2     1  UNL1        0.0000
     12  C          8.3570   -0.3130   -2.3880 C.2     1  UNL1        0.0000
@<TRIPOS>BOND
     1    12    10    2
     2    12    11    1
     3    10     8    1
     4    11     9    2
     5     8     7    2
     6     9     7    1
     7     7     6    1
     8     1     6    1
     9     1     2    1
    10     2     3    2
    11     2     4    1
    12     4     5    1
