@<TRIPOS>MOLECULE
/home/cewinharhar/GITHUB/reincatalyze/data/processed/docking_pred/2023-Apr-26-1657_maxeplen10_maxtrainstep1000_exh32_gamma099_lrac9e-4_lrcr1e-3/3110d36e974f17e9d190d2a4a051583463654b40_ligand_2.pdbqt
 12 12 0 0 0
SMALL
GASTEIGER

@<TRIPOS>ATOM
      1  C          8.4310   -0.5440   -2.2440 C.3     1  UNL1        0.1270
      2  C          8.4930   -1.8500   -2.9420 C.2     1  UNL1        0.3030
      3  O          9.5850   -2.4450   -3.1120 O.2     1  UNL1       -0.2520
      4  O          7.3430   -2.4510   -3.4270 O.3     1  UNL1       -0.4810
      5  H          7.1480   -3.4260   -3.1860 H       1  UNL1        0.2960
      6  C          6.9980   -0.1100   -2.1840 C.3     1  UNL1        0.0470
      7  C          6.4800    0.0440   -0.8250 C.2     1  UNL1       -0.0470
      8  C          6.6260   -0.9620    0.1010 C.2     1  UNL1        0.0040
      9  C          5.8430    1.2130   -0.4780 C.2     1  UNL1        0.0040
     10  C          6.1080   -0.7450    1.3800 C.2     1  UNL1        0.0000
     11  C          5.3310    1.4250    0.7860 C.2     1  UNL1        0.0000
     12  C          5.4730    0.4220    1.7210 C.2     1  UNL1        0.0000
@<TRIPOS>BOND
     1     4     5    1
     2     4     2    1
     3     3     2    2
     4     2     1    1
     5     1     6    1
     6     6     7    1
     7     7     9    2
     8     7     8    1
     9     9    11    1
    10     8    10    2
    11    11    12    2
    12    10    12    1
