@<TRIPOS>MOLECULE
/home/cewinharhar/GITHUB/reincatalyze/data/processed/docking_pred/2023-Apr-26-1657_maxeplen10_maxtrainstep1000_exh32_gamma099_lrac9e-4_lrcr1e-3/3110d36e974f17e9d190d2a4a051583463654b40_ligand_2.pdbqt
 12 12 0 0 0
SMALL
GASTEIGER

@<TRIPOS>ATOM
      1  C          5.4190    2.9070    0.0130 C.3     1  UNL1        0.1270
      2  C          6.2240    3.8870    0.7790 C.2     1  UNL1        0.3030
      3  O          6.8950    4.7750    0.1970 O.2     1  UNL1       -0.2520
      4  O          6.2580    3.8500    2.1640 O.3     1  UNL1       -0.4810
      5  H          6.9390    4.4280    2.6640 H       1  UNL1        0.2960
      6  C          4.9240    1.8590    0.9630 C.3     1  UNL1        0.0470
      7  C          5.7070    0.6250    0.9490 C.2     1  UNL1       -0.0470
      8  C          5.7940   -0.1660    2.0700 C.2     1  UNL1        0.0040
      9  C          6.3610    0.2580   -0.2050 C.2     1  UNL1        0.0040
     10  C          6.5590   -1.3320    1.9840 C.2     1  UNL1        0.0000
     11  C          7.1170   -0.8940   -0.2890 C.2     1  UNL1        0.0000
     12  C          7.2090   -1.6920    0.8310 C.2     1  UNL1        0.0000
@<TRIPOS>BOND
     1    11     9    1
     2    11    12    2
     3     9     7    2
     4     1     2    1
     5     1     6    1
     6     3     2    2
     7     2     4    1
     8    12    10    1
     9     7     6    1
    10     7     8    1
    11    10     8    2
    12     4     5    1
