@<TRIPOS>MOLECULE
/home/cewinharhar/GITHUB/reincatalyze/data/processed/docking_pred/2023-Apr-26-1657_maxeplen10_maxtrainstep1000_exh32_gamma099_lrac9e-4_lrcr1e-3/3110d36e974f17e9d190d2a4a051583463654b40_ligand_2.pdbqt
 12 12 0 0 0
SMALL
GASTEIGER

@<TRIPOS>ATOM
      1  C          8.3840   -0.6110   -2.1260 C.3     1  UNL1        0.1270
      2  C          8.3650   -1.8780   -2.8960 C.2     1  UNL1        0.3030
      3  O          7.2830   -2.4090   -3.2480 O.2     1  UNL1       -0.2520
      4  O          9.5450   -2.5120   -3.2480 O.3     1  UNL1       -0.4810
      5  H         10.2330   -2.0110   -3.8170 H       1  UNL1        0.2960
      6  C          6.9900   -0.0630   -2.0890 C.3     1  UNL1        0.0470
      7  C          6.4470    0.0880   -0.7400 C.2     1  UNL1       -0.0470
      8  C          5.8050    1.2460   -0.3650 C.2     1  UNL1        0.0040
      9  C          6.5810   -0.9460    0.1580 C.2     1  UNL1        0.0040
     10  C          5.3100    1.3200    0.9390 C.2     1  UNL1        0.0000
     11  C          6.0920   -0.8700    1.4470 C.2     1  UNL1        0.0000
     12  C          5.4490    0.2860    1.8300 C.2     1  UNL1        0.0000
@<TRIPOS>BOND
     1     5     4    1
     2     3     2    2
     3     4     2    1
     4     2     1    1
     5     1     6    1
     6     6     7    1
     7     7     8    2
     8     7     9    1
     9     8    10    1
    10     9    11    2
    11    10    12    2
    12    11    12    1
