@<TRIPOS>MOLECULE
/home/cewinharhar/GITHUB/reincatalyze/data/processed/docking_pred/2023-Apr-26-1657_maxeplen10_maxtrainstep1000_exh32_gamma099_lrac9e-4_lrcr1e-3/3162da3d825baae428df1736f889259fa2bb10a2_ligand_2.pdbqt
 12 12 0 0 0
SMALL
GASTEIGER

@<TRIPOS>ATOM
      1  C          8.1710    0.2880   -2.0560 C.3     1  UNL1        0.1270
      2  C          9.3550    0.3660   -1.1680 C.2     1  UNL1        0.3030
      3  O          9.4780   -0.3970   -0.1780 O.2     1  UNL1       -0.2520
      4  O         10.3630    1.2860   -1.4090 O.3     1  UNL1       -0.4810
      5  H         11.2520    1.1970   -0.9100 H       1  UNL1        0.2960
      6  C          7.1400   -0.5720   -1.3900 C.3     1  UNL1        0.0470
      7  C          6.3490    0.1240   -0.3770 C.2     1  UNL1       -0.0470
      8  C          5.7990    1.3580   -0.6400 C.2     1  UNL1        0.0040
      9  C          6.1560   -0.4690    0.8490 C.2     1  UNL1        0.0040
     10  C          5.0540    1.9640    0.3740 C.2     1  UNL1        0.0000
     11  C          5.4200    0.1320    1.8500 C.2     1  UNL1        0.0000
     12  C          4.8660    1.3680    1.5960 C.2     1  UNL1        0.0000
@<TRIPOS>BOND
     1     1     6    1
     2     1     2    1
     3     4     2    1
     4     4     5    1
     5     6     7    1
     6     2     3    2
     7     8     7    2
     8     8    10    1
     9     7     9    1
    10    10    12    2
    11     9    11    2
    12    12    11    1
