@<TRIPOS>MOLECULE
/home/cewinharhar/GITHUB/reincatalyze/data/processed/docking_pred/2023-Apr-26-1657_maxeplen10_maxtrainstep1000_exh32_gamma099_lrac9e-4_lrcr1e-3/3162da3d825baae428df1736f889259fa2bb10a2_ligand_2.pdbqt
 12 12 0 0 0
SMALL
GASTEIGER

@<TRIPOS>ATOM
      1  C          5.4590    2.8970   -0.0040 C.3     1  UNL1        0.1270
      2  C          6.2630    3.8350    0.8150 C.2     1  UNL1        0.3030
      3  O          6.9070    4.7740    0.2850 O.2     1  UNL1       -0.2520
      4  O          6.3260    3.7000    2.1920 O.3     1  UNL1       -0.4810
      5  H          6.8810    2.9400    2.5960 H       1  UNL1        0.2960
      6  C          4.9240    1.8260    0.8960 C.3     1  UNL1        0.0470
      7  C          5.7200    0.6000    0.9000 C.2     1  UNL1       -0.0470
      8  C          6.4050    0.2030   -0.2250 C.2     1  UNL1        0.0040
      9  C          5.7810   -0.1580    2.0470 C.2     1  UNL1        0.0040
     10  C          7.1470   -0.9780   -0.1490 C.2     1  UNL1        0.0000
     11  C          6.5140   -1.3260    2.1200 C.2     1  UNL1        0.0000
     12  C          7.2030   -1.7310    0.9970 C.2     1  UNL1        0.0000
@<TRIPOS>BOND
     1     8    10    1
     2     8     7    2
     3    10    12    2
     4     1     2    1
     5     1     6    1
     6     3     2    2
     7     2     4    1
     8     6     7    1
     9     7     9    1
    10    12    11    1
    11     9    11    2
    12     4     5    1
