@<TRIPOS>MOLECULE
/home/cewinharhar/GITHUB/reincatalyze/data/processed/docking_pred/2023-Apr-26-1657_maxeplen10_maxtrainstep1000_exh32_gamma099_lrac9e-4_lrcr1e-3/3162da3d825baae428df1736f889259fa2bb10a2_ligand_2.pdbqt
 12 12 0 0 0
SMALL
GASTEIGER

@<TRIPOS>ATOM
      1  C          4.9860    1.8040    0.6890 C.3     1  UNL1        0.1270
      2  C          4.4850    1.1160    1.9030 C.2     1  UNL1        0.3030
      3  O          5.1550    0.2130    2.4620 O.2     1  UNL1       -0.2520
      4  O          3.2600    1.4520    2.4550 O.3     1  UNL1       -0.4810
      5  H          3.2320    1.9380    3.3560 H       1  UNL1        0.2960
      6  C          6.4840    1.8030    0.7320 C.3     1  UNL1        0.0470
      7  C          7.1080    1.0420   -0.3490 C.2     1  UNL1       -0.0470
      8  C          6.3740    0.1520   -1.0980 C.2     1  UNL1        0.0040
      9  C          8.4460    1.2260   -0.6140 C.2     1  UNL1        0.0040
     10  C          7.0360   -0.5400   -2.1150 C.2     1  UNL1        0.0000
     11  C          9.0980    0.5410   -1.6190 C.2     1  UNL1        0.0000
     12  C          8.3700   -0.3530   -2.3740 C.2     1  UNL1        0.0000
@<TRIPOS>BOND
     1    12    10    2
     2    12    11    1
     3    10     8    1
     4    11     9    2
     5     8     7    2
     6     9     7    1
     7     7     6    1
     8     1     6    1
     9     1     2    1
    10     2     4    1
    11     2     3    2
    12     4     5    1
