@<TRIPOS>MOLECULE
/home/cewinharhar/GITHUB/reincatalyze/data/processed/docking_pred/2023-Apr-26-1657_maxeplen10_maxtrainstep1000_exh32_gamma099_lrac9e-4_lrcr1e-3/3162da3d825baae428df1736f889259fa2bb10a2_ligand_2.pdbqt
 12 12 0 0 0
SMALL
GASTEIGER

@<TRIPOS>ATOM
      1  C          8.4470   -0.6210   -2.1460 C.3     1  UNL1        0.1270
      2  C          8.4770   -1.8940   -2.9040 C.2     1  UNL1        0.3030
      3  O          9.5550   -2.5100   -3.0990 O.2     1  UNL1       -0.2520
      4  O          7.3140   -2.4420   -3.4190 O.3     1  UNL1       -0.4810
      5  H          6.6020   -1.8230   -3.8170 H       1  UNL1        0.2960
      6  C          7.0350   -0.1210   -2.1230 C.3     1  UNL1        0.0470
      7  C          6.4860    0.0490   -0.7790 C.2     1  UNL1       -0.0470
      8  C          5.8520    1.2160   -0.4200 C.2     1  UNL1        0.0040
      9  C          6.6080   -0.9770    0.1300 C.2     1  UNL1        0.0040
     10  C          5.3510    1.3080    0.8810 C.2     1  UNL1        0.0000
     11  C          6.1120   -0.8840    1.4160 C.2     1  UNL1        0.0000
     12  C          5.4760    0.2820    1.7840 C.2     1  UNL1        0.0000
@<TRIPOS>BOND
     1     5     4    1
     2     4     2    1
     3     3     2    2
     4     2     1    1
     5     1     6    1
     6     6     7    1
     7     7     8    2
     8     7     9    1
     9     8    10    1
    10     9    11    2
    11    10    12    2
    12    11    12    1
