MODEL 1
REMARK VINA RESULT:      -7.3      0.000      0.000
REMARK SMILES O=C(O)CCc1ccccc1
REMARK SMILES IDX 4 1 2 2 1 3 3 4 5 6 6 7 7 8 11 9 8 10 10 11 9 12
REMARK H PARENT 3 5
REMARK Flexibility Score: inf
ROOT
ATOM      1  C   UNL     1       8.447  -0.621  -2.146  1.00  0.00     0.127 C 
ENDROOT
BRANCH   1   2
ATOM      2  C   UNL     1       8.477  -1.894  -2.904  1.00  0.00     0.303 C 
ATOM      3  O   UNL     1       9.555  -2.510  -3.099  1.00  0.00    -0.252 OA
BRANCH   2   4
ATOM      4  O   UNL     1       7.314  -2.442  -3.419  1.00  0.00    -0.481 OA
ATOM      5  H   UNL     1       6.602  -1.823  -3.817  1.00  0.00     0.296 HD
ENDBRANCH   2   4
ENDBRANCH   1   2
BRANCH   1   6
ATOM      6  C   UNL     1       7.035  -0.121  -2.123  1.00  0.00     0.047 C 
BRANCH   6   7
ATOM      7  C   UNL     1       6.486   0.049  -0.779  1.00  0.00    -0.047 A 
ATOM      8  C   UNL     1       5.852   1.216  -0.420  1.00  0.00     0.004 A 
ATOM      9  C   UNL     1       6.608  -0.977   0.130  1.00  0.00     0.004 A 
ATOM     10  C   UNL     1       5.351   1.308   0.881  1.00  0.00     0.000 A 
ATOM     11  C   UNL     1       6.112  -0.884   1.416  1.00  0.00     0.000 A 
ATOM     12  C   UNL     1       5.476   0.282   1.784  1.00  0.00     0.000 A 
ENDBRANCH   6   7
ENDBRANCH   1   6
TORSDOF 4
ENDMDL
MODEL 2
REMARK VINA RESULT:      -7.3      0.076      1.438
REMARK SMILES O=C(O)CCc1ccccc1
REMARK SMILES IDX 4 1 2 2 1 3 3 4 5 6 6 7 7 8 11 9 8 10 10 11 9 12
REMARK H PARENT 3 5
REMARK Flexibility Score: inf
ROOT
ATOM      1  C   UNL     1       8.442  -0.665  -2.091  1.00  0.00     0.127 C 
ENDROOT
BRANCH   1   2
ATOM      2  C   UNL     1       8.468  -1.916  -2.885  1.00  0.00     0.303 C 
ATOM      3  O   UNL     1       9.540  -2.539  -3.084  1.00  0.00    -0.252 OA
BRANCH   2   4
ATOM      4  O   UNL     1       7.305  -2.433  -3.433  1.00  0.00    -0.481 OA
ATOM      5  H   UNL     1       6.406  -2.222  -2.991  1.00  0.00     0.296 HD
ENDBRANCH   2   4
ENDBRANCH   1   2
BRANCH   1   6
ATOM      6  C   UNL     1       7.033  -0.158  -2.057  1.00  0.00     0.047 C 
BRANCH   6   7
ATOM      7  C   UNL     1       6.480  -0.027  -0.710  1.00  0.00    -0.047 A 
ATOM      8  C   UNL     1       6.610  -1.045   0.205  1.00  0.00     0.004 A 
ATOM      9  C   UNL     1       5.825   1.132  -0.363  1.00  0.00     0.004 A 
ATOM     10  C   UNL     1       6.058  -0.851   1.474  1.00  0.00     0.000 A 
ATOM     11  C   UNL     1       5.280   1.322   0.891  1.00  0.00     0.000 A 
ATOM     12  C   UNL     1       5.405   0.306   1.814  1.00  0.00     0.000 A 
ENDBRANCH   6   7
ENDBRANCH   1   6
TORSDOF 4
ENDMDL
MODEL 3
REMARK VINA RESULT:      -6.8      3.376      5.078
REMARK SMILES O=C(O)CCc1ccccc1
REMARK SMILES IDX 4 1 2 2 1 3 3 4 5 6 6 7 7 8 11 9 8 10 10 11 9 12
REMARK H PARENT 3 5
REMARK Flexibility Score: inf
ROOT
ATOM      1  C   UNL     1       4.986   1.804   0.689  1.00  0.00     0.127 C 
ENDROOT
BRANCH   1   2
ATOM      2  C   UNL     1       4.485   1.116   1.903  1.00  0.00     0.303 C 
ATOM      3  O   UNL     1       5.155   0.213   2.462  1.00  0.00    -0.252 OA
BRANCH   2   4
ATOM      4  O   UNL     1       3.260   1.452   2.455  1.00  0.00    -0.481 OA
ATOM      5  H   UNL     1       3.232   1.938   3.356  1.00  0.00     0.296 HD
ENDBRANCH   2   4
ENDBRANCH   1   2
BRANCH   1   6
ATOM      6  C   UNL     1       6.484   1.803   0.732  1.00  0.00     0.047 C 
BRANCH   6   7
ATOM      7  C   UNL     1       7.108   1.042  -0.349  1.00  0.00    -0.047 A 
ATOM      8  C   UNL     1       6.374   0.152  -1.098  1.00  0.00     0.004 A 
ATOM      9  C   UNL     1       8.446   1.226  -0.614  1.00  0.00     0.004 A 
ATOM     10  C   UNL     1       7.036  -0.540  -2.115  1.00  0.00     0.000 A 
ATOM     11  C   UNL     1       9.098   0.541  -1.619  1.00  0.00     0.000 A 
ATOM     12  C   UNL     1       8.370  -0.353  -2.374  1.00  0.00     0.000 A 
ENDBRANCH   6   7
ENDBRANCH   1   6
TORSDOF 4
ENDMDL
MODEL 4
REMARK VINA RESULT:      -6.7      3.829      4.905
REMARK SMILES O=C(O)CCc1ccccc1
REMARK SMILES IDX 4 1 2 2 1 3 3 4 5 6 6 7 7 8 11 9 8 10 10 11 9 12
REMARK H PARENT 3 5
REMARK Flexibility Score: inf
ROOT
ATOM      1  C   UNL     1       5.459   2.897  -0.004  1.00  0.00     0.127 C 
ENDROOT
BRANCH   1   2
ATOM      2  C   UNL     1       6.263   3.835   0.815  1.00  0.00     0.303 C 
ATOM      3  O   UNL     1       6.907   4.774   0.285  1.00  0.00    -0.252 OA
BRANCH   2   4
ATOM      4  O   UNL     1       6.326   3.700   2.192  1.00  0.00    -0.481 OA
ATOM      5  H   UNL     1       6.881   2.940   2.596  1.00  0.00     0.296 HD
ENDBRANCH   2   4
ENDBRANCH   1   2
BRANCH   1   6
ATOM      6  C   UNL     1       4.924   1.826   0.896  1.00  0.00     0.047 C 
BRANCH   6   7
ATOM      7  C   UNL     1       5.720   0.600   0.900  1.00  0.00    -0.047 A 
ATOM      8  C   UNL     1       6.405   0.203  -0.225  1.00  0.00     0.004 A 
ATOM      9  C   UNL     1       5.781  -0.158   2.047  1.00  0.00     0.004 A 
ATOM     10  C   UNL     1       7.147  -0.978  -0.149  1.00  0.00     0.000 A 
ATOM     11  C   UNL     1       6.514  -1.326   2.120  1.00  0.00     0.000 A 
ATOM     12  C   UNL     1       7.203  -1.731   0.997  1.00  0.00     0.000 A 
ENDBRANCH   6   7
ENDBRANCH   1   6
TORSDOF 4
ENDMDL
MODEL 5
REMARK VINA RESULT:      -6.6      1.957      2.258
REMARK SMILES O=C(O)CCc1ccccc1
REMARK SMILES IDX 4 1 2 2 1 3 3 4 5 6 6 7 7 8 11 9 8 10 10 11 9 12
REMARK H PARENT 3 5
REMARK Flexibility Score: inf
ROOT
ATOM      1  C   UNL     1       8.171   0.288  -2.056  1.00  0.00     0.127 C 
ENDROOT
BRANCH   1   2
ATOM      2  C   UNL     1       9.355   0.366  -1.168  1.00  0.00     0.303 C 
ATOM      3  O   UNL     1       9.478  -0.397  -0.178  1.00  0.00    -0.252 OA
BRANCH   2   4
ATOM      4  O   UNL     1      10.363   1.286  -1.409  1.00  0.00    -0.481 OA
ATOM      5  H   UNL     1      11.252   1.197  -0.910  1.00  0.00     0.296 HD
ENDBRANCH   2   4
ENDBRANCH   1   2
BRANCH   1   6
ATOM      6  C   UNL     1       7.140  -0.572  -1.390  1.00  0.00     0.047 C 
BRANCH   6   7
ATOM      7  C   UNL     1       6.349   0.124  -0.377  1.00  0.00    -0.047 A 
ATOM      8  C   UNL     1       5.799   1.358  -0.640  1.00  0.00     0.004 A 
ATOM      9  C   UNL     1       6.156  -0.469   0.849  1.00  0.00     0.004 A 
ATOM     10  C   UNL     1       5.054   1.964   0.374  1.00  0.00     0.000 A 
ATOM     11  C   UNL     1       5.420   0.132   1.850  1.00  0.00     0.000 A 
ATOM     12  C   UNL     1       4.866   1.368   1.596  1.00  0.00     0.000 A 
ENDBRANCH   6   7
ENDBRANCH   1   6
TORSDOF 4
ENDMDL
