@<TRIPOS>MOLECULE
/home/cewinharhar/GITHUB/reincatalyze/data/processed/docking_pred/2023-Apr-26-1657_maxeplen10_maxtrainstep1000_exh32_gamma099_lrac9e-4_lrcr1e-3/3162da3d825baae428df1736f889259fa2bb10a2_ligand_2.pdbqt
 12 12 0 0 0
SMALL
GASTEIGER

@<TRIPOS>ATOM
      1  C          8.4420   -0.6650   -2.0910 C.3     1  UNL1        0.1270
      2  C          8.4680   -1.9160   -2.8850 C.2     1  UNL1        0.3030
      3  O          9.5400   -2.5390   -3.0840 O.2     1  UNL1       -0.2520
      4  O          7.3050   -2.4330   -3.4330 O.3     1  UNL1       -0.4810
      5  H          6.4060   -2.2220   -2.9910 H       1  UNL1        0.2960
      6  C          7.0330   -0.1580   -2.0570 C.3     1  UNL1        0.0470
      7  C          6.4800   -0.0270   -0.7100 C.2     1  UNL1       -0.0470
      8  C          6.6100   -1.0450    0.2050 C.2     1  UNL1        0.0040
      9  C          5.8250    1.1320   -0.3630 C.2     1  UNL1        0.0040
     10  C          6.0580   -0.8510    1.4740 C.2     1  UNL1        0.0000
     11  C          5.2800    1.3220    0.8910 C.2     1  UNL1        0.0000
     12  C          5.4050    0.3060    1.8140 C.2     1  UNL1        0.0000
@<TRIPOS>BOND
     1     4     5    1
     2     4     2    1
     3     3     2    2
     4     2     1    1
     5     1     6    1
     6     6     7    1
     7     7     9    2
     8     7     8    1
     9     9    11    1
    10     8    10    2
    11    11    12    2
    12    10    12    1
