@<TRIPOS>MOLECULE
/home/cewinharhar/GITHUB/reincatalyze/data/processed/docking_pred/2023-Apr-26-1657_maxeplen10_maxtrainstep1000_exh32_gamma099_lrac9e-4_lrcr1e-3/31638bda67923b1bb66f4f033a77b51352de91e4_ligand_2.pdbqt
 12 12 0 0 0
SMALL
GASTEIGER

@<TRIPOS>ATOM
      1  C          5.0440    1.7480    0.6610 C.3     1  UNL1        0.1270
      2  C          4.6040    1.0680    1.9010 C.2     1  UNL1        0.3030
      3  O          5.3370    0.2270    2.4780 O.2     1  UNL1       -0.2520
      4  O          3.3660    1.3410    2.4600 O.3     1  UNL1       -0.4810
      5  H          2.6800    1.8780    1.9210 H       1  UNL1        0.2960
      6  C          6.5410    1.8210    0.6690 C.3     1  UNL1        0.0470
      7  C          7.1800    1.0420   -0.3900 C.2     1  UNL1       -0.0470
      8  C          8.5170    1.2040   -0.6730 C.2     1  UNL1        0.0040
      9  C          6.4290    0.1380   -1.1050 C.2     1  UNL1        0.0040
     10  C          9.0610    0.4260   -1.6970 C.2     1  UNL1        0.0000
     11  C          6.9690   -0.6300   -2.1170 C.2     1  UNL1        0.0000
     12  C          8.3070   -0.4740   -2.4080 C.2     1  UNL1        0.0000
@<TRIPOS>BOND
     1    12    11    2
     2    12    10    1
     3    11     9    1
     4    10     8    2
     5     9     7    2
     6     8     7    1
     7     7     6    1
     8     1     6    1
     9     1     2    1
    10     2     4    1
    11     2     3    2
    12     5     4    1
