@<TRIPOS>MOLECULE
/home/cewinharhar/GITHUB/reincatalyze/data/processed/docking_pred/2023-Apr-26-1657_maxeplen10_maxtrainstep1000_exh32_gamma099_lrac9e-4_lrcr1e-3/31638bda67923b1bb66f4f033a77b51352de91e4_ligand_2.pdbqt
 12 12 0 0 0
SMALL
GASTEIGER

@<TRIPOS>ATOM
      1  C          8.4000   -0.6650   -2.0640 C.3     1  UNL1        0.1270
      2  C          8.3700   -1.9000   -2.8820 C.2     1  UNL1        0.3030
      3  O          7.2830   -2.4080   -3.2550 O.2     1  UNL1       -0.2520
      4  O          9.5450   -2.5310   -3.2580 O.3     1  UNL1       -0.4810
      5  H          9.5150   -3.2580   -3.9780 H       1  UNL1        0.2960
      6  C          7.0250   -0.0700   -2.0600 C.3     1  UNL1        0.0470
      7  C          6.4520    0.0980   -0.7250 C.2     1  UNL1       -0.0470
      8  C          5.8040    1.2600   -0.3790 C.2     1  UNL1        0.0040
      9  C          6.5670   -0.9250    0.1870 C.2     1  UNL1        0.0040
     10  C          5.2810    1.3510    0.9130 C.2     1  UNL1        0.0000
     11  C          6.0500   -0.8340    1.4640 C.2     1  UNL1        0.0000
     12  C          5.3990    0.3280    1.8190 C.2     1  UNL1        0.0000
@<TRIPOS>BOND
     1     5     4    1
     2     4     2    1
     3     3     2    2
     4     2     1    1
     5     1     6    1
     6     6     7    1
     7     7     8    2
     8     7     9    1
     9     8    10    1
    10     9    11    2
    11    10    12    2
    12    11    12    1
