@<TRIPOS>MOLECULE
/home/cewinharhar/GITHUB/reincatalyze/data/processed/docking_pred/2023-Apr-26-1657_maxeplen10_maxtrainstep1000_exh32_gamma099_lrac9e-4_lrcr1e-3/31638bda67923b1bb66f4f033a77b51352de91e4_ligand_2.pdbqt
 12 12 0 0 0
SMALL
GASTEIGER

@<TRIPOS>ATOM
      1  C          8.2530    0.1710   -2.1890 C.3     1  UNL1        0.1270
      2  C          9.3800    0.3350   -1.2410 C.2     1  UNL1        0.3030
      3  O          9.4800   -0.3860   -0.2180 O.2     1  UNL1       -0.2520
      4  O         10.3570    1.2930   -1.4580 O.3     1  UNL1       -0.4810
      5  H         11.3030    0.9950   -1.7120 H       1  UNL1        0.2960
      6  C          7.1640   -0.5910   -1.4990 C.3     1  UNL1        0.0470
      7  C          6.3710    0.2130   -0.5710 C.2     1  UNL1       -0.0470
      8  C          5.8390    1.4190   -0.9620 C.2     1  UNL1        0.0040
      9  C          6.1580   -0.2520    0.7070 C.2     1  UNL1        0.0040
     10  C          5.0920    2.1340   -0.0230 C.2     1  UNL1        0.0000
     11  C          5.4190    0.4560    1.6340 C.2     1  UNL1        0.0000
     12  C          4.8840    1.6660    1.2500 C.2     1  UNL1        0.0000
@<TRIPOS>BOND
     1     1     6    1
     2     1     2    1
     3     5     4    1
     4     6     7    1
     5     4     2    1
     6     2     3    2
     7     8     7    2
     8     8    10    1
     9     7     9    1
    10    10    12    2
    11     9    11    2
    12    12    11    1
