MODEL 1
REMARK VINA RESULT:      -7.3      0.000      0.000
REMARK SMILES O=C(O)CCc1ccccc1
REMARK SMILES IDX 4 1 2 2 1 3 3 4 5 6 6 7 7 8 11 9 8 10 10 11 9 12
REMARK H PARENT 3 5
REMARK Flexibility Score: inf
ROOT
ATOM      1  C   UNL     1       8.400  -0.665  -2.064  1.00  0.00     0.127 C 
ENDROOT
BRANCH   1   2
ATOM      2  C   UNL     1       8.370  -1.900  -2.882  1.00  0.00     0.303 C 
ATOM      3  O   UNL     1       7.283  -2.408  -3.255  1.00  0.00    -0.252 OA
BRANCH   2   4
ATOM      4  O   UNL     1       9.545  -2.531  -3.258  1.00  0.00    -0.481 OA
ATOM      5  H   UNL     1       9.515  -3.258  -3.978  1.00  0.00     0.296 HD
ENDBRANCH   2   4
ENDBRANCH   1   2
BRANCH   1   6
ATOM      6  C   UNL     1       7.025  -0.070  -2.060  1.00  0.00     0.047 C 
BRANCH   6   7
ATOM      7  C   UNL     1       6.452   0.098  -0.725  1.00  0.00    -0.047 A 
ATOM      8  C   UNL     1       5.804   1.260  -0.379  1.00  0.00     0.004 A 
ATOM      9  C   UNL     1       6.567  -0.925   0.187  1.00  0.00     0.004 A 
ATOM     10  C   UNL     1       5.281   1.351   0.913  1.00  0.00     0.000 A 
ATOM     11  C   UNL     1       6.050  -0.834   1.464  1.00  0.00     0.000 A 
ATOM     12  C   UNL     1       5.399   0.328   1.819  1.00  0.00     0.000 A 
ENDBRANCH   6   7
ENDBRANCH   1   6
TORSDOF 4
ENDMDL
MODEL 2
REMARK VINA RESULT:      -7.3      0.095      1.439
REMARK SMILES O=C(O)CCc1ccccc1
REMARK SMILES IDX 4 1 2 2 1 3 3 4 5 6 6 7 7 8 11 9 8 10 10 11 9 12
REMARK H PARENT 3 5
REMARK Flexibility Score: inf
ROOT
ATOM      1  C   UNL     1       8.423  -0.676  -2.056  1.00  0.00     0.127 C 
ENDROOT
BRANCH   1   2
ATOM      2  C   UNL     1       8.381  -1.914  -2.869  1.00  0.00     0.303 C 
ATOM      3  O   UNL     1       7.290  -2.406  -3.249  1.00  0.00    -0.252 OA
BRANCH   2   4
ATOM      4  O   UNL     1       9.549  -2.563  -3.234  1.00  0.00    -0.481 OA
ATOM      5  H   UNL     1      10.188  -2.112  -3.895  1.00  0.00     0.296 HD
ENDBRANCH   2   4
ENDBRANCH   1   2
BRANCH   1   6
ATOM      6  C   UNL     1       7.055  -0.064  -2.059  1.00  0.00     0.047 C 
BRANCH   6   7
ATOM      7  C   UNL     1       6.473   0.098  -0.728  1.00  0.00    -0.047 A 
ATOM      8  C   UNL     1       6.584  -0.897   0.214  1.00  0.00     0.004 A 
ATOM      9  C   UNL     1       5.809   1.264  -0.423  1.00  0.00     0.004 A 
ATOM     10  C   UNL     1       6.004  -0.674   1.465  1.00  0.00     0.000 A 
ATOM     11  C   UNL     1       5.236   1.484   0.814  1.00  0.00     0.000 A 
ATOM     12  C   UNL     1       5.343   0.491   1.763  1.00  0.00     0.000 A 
ENDBRANCH   6   7
ENDBRANCH   1   6
TORSDOF 4
ENDMDL
MODEL 3
REMARK VINA RESULT:      -7.1      0.607      1.856
REMARK SMILES O=C(O)CCc1ccccc1
REMARK SMILES IDX 4 1 2 2 1 3 3 4 5 6 6 7 7 8 11 9 8 10 10 11 9 12
REMARK H PARENT 3 5
REMARK Flexibility Score: inf
ROOT
ATOM      1  C   UNL     1       8.111  -0.782  -2.046  1.00  0.00     0.127 C 
ENDROOT
BRANCH   1   2
ATOM      2  C   UNL     1       8.312  -1.965  -2.915  1.00  0.00     0.303 C 
ATOM      3  O   UNL     1       9.450  -2.471  -3.073  1.00  0.00    -0.252 OA
BRANCH   2   4
ATOM      4  O   UNL     1       7.244  -2.547  -3.580  1.00  0.00    -0.481 OA
ATOM      5  H   UNL     1       6.293  -2.387  -3.237  1.00  0.00     0.296 HD
ENDBRANCH   2   4
ENDBRANCH   1   2
BRANCH   1   6
ATOM      6  C   UNL     1       7.581  -1.252  -0.725  1.00  0.00     0.047 C 
BRANCH   6   7
ATOM      7  C   UNL     1       6.679  -0.304  -0.075  1.00  0.00    -0.047 A 
ATOM      8  C   UNL     1       6.265  -0.503   1.222  1.00  0.00     0.004 A 
ATOM      9  C   UNL     1       6.245   0.799  -0.774  1.00  0.00     0.004 A 
ATOM     10  C   UNL     1       5.403   0.445   1.780  1.00  0.00     0.000 A 
ATOM     11  C   UNL     1       5.394   1.734  -0.221  1.00  0.00     0.000 A 
ATOM     12  C   UNL     1       4.974   1.542   1.077  1.00  0.00     0.000 A 
ENDBRANCH   6   7
ENDBRANCH   1   6
TORSDOF 4
ENDMDL
MODEL 4
REMARK VINA RESULT:      -6.7      3.280      5.095
REMARK SMILES O=C(O)CCc1ccccc1
REMARK SMILES IDX 4 1 2 2 1 3 3 4 5 6 6 7 7 8 11 9 8 10 10 11 9 12
REMARK H PARENT 3 5
REMARK Flexibility Score: inf
ROOT
ATOM      1  C   UNL     1       5.044   1.748   0.661  1.00  0.00     0.127 C 
ENDROOT
BRANCH   1   2
ATOM      2  C   UNL     1       4.604   1.068   1.901  1.00  0.00     0.303 C 
ATOM      3  O   UNL     1       5.337   0.227   2.478  1.00  0.00    -0.252 OA
BRANCH   2   4
ATOM      4  O   UNL     1       3.366   1.341   2.460  1.00  0.00    -0.481 OA
ATOM      5  H   UNL     1       2.680   1.878   1.921  1.00  0.00     0.296 HD
ENDBRANCH   2   4
ENDBRANCH   1   2
BRANCH   1   6
ATOM      6  C   UNL     1       6.541   1.821   0.669  1.00  0.00     0.047 C 
BRANCH   6   7
ATOM      7  C   UNL     1       7.180   1.042  -0.390  1.00  0.00    -0.047 A 
ATOM      8  C   UNL     1       8.517   1.204  -0.673  1.00  0.00     0.004 A 
ATOM      9  C   UNL     1       6.429   0.138  -1.105  1.00  0.00     0.004 A 
ATOM     10  C   UNL     1       9.061   0.426  -1.697  1.00  0.00     0.000 A 
ATOM     11  C   UNL     1       6.969  -0.630  -2.117  1.00  0.00     0.000 A 
ATOM     12  C   UNL     1       8.307  -0.474  -2.408  1.00  0.00     0.000 A 
ENDBRANCH   6   7
ENDBRANCH   1   6
TORSDOF 4
ENDMDL
MODEL 5
REMARK VINA RESULT:      -6.6      1.925      2.216
REMARK SMILES O=C(O)CCc1ccccc1
REMARK SMILES IDX 4 1 2 2 1 3 3 4 5 6 6 7 7 8 11 9 8 10 10 11 9 12
REMARK H PARENT 3 5
REMARK Flexibility Score: inf
ROOT
ATOM      1  C   UNL     1       8.253   0.171  -2.189  1.00  0.00     0.127 C 
ENDROOT
BRANCH   1   2
ATOM      2  C   UNL     1       9.380   0.335  -1.241  1.00  0.00     0.303 C 
ATOM      3  O   UNL     1       9.480  -0.386  -0.218  1.00  0.00    -0.252 OA
BRANCH   2   4
ATOM      4  O   UNL     1      10.357   1.293  -1.458  1.00  0.00    -0.481 OA
ATOM      5  H   UNL     1      11.303   0.995  -1.712  1.00  0.00     0.296 HD
ENDBRANCH   2   4
ENDBRANCH   1   2
BRANCH   1   6
ATOM      6  C   UNL     1       7.164  -0.591  -1.499  1.00  0.00     0.047 C 
BRANCH   6   7
ATOM      7  C   UNL     1       6.371   0.213  -0.571  1.00  0.00    -0.047 A 
ATOM      8  C   UNL     1       5.839   1.419  -0.962  1.00  0.00     0.004 A 
ATOM      9  C   UNL     1       6.158  -0.252   0.707  1.00  0.00     0.004 A 
ATOM     10  C   UNL     1       5.092   2.134  -0.023  1.00  0.00     0.000 A 
ATOM     11  C   UNL     1       5.419   0.456   1.634  1.00  0.00     0.000 A 
ATOM     12  C   UNL     1       4.884   1.666   1.250  1.00  0.00     0.000 A 
ENDBRANCH   6   7
ENDBRANCH   1   6
TORSDOF 4
ENDMDL
