@<TRIPOS>MOLECULE
/home/cewinharhar/GITHUB/reincatalyze/data/processed/docking_pred/2023-Apr-26-1657_maxeplen10_maxtrainstep1000_exh32_gamma099_lrac9e-4_lrcr1e-3/31638bda67923b1bb66f4f033a77b51352de91e4_ligand_2.pdbqt
 12 12 0 0 0
SMALL
GASTEIGER

@<TRIPOS>ATOM
      1  C          8.4230   -0.6760   -2.0560 C.3     1  UNL1        0.1270
      2  C          8.3810   -1.9140   -2.8690 C.2     1  UNL1        0.3030
      3  O          7.2900   -2.4060   -3.2490 O.2     1  UNL1       -0.2520
      4  O          9.5490   -2.5630   -3.2340 O.3     1  UNL1       -0.4810
      5  H         10.1880   -2.1120   -3.8950 H       1  UNL1        0.2960
      6  C          7.0550   -0.0640   -2.0590 C.3     1  UNL1        0.0470
      7  C          6.4730    0.0980   -0.7280 C.2     1  UNL1       -0.0470
      8  C          6.5840   -0.8970    0.2140 C.2     1  UNL1        0.0040
      9  C          5.8090    1.2640   -0.4230 C.2     1  UNL1        0.0040
     10  C          6.0040   -0.6740    1.4650 C.2     1  UNL1        0.0000
     11  C          5.2360    1.4840    0.8140 C.2     1  UNL1        0.0000
     12  C          5.3430    0.4910    1.7630 C.2     1  UNL1        0.0000
@<TRIPOS>BOND
     1     5     4    1
     2     3     2    2
     3     4     2    1
     4     2     1    1
     5     6     1    1
     6     6     7    1
     7     7     9    2
     8     7     8    1
     9     9    11    1
    10     8    10    2
    11    11    12    2
    12    10    12    1
