@<TRIPOS>MOLECULE
/home/cewinharhar/GITHUB/reincatalyze/data/processed/docking_pred/2023-Apr-26-1657_maxeplen10_maxtrainstep1000_exh32_gamma099_lrac9e-4_lrcr1e-3/31638bda67923b1bb66f4f033a77b51352de91e4_ligand_2.pdbqt
 12 12 0 0 0
SMALL
GASTEIGER

@<TRIPOS>ATOM
      1  C          8.1110   -0.7820   -2.0460 C.3     1  UNL1        0.1270
      2  C          8.3120   -1.9650   -2.9150 C.2     1  UNL1        0.3030
      3  O          9.4500   -2.4710   -3.0730 O.2     1  UNL1       -0.2520
      4  O          7.2440   -2.5470   -3.5800 O.3     1  UNL1       -0.4810
      5  H          6.2930   -2.3870   -3.2370 H       1  UNL1        0.2960
      6  C          7.5810   -1.2520   -0.7250 C.3     1  UNL1        0.0470
      7  C          6.6790   -0.3040   -0.0750 C.2     1  UNL1       -0.0470
      8  C          6.2650   -0.5030    1.2220 C.2     1  UNL1        0.0040
      9  C          6.2450    0.7990   -0.7740 C.2     1  UNL1        0.0040
     10  C          5.4030    0.4450    1.7800 C.2     1  UNL1        0.0000
     11  C          5.3940    1.7340   -0.2210 C.2     1  UNL1        0.0000
     12  C          4.9740    1.5420    1.0770 C.2     1  UNL1        0.0000
@<TRIPOS>BOND
     1     4     5    1
     2     4     2    1
     3     3     2    2
     4     2     1    1
     5     1     6    1
     6     9    11    1
     7     9     7    2
     8     6     7    1
     9    11    12    2
    10     7     8    1
    11    12    10    1
    12     8    10    2
