@<TRIPOS>MOLECULE
/home/cewinharhar/GITHUB/reincatalyze/data/processed/docking_pred/2023-Apr-26-1657_maxeplen10_maxtrainstep1000_exh32_gamma099_lrac9e-4_lrcr1e-3/31de0aabf4a391366091aaa04775d5537fef7eaf_ligand_2.pdbqt
 12 12 0 0 0
SMALL
GASTEIGER

@<TRIPOS>ATOM
      1  C          8.2160    0.2860   -2.1750 C.3     1  UNL1        0.1270
      2  C          9.3520    0.3530   -1.2260 C.2     1  UNL1        0.3030
      3  O          9.4290   -0.4290   -0.2460 O.2     1  UNL1       -0.2520
      4  O         10.3640    1.2840   -1.3960 O.3     1  UNL1       -0.4810
      5  H         10.9830    1.5000   -0.6090 H       1  UNL1        0.2960
      6  C          7.1130   -0.5010   -1.5340 C.3     1  UNL1        0.0470
      7  C          6.3340    0.2570   -0.5560 C.2     1  UNL1       -0.0470
      8  C          6.1230   -0.2380    0.7100 C.2     1  UNL1        0.0040
      9  C          5.8120    1.4780   -0.9140 C.2     1  UNL1        0.0040
     10  C          5.3700    0.5400    1.5930 C.2     1  UNL1        0.0000
     11  C          5.0680    2.2450   -0.0400 C.2     1  UNL1        0.0000
     12  C          4.8510    1.7570    1.2300 C.2     1  UNL1        0.0000
@<TRIPOS>BOND
     1     1     6    1
     2     1     2    1
     3     6     7    1
     4     4     2    1
     5     4     5    1
     6     2     3    2
     7     9     7    2
     8     9    11    1
     9     7     8    1
    10    11    12    2
    11     8    10    2
    12    12    10    1
