@<TRIPOS>MOLECULE
/home/cewinharhar/GITHUB/reincatalyze/data/processed/docking_pred/2023-Apr-26-1657_maxeplen10_maxtrainstep1000_exh32_gamma099_lrac9e-4_lrcr1e-3/31de0aabf4a391366091aaa04775d5537fef7eaf_ligand_2.pdbqt
 12 12 0 0 0
SMALL
GASTEIGER

@<TRIPOS>ATOM
      1  C          5.0010    1.7820    0.6840 C.3     1  UNL1        0.1270
      2  C          4.4860    1.1100    1.9010 C.2     1  UNL1        0.3030
      3  O          5.1410    0.2020    2.4690 O.2     1  UNL1       -0.2520
      4  O          3.2630    1.4680    2.4450 O.3     1  UNL1       -0.4810
      5  H          3.0990    1.3230    3.4460 H       1  UNL1        0.2960
      6  C          6.4980    1.7930    0.7500 C.3     1  UNL1        0.0470
      7  C          7.1460    1.0490   -0.3290 C.2     1  UNL1       -0.0470
      8  C          8.4730    1.2550   -0.6260 C.2     1  UNL1        0.0040
      9  C          6.4130    0.1330   -1.0480 C.2     1  UNL1        0.0040
     10  C          9.0270    0.5080   -1.6690 C.2     1  UNL1        0.0000
     11  C          6.9620   -0.6030   -2.0790 C.2     1  UNL1        0.0000
     12  C          8.2900   -0.4030   -2.3840 C.2     1  UNL1        0.0000
@<TRIPOS>BOND
     1    12    11    2
     2    12    10    1
     3    11     9    1
     4    10     8    2
     5     9     7    2
     6     8     7    1
     7     7     6    1
     8     1     6    1
     9     1     2    1
    10     2     4    1
    11     2     3    2
    12     4     5    1
