MODEL 1
REMARK VINA RESULT:      -7.4      0.000      0.000
REMARK SMILES O=C(O)CCc1ccccc1
REMARK SMILES IDX 4 1 2 2 1 3 3 4 5 6 6 7 7 8 11 9 8 10 10 11 9 12
REMARK H PARENT 3 5
REMARK Flexibility Score: inf
ROOT
ATOM      1  C   UNL     1       8.443  -0.610  -2.162  1.00  0.00     0.127 C 
ENDROOT
BRANCH   1   2
ATOM      2  C   UNL     1       8.475  -1.892  -2.904  1.00  0.00     0.303 C 
ATOM      3  O   UNL     1       9.550  -2.518  -3.077  1.00  0.00    -0.252 OA
BRANCH   2   4
ATOM      4  O   UNL     1       7.315  -2.437  -3.430  1.00  0.00    -0.481 OA
ATOM      5  H   UNL     1       6.631  -1.821  -3.880  1.00  0.00     0.296 HD
ENDBRANCH   2   4
ENDBRANCH   1   2
BRANCH   1   6
ATOM      6  C   UNL     1       7.027  -0.122  -2.126  1.00  0.00     0.047 C 
BRANCH   6   7
ATOM      7  C   UNL     1       6.485   0.030  -0.777  1.00  0.00    -0.047 A 
ATOM      8  C   UNL     1       6.614  -0.977   0.151  1.00  0.00     0.004 A 
ATOM      9  C   UNL     1       5.842   1.199  -0.440  1.00  0.00     0.004 A 
ATOM     10  C   UNL     1       6.072  -0.763   1.420  1.00  0.00     0.000 A 
ATOM     11  C   UNL     1       5.306   1.409   0.816  1.00  0.00     0.000 A 
ATOM     12  C   UNL     1       5.431   0.404   1.751  1.00  0.00     0.000 A 
ENDBRANCH   6   7
ENDBRANCH   1   6
TORSDOF 4
ENDMDL
MODEL 2
REMARK VINA RESULT:      -7.3      0.124      1.733
REMARK SMILES O=C(O)CCc1ccccc1
REMARK SMILES IDX 4 1 2 2 1 3 3 4 5 6 6 7 7 8 11 9 8 10 10 11 9 12
REMARK H PARENT 3 5
REMARK Flexibility Score: inf
ROOT
ATOM      1  C   UNL     1       8.395  -0.701  -2.016  1.00  0.00     0.127 C 
ENDROOT
BRANCH   1   2
ATOM      2  C   UNL     1       8.373  -1.926  -2.850  1.00  0.00     0.303 C 
ATOM      3  O   UNL     1       7.291  -2.420  -3.252  1.00  0.00    -0.252 OA
BRANCH   2   4
ATOM      4  O   UNL     1       9.551  -2.560  -3.211  1.00  0.00    -0.481 OA
ATOM      5  H   UNL     1      10.410  -2.011  -3.297  1.00  0.00     0.296 HD
ENDBRANCH   2   4
ENDBRANCH   1   2
BRANCH   1   6
ATOM      6  C   UNL     1       7.027  -0.091  -2.039  1.00  0.00     0.047 C 
BRANCH   6   7
ATOM      7  C   UNL     1       6.443   0.108  -0.713  1.00  0.00    -0.047 A 
ATOM      8  C   UNL     1       5.798   1.282  -0.399  1.00  0.00     0.004 A 
ATOM      9  C   UNL     1       6.544  -0.895   0.223  1.00  0.00     0.004 A 
ATOM     10  C   UNL     1       5.263   1.403   0.886  1.00  0.00     0.000 A 
ATOM     11  C   UNL     1       6.015  -0.773   1.492  1.00  0.00     0.000 A 
ATOM     12  C   UNL     1       5.367   0.400   1.816  1.00  0.00     0.000 A 
ENDBRANCH   6   7
ENDBRANCH   1   6
TORSDOF 4
ENDMDL
MODEL 3
REMARK VINA RESULT:      -6.8      3.375      5.074
REMARK SMILES O=C(O)CCc1ccccc1
REMARK SMILES IDX 4 1 2 2 1 3 3 4 5 6 6 7 7 8 11 9 8 10 10 11 9 12
REMARK H PARENT 3 5
REMARK Flexibility Score: inf
ROOT
ATOM      1  C   UNL     1       5.001   1.782   0.684  1.00  0.00     0.127 C 
ENDROOT
BRANCH   1   2
ATOM      2  C   UNL     1       4.486   1.110   1.901  1.00  0.00     0.303 C 
ATOM      3  O   UNL     1       5.141   0.202   2.469  1.00  0.00    -0.252 OA
BRANCH   2   4
ATOM      4  O   UNL     1       3.263   1.468   2.445  1.00  0.00    -0.481 OA
ATOM      5  H   UNL     1       3.099   1.323   3.446  1.00  0.00     0.296 HD
ENDBRANCH   2   4
ENDBRANCH   1   2
BRANCH   1   6
ATOM      6  C   UNL     1       6.498   1.793   0.750  1.00  0.00     0.047 C 
BRANCH   6   7
ATOM      7  C   UNL     1       7.146   1.049  -0.329  1.00  0.00    -0.047 A 
ATOM      8  C   UNL     1       8.473   1.255  -0.626  1.00  0.00     0.004 A 
ATOM      9  C   UNL     1       6.413   0.133  -1.048  1.00  0.00     0.004 A 
ATOM     10  C   UNL     1       9.027   0.508  -1.669  1.00  0.00     0.000 A 
ATOM     11  C   UNL     1       6.962  -0.603  -2.079  1.00  0.00     0.000 A 
ATOM     12  C   UNL     1       8.290  -0.403  -2.384  1.00  0.00     0.000 A 
ENDBRANCH   6   7
ENDBRANCH   1   6
TORSDOF 4
ENDMDL
MODEL 4
REMARK VINA RESULT:      -6.7      1.921      2.283
REMARK SMILES O=C(O)CCc1ccccc1
REMARK SMILES IDX 4 1 2 2 1 3 3 4 5 6 6 7 7 8 11 9 8 10 10 11 9 12
REMARK H PARENT 3 5
REMARK Flexibility Score: inf
ROOT
ATOM      1  C   UNL     1       8.216   0.286  -2.175  1.00  0.00     0.127 C 
ENDROOT
BRANCH   1   2
ATOM      2  C   UNL     1       9.352   0.353  -1.226  1.00  0.00     0.303 C 
ATOM      3  O   UNL     1       9.429  -0.429  -0.246  1.00  0.00    -0.252 OA
BRANCH   2   4
ATOM      4  O   UNL     1      10.364   1.284  -1.396  1.00  0.00    -0.481 OA
ATOM      5  H   UNL     1      10.983   1.500  -0.609  1.00  0.00     0.296 HD
ENDBRANCH   2   4
ENDBRANCH   1   2
BRANCH   1   6
ATOM      6  C   UNL     1       7.113  -0.501  -1.534  1.00  0.00     0.047 C 
BRANCH   6   7
ATOM      7  C   UNL     1       6.334   0.257  -0.556  1.00  0.00    -0.047 A 
ATOM      8  C   UNL     1       6.123  -0.238   0.710  1.00  0.00     0.004 A 
ATOM      9  C   UNL     1       5.812   1.478  -0.914  1.00  0.00     0.004 A 
ATOM     10  C   UNL     1       5.370   0.540   1.593  1.00  0.00     0.000 A 
ATOM     11  C   UNL     1       5.068   2.245  -0.040  1.00  0.00     0.000 A 
ATOM     12  C   UNL     1       4.851   1.757   1.230  1.00  0.00     0.000 A 
ENDBRANCH   6   7
ENDBRANCH   1   6
TORSDOF 4
ENDMDL
MODEL 5
REMARK VINA RESULT:      -6.5      1.870      2.818
REMARK SMILES O=C(O)CCc1ccccc1
REMARK SMILES IDX 4 1 2 2 1 3 3 4 5 6 6 7 7 8 11 9 8 10 10 11 9 12
REMARK H PARENT 3 5
REMARK Flexibility Score: inf
ROOT
ATOM      1  C   UNL     1       8.272  -1.591   1.032  1.00  0.00     0.127 C 
ENDROOT
BRANCH   1   2
ATOM      2  C   UNL     1       8.533  -2.841   0.280  1.00  0.00     0.303 C 
ATOM      3  O   UNL     1       9.149  -3.801   0.807  1.00  0.00    -0.252 OA
BRANCH   2   4
ATOM      4  O   UNL     1       8.105  -2.985  -1.030  1.00  0.00    -0.481 OA
ATOM      5  H   UNL     1       7.705  -3.877  -1.331  1.00  0.00     0.296 HD
ENDBRANCH   2   4
ENDBRANCH   1   2
BRANCH   1   6
ATOM      6  C   UNL     1       6.795  -1.481   1.262  1.00  0.00     0.047 C 
BRANCH   6   7
ATOM      7  C   UNL     1       6.212  -0.227   0.787  1.00  0.00    -0.047 A 
ATOM      8  C   UNL     1       5.442   0.551   1.620  1.00  0.00     0.004 A 
ATOM      9  C   UNL     1       6.443   0.172  -0.509  1.00  0.00     0.004 A 
ATOM     10  C   UNL     1       4.917   1.736   1.099  1.00  0.00     0.000 A 
ATOM     11  C   UNL     1       5.923   1.343  -1.023  1.00  0.00     0.000 A 
ATOM     12  C   UNL     1       5.150   2.128  -0.195  1.00  0.00     0.000 A 
ENDBRANCH   6   7
ENDBRANCH   1   6
TORSDOF 4
ENDMDL
