@<TRIPOS>MOLECULE
/home/cewinharhar/GITHUB/reincatalyze/data/processed/docking_pred/2023-Apr-26-1657_maxeplen10_maxtrainstep1000_exh32_gamma099_lrac9e-4_lrcr1e-3/31de0aabf4a391366091aaa04775d5537fef7eaf_ligand_2.pdbqt
 12 12 0 0 0
SMALL
GASTEIGER

@<TRIPOS>ATOM
      1  C          8.4430   -0.6100   -2.1620 C.3     1  UNL1        0.1270
      2  C          8.4750   -1.8920   -2.9040 C.2     1  UNL1        0.3030
      3  O          9.5500   -2.5180   -3.0770 O.2     1  UNL1       -0.2520
      4  O          7.3150   -2.4370   -3.4300 O.3     1  UNL1       -0.4810
      5  H          6.6310   -1.8210   -3.8800 H       1  UNL1        0.2960
      6  C          7.0270   -0.1220   -2.1260 C.3     1  UNL1        0.0470
      7  C          6.4850    0.0300   -0.7770 C.2     1  UNL1       -0.0470
      8  C          6.6140   -0.9770    0.1510 C.2     1  UNL1        0.0040
      9  C          5.8420    1.1990   -0.4400 C.2     1  UNL1        0.0040
     10  C          6.0720   -0.7630    1.4200 C.2     1  UNL1        0.0000
     11  C          5.3060    1.4090    0.8160 C.2     1  UNL1        0.0000
     12  C          5.4310    0.4040    1.7510 C.2     1  UNL1        0.0000
@<TRIPOS>BOND
     1     5     4    1
     2     4     2    1
     3     3     2    2
     4     2     1    1
     5     1     6    1
     6     6     7    1
     7     7     9    2
     8     7     8    1
     9     9    11    1
    10     8    10    2
    11    11    12    2
    12    10    12    1
