@<TRIPOS>MOLECULE
/home/cewinharhar/GITHUB/reincatalyze/data/processed/docking_pred/2023-Apr-26-1657_maxeplen10_maxtrainstep1000_exh32_gamma099_lrac9e-4_lrcr1e-3/31de0aabf4a391366091aaa04775d5537fef7eaf_ligand_2.pdbqt
 12 12 0 0 0
SMALL
GASTEIGER

@<TRIPOS>ATOM
      1  C          8.2720   -1.5910    1.0320 C.3     1  UNL1        0.1270
      2  C          8.5330   -2.8410    0.2800 C.2     1  UNL1        0.3030
      3  O          9.1490   -3.8010    0.8070 O.2     1  UNL1       -0.2520
      4  O          8.1050   -2.9850   -1.0300 O.3     1  UNL1       -0.4810
      5  H          7.7050   -3.8770   -1.3310 H       1  UNL1        0.2960
      6  C          6.7950   -1.4810    1.2620 C.3     1  UNL1        0.0470
      7  C          6.2120   -0.2270    0.7870 C.2     1  UNL1       -0.0470
      8  C          5.4420    0.5510    1.6200 C.2     1  UNL1        0.0040
      9  C          6.4430    0.1720   -0.5090 C.2     1  UNL1        0.0040
     10  C          4.9170    1.7360    1.0990 C.2     1  UNL1        0.0000
     11  C          5.9230    1.3430   -1.0230 C.2     1  UNL1        0.0000
     12  C          5.1500    2.1280   -0.1950 C.2     1  UNL1        0.0000
@<TRIPOS>BOND
     1     5     4    1
     2     4     2    1
     3    11     9    1
     4    11    12    2
     5     9     7    2
     6    12    10    1
     7     2     3    2
     8     2     1    1
     9     7     6    1
    10     7     8    1
    11     1     6    1
    12    10     8    2
