@<TRIPOS>MOLECULE
/home/cewinharhar/GITHUB/reincatalyze/data/processed/docking_pred/2023-Apr-26-1657_maxeplen10_maxtrainstep1000_exh32_gamma099_lrac9e-4_lrcr1e-3/31de0aabf4a391366091aaa04775d5537fef7eaf_ligand_2.pdbqt
 12 12 0 0 0
SMALL
GASTEIGER

@<TRIPOS>ATOM
      1  C          8.3950   -0.7010   -2.0160 C.3     1  UNL1        0.1270
      2  C          8.3730   -1.9260   -2.8500 C.2     1  UNL1        0.3030
      3  O          7.2910   -2.4200   -3.2520 O.2     1  UNL1       -0.2520
      4  O          9.5510   -2.5600   -3.2110 O.3     1  UNL1       -0.4810
      5  H         10.4100   -2.0110   -3.2970 H       1  UNL1        0.2960
      6  C          7.0270   -0.0910   -2.0390 C.3     1  UNL1        0.0470
      7  C          6.4430    0.1080   -0.7130 C.2     1  UNL1       -0.0470
      8  C          5.7980    1.2820   -0.3990 C.2     1  UNL1        0.0040
      9  C          6.5440   -0.8950    0.2230 C.2     1  UNL1        0.0040
     10  C          5.2630    1.4030    0.8860 C.2     1  UNL1        0.0000
     11  C          6.0150   -0.7730    1.4920 C.2     1  UNL1        0.0000
     12  C          5.3670    0.4000    1.8160 C.2     1  UNL1        0.0000
@<TRIPOS>BOND
     1     5     4    1
     2     3     2    2
     3     4     2    1
     4     2     1    1
     5     6     1    1
     6     6     7    1
     7     7     8    2
     8     7     9    1
     9     8    10    1
    10     9    11    2
    11    10    12    2
    12    11    12    1
