@<TRIPOS>MOLECULE
/home/cewinharhar/GITHUB/reincatalyze/data/processed/docking_pred/2023-Apr-26-1657_maxeplen10_maxtrainstep1000_exh32_gamma099_lrac9e-4_lrcr1e-3/32925d028e6f827171d23f19599134de0355568e_ligand_2.pdbqt
 12 12 0 0 0
SMALL
GASTEIGER

@<TRIPOS>ATOM
      1  C          8.4430   -0.6280   -2.1380 C.3     1  UNL1        0.1270
      2  C          8.4810   -1.8950   -2.9070 C.2     1  UNL1        0.3030
      3  O          9.5580   -2.5150   -3.0880 O.2     1  UNL1       -0.2520
      4  O          7.3240   -2.4300   -3.4500 O.3     1  UNL1       -0.4810
      5  H          7.1290   -3.4270   -3.3280 H       1  UNL1        0.2960
      6  C          7.0320   -0.1270   -2.1260 C.3     1  UNL1        0.0470
      7  C          6.4820    0.0700   -0.7860 C.2     1  UNL1       -0.0470
      8  C          5.8370    1.2390   -0.4540 C.2     1  UNL1        0.0040
      9  C          6.6130   -0.9330    0.1470 C.2     1  UNL1        0.0040
     10  C          5.3360    1.3570    0.8440 C.2     1  UNL1        0.0000
     11  C          6.1180   -0.8140    1.4300 C.2     1  UNL1        0.0000
     12  C          5.4710    0.3540    1.7710 C.2     1  UNL1        0.0000
@<TRIPOS>BOND
     1     4     5    1
     2     4     2    1
     3     3     2    2
     4     2     1    1
     5     1     6    1
     6     6     7    1
     7     7     8    2
     8     7     9    1
     9     8    10    1
    10     9    11    2
    11    10    12    2
    12    11    12    1
