MODEL 1
REMARK VINA RESULT:      -7.4      0.000      0.000
REMARK SMILES O=C(O)CCc1ccccc1
REMARK SMILES IDX 4 1 2 2 1 3 3 4 5 6 6 7 7 8 11 9 8 10 10 11 9 12
REMARK H PARENT 3 5
REMARK Flexibility Score: inf
ROOT
ATOM      1  C   UNL     1       8.443  -0.628  -2.138  1.00  0.00     0.127 C 
ENDROOT
BRANCH   1   2
ATOM      2  C   UNL     1       8.481  -1.895  -2.907  1.00  0.00     0.303 C 
ATOM      3  O   UNL     1       9.558  -2.515  -3.088  1.00  0.00    -0.252 OA
BRANCH   2   4
ATOM      4  O   UNL     1       7.324  -2.430  -3.450  1.00  0.00    -0.481 OA
ATOM      5  H   UNL     1       7.129  -3.427  -3.328  1.00  0.00     0.296 HD
ENDBRANCH   2   4
ENDBRANCH   1   2
BRANCH   1   6
ATOM      6  C   UNL     1       7.032  -0.127  -2.126  1.00  0.00     0.047 C 
BRANCH   6   7
ATOM      7  C   UNL     1       6.482   0.070  -0.786  1.00  0.00    -0.047 A 
ATOM      8  C   UNL     1       5.837   1.239  -0.454  1.00  0.00     0.004 A 
ATOM      9  C   UNL     1       6.613  -0.933   0.147  1.00  0.00     0.004 A 
ATOM     10  C   UNL     1       5.336   1.357   0.844  1.00  0.00     0.000 A 
ATOM     11  C   UNL     1       6.118  -0.814   1.430  1.00  0.00     0.000 A 
ATOM     12  C   UNL     1       5.471   0.354   1.771  1.00  0.00     0.000 A 
ENDBRANCH   6   7
ENDBRANCH   1   6
TORSDOF 4
ENDMDL
MODEL 2
REMARK VINA RESULT:      -7.3      0.106      1.730
REMARK SMILES O=C(O)CCc1ccccc1
REMARK SMILES IDX 4 1 2 2 1 3 3 4 5 6 6 7 7 8 11 9 8 10 10 11 9 12
REMARK H PARENT 3 5
REMARK Flexibility Score: inf
ROOT
ATOM      1  C   UNL     1       8.422  -0.628  -2.128  1.00  0.00     0.127 C 
ENDROOT
BRANCH   1   2
ATOM      2  C   UNL     1       8.391  -1.894  -2.896  1.00  0.00     0.303 C 
ATOM      3  O   UNL     1       7.303  -2.423  -3.236  1.00  0.00    -0.252 OA
BRANCH   2   4
ATOM      4  O   UNL     1       9.565  -2.533  -3.261  1.00  0.00    -0.481 OA
ATOM      5  H   UNL     1       9.994  -3.201  -2.614  1.00  0.00     0.296 HD
ENDBRANCH   2   4
ENDBRANCH   1   2
BRANCH   1   6
ATOM      6  C   UNL     1       7.035  -0.062  -2.097  1.00  0.00     0.047 C 
BRANCH   6   7
ATOM      7  C   UNL     1       6.479   0.076  -0.752  1.00  0.00    -0.047 A 
ATOM      8  C   UNL     1       6.598  -0.942   0.166  1.00  0.00     0.004 A 
ATOM      9  C   UNL     1       5.832   1.240  -0.408  1.00  0.00     0.004 A 
ATOM     10  C   UNL     1       6.044  -0.742   1.432  1.00  0.00     0.000 A 
ATOM     11  C   UNL     1       5.284   1.437   0.844  1.00  0.00     0.000 A 
ATOM     12  C   UNL     1       5.399   0.422   1.769  1.00  0.00     0.000 A 
ENDBRANCH   6   7
ENDBRANCH   1   6
TORSDOF 4
ENDMDL
MODEL 3
REMARK VINA RESULT:      -7.3      0.629      1.611
REMARK SMILES O=C(O)CCc1ccccc1
REMARK SMILES IDX 4 1 2 2 1 3 3 4 5 6 6 7 7 8 11 9 8 10 10 11 9 12
REMARK H PARENT 3 5
REMARK Flexibility Score: inf
ROOT
ATOM      1  C   UNL     1       8.238  -0.927  -1.852  1.00  0.00     0.127 C 
ENDROOT
BRANCH   1   2
ATOM      2  C   UNL     1       8.389  -2.019  -2.842  1.00  0.00     0.303 C 
ATOM      3  O   UNL     1       9.516  -2.505  -3.108  1.00  0.00    -0.252 OA
BRANCH   2   4
ATOM      4  O   UNL     1       7.287  -2.536  -3.504  1.00  0.00    -0.481 OA
ATOM      5  H   UNL     1       7.037  -3.519  -3.370  1.00  0.00     0.296 HD
ENDBRANCH   2   4
ENDBRANCH   1   2
BRANCH   1   6
ATOM      6  C   UNL     1       7.341  -1.410  -0.753  1.00  0.00     0.047 C 
BRANCH   6   7
ATOM      7  C   UNL     1       6.536  -0.356  -0.138  1.00  0.00    -0.047 A 
ATOM      8  C   UNL     1       6.102  -0.471   1.163  1.00  0.00     0.004 A 
ATOM      9  C   UNL     1       6.214   0.760  -0.874  1.00  0.00     0.004 A 
ATOM     10  C   UNL     1       5.337   0.574   1.686  1.00  0.00     0.000 A 
ATOM     11  C   UNL     1       5.458   1.792  -0.356  1.00  0.00     0.000 A 
ATOM     12  C   UNL     1       5.019   1.684   0.946  1.00  0.00     0.000 A 
ENDBRANCH   6   7
ENDBRANCH   1   6
TORSDOF 4
ENDMDL
MODEL 4
REMARK VINA RESULT:      -6.8      3.392      5.085
REMARK SMILES O=C(O)CCc1ccccc1
REMARK SMILES IDX 4 1 2 2 1 3 3 4 5 6 6 7 7 8 11 9 8 10 10 11 9 12
REMARK H PARENT 3 5
REMARK Flexibility Score: inf
ROOT
ATOM      1  C   UNL     1       4.971   1.828   0.709  1.00  0.00     0.127 C 
ENDROOT
BRANCH   1   2
ATOM      2  C   UNL     1       4.476   1.128   1.918  1.00  0.00     0.303 C 
ATOM      3  O   UNL     1       5.154   0.227   2.471  1.00  0.00    -0.252 OA
BRANCH   2   4
ATOM      4  O   UNL     1       3.247   1.450   2.471  1.00  0.00    -0.481 OA
ATOM      5  H   UNL     1       3.193   1.690   3.465  1.00  0.00     0.296 HD
ENDBRANCH   2   4
ENDBRANCH   1   2
BRANCH   1   6
ATOM      6  C   UNL     1       6.469   1.833   0.748  1.00  0.00     0.047 C 
BRANCH   6   7
ATOM      7  C   UNL     1       7.094   1.088  -0.343  1.00  0.00    -0.047 A 
ATOM      8  C   UNL     1       6.350   0.247  -1.138  1.00  0.00     0.004 A 
ATOM      9  C   UNL     1       8.443   1.237  -0.572  1.00  0.00     0.004 A 
ATOM     10  C   UNL     1       7.013  -0.432  -2.163  1.00  0.00     0.000 A 
ATOM     11  C   UNL     1       9.097   0.564  -1.584  1.00  0.00     0.000 A 
ATOM     12  C   UNL     1       8.359  -0.281  -2.385  1.00  0.00     0.000 A 
ENDBRANCH   6   7
ENDBRANCH   1   6
TORSDOF 4
ENDMDL
MODEL 5
REMARK VINA RESULT:      -6.6      1.954      2.240
REMARK SMILES O=C(O)CCc1ccccc1
REMARK SMILES IDX 4 1 2 2 1 3 3 4 5 6 6 7 7 8 11 9 8 10 10 11 9 12
REMARK H PARENT 3 5
REMARK Flexibility Score: inf
ROOT
ATOM      1  C   UNL     1       8.157   0.288  -2.067  1.00  0.00     0.127 C 
ENDROOT
BRANCH   1   2
ATOM      2  C   UNL     1       9.357   0.372  -1.201  1.00  0.00     0.303 C 
ATOM      3  O   UNL     1       9.491  -0.377  -0.202  1.00  0.00    -0.252 OA
BRANCH   2   4
ATOM      4  O   UNL     1      10.365   1.284  -1.470  1.00  0.00    -0.481 OA
ATOM      5  H   UNL     1      11.335   0.959  -1.515  1.00  0.00     0.296 HD
ENDBRANCH   2   4
ENDBRANCH   1   2
BRANCH   1   6
ATOM      6  C   UNL     1       7.142  -0.576  -1.384  1.00  0.00     0.047 C 
BRANCH   6   7
ATOM      7  C   UNL     1       6.351   0.122  -0.373  1.00  0.00    -0.047 A 
ATOM      8  C   UNL     1       5.798   1.354  -0.639  1.00  0.00     0.004 A 
ATOM      9  C   UNL     1       6.160  -0.467   0.855  1.00  0.00     0.004 A 
ATOM     10  C   UNL     1       5.053   1.962   0.373  1.00  0.00     0.000 A 
ATOM     11  C   UNL     1       5.423   0.137   1.855  1.00  0.00     0.000 A 
ATOM     12  C   UNL     1       4.866   1.370   1.597  1.00  0.00     0.000 A 
ENDBRANCH   6   7
ENDBRANCH   1   6
TORSDOF 4
ENDMDL
