@<TRIPOS>MOLECULE
/home/cewinharhar/GITHUB/reincatalyze/data/processed/docking_pred/2023-Apr-26-1657_maxeplen10_maxtrainstep1000_exh32_gamma099_lrac9e-4_lrcr1e-3/32925d028e6f827171d23f19599134de0355568e_ligand_2.pdbqt
 12 12 0 0 0
SMALL
GASTEIGER

@<TRIPOS>ATOM
      1  C          8.2380   -0.9270   -1.8520 C.3     1  UNL1        0.1270
      2  C          8.3890   -2.0190   -2.8420 C.2     1  UNL1        0.3030
      3  O          9.5160   -2.5050   -3.1080 O.2     1  UNL1       -0.2520
      4  O          7.2870   -2.5360   -3.5040 O.3     1  UNL1       -0.4810
      5  H          7.0370   -3.5190   -3.3700 H       1  UNL1        0.2960
      6  C          7.3410   -1.4100   -0.7530 C.3     1  UNL1        0.0470
      7  C          6.5360   -0.3560   -0.1380 C.2     1  UNL1       -0.0470
      8  C          6.1020   -0.4710    1.1630 C.2     1  UNL1        0.0040
      9  C          6.2140    0.7600   -0.8740 C.2     1  UNL1        0.0040
     10  C          5.3370    0.5740    1.6860 C.2     1  UNL1        0.0000
     11  C          5.4580    1.7920   -0.3560 C.2     1  UNL1        0.0000
     12  C          5.0190    1.6840    0.9460 C.2     1  UNL1        0.0000
@<TRIPOS>BOND
     1     4     5    1
     2     4     2    1
     3     3     2    2
     4     2     1    1
     5     1     6    1
     6     9    11    1
     7     9     7    2
     8     6     7    1
     9    11    12    2
    10     7     8    1
    11    12    10    1
    12     8    10    2
