@<TRIPOS>MOLECULE
/home/cewinharhar/GITHUB/reincatalyze/data/processed/docking_pred/2023-Apr-26-1657_maxeplen10_maxtrainstep1000_exh32_gamma099_lrac9e-4_lrcr1e-3/32925d028e6f827171d23f19599134de0355568e_ligand_2.pdbqt
 12 12 0 0 0
SMALL
GASTEIGER

@<TRIPOS>ATOM
      1  C          4.9710    1.8280    0.7090 C.3     1  UNL1        0.1270
      2  C          4.4760    1.1280    1.9180 C.2     1  UNL1        0.3030
      3  O          5.1540    0.2270    2.4710 O.2     1  UNL1       -0.2520
      4  O          3.2470    1.4500    2.4710 O.3     1  UNL1       -0.4810
      5  H          3.1930    1.6900    3.4650 H       1  UNL1        0.2960
      6  C          6.4690    1.8330    0.7480 C.3     1  UNL1        0.0470
      7  C          7.0940    1.0880   -0.3430 C.2     1  UNL1       -0.0470
      8  C          6.3500    0.2470   -1.1380 C.2     1  UNL1        0.0040
      9  C          8.4430    1.2370   -0.5720 C.2     1  UNL1        0.0040
     10  C          7.0130   -0.4320   -2.1630 C.2     1  UNL1        0.0000
     11  C          9.0970    0.5640   -1.5840 C.2     1  UNL1        0.0000
     12  C          8.3590   -0.2810   -2.3850 C.2     1  UNL1        0.0000
@<TRIPOS>BOND
     1    12    10    2
     2    12    11    1
     3    10     8    1
     4    11     9    2
     5     8     7    2
     6     9     7    1
     7     7     6    1
     8     1     6    1
     9     1     2    1
    10     2     3    2
    11     2     4    1
    12     4     5    1
