@<TRIPOS>MOLECULE
/home/cewinharhar/GITHUB/reincatalyze/data/processed/docking_pred/2023-Apr-26-1657_maxeplen10_maxtrainstep1000_exh32_gamma099_lrac9e-4_lrcr1e-3/32925d028e6f827171d23f19599134de0355568e_ligand_2.pdbqt
 12 12 0 0 0
SMALL
GASTEIGER

@<TRIPOS>ATOM
      1  C          8.1570    0.2880   -2.0670 C.3     1  UNL1        0.1270
      2  C          9.3570    0.3720   -1.2010 C.2     1  UNL1        0.3030
      3  O          9.4910   -0.3770   -0.2020 O.2     1  UNL1       -0.2520
      4  O         10.3650    1.2840   -1.4700 O.3     1  UNL1       -0.4810
      5  H         11.3350    0.9590   -1.5150 H       1  UNL1        0.2960
      6  C          7.1420   -0.5760   -1.3840 C.3     1  UNL1        0.0470
      7  C          6.3510    0.1220   -0.3730 C.2     1  UNL1       -0.0470
      8  C          5.7980    1.3540   -0.6390 C.2     1  UNL1        0.0040
      9  C          6.1600   -0.4670    0.8550 C.2     1  UNL1        0.0040
     10  C          5.0530    1.9620    0.3730 C.2     1  UNL1        0.0000
     11  C          5.4230    0.1370    1.8550 C.2     1  UNL1        0.0000
     12  C          4.8660    1.3700    1.5970 C.2     1  UNL1        0.0000
@<TRIPOS>BOND
     1     1     6    1
     2     1     2    1
     3     5     4    1
     4     4     2    1
     5     6     7    1
     6     2     3    2
     7     8     7    2
     8     8    10    1
     9     7     9    1
    10    10    12    2
    11     9    11    2
    12    12    11    1
