@<TRIPOS>MOLECULE
/home/cewinharhar/GITHUB/reincatalyze/data/processed/docking_pred/2023-Apr-26-1657_maxeplen10_maxtrainstep1000_exh32_gamma099_lrac9e-4_lrcr1e-3/32925d028e6f827171d23f19599134de0355568e_ligand_2.pdbqt
 12 12 0 0 0
SMALL
GASTEIGER

@<TRIPOS>ATOM
      1  C          8.4220   -0.6280   -2.1280 C.3     1  UNL1        0.1270
      2  C          8.3910   -1.8940   -2.8960 C.2     1  UNL1        0.3030
      3  O          7.3030   -2.4230   -3.2360 O.2     1  UNL1       -0.2520
      4  O          9.5650   -2.5330   -3.2610 O.3     1  UNL1       -0.4810
      5  H          9.9940   -3.2010   -2.6140 H       1  UNL1        0.2960
      6  C          7.0350   -0.0620   -2.0970 C.3     1  UNL1        0.0470
      7  C          6.4790    0.0760   -0.7520 C.2     1  UNL1       -0.0470
      8  C          6.5980   -0.9420    0.1660 C.2     1  UNL1        0.0040
      9  C          5.8320    1.2400   -0.4080 C.2     1  UNL1        0.0040
     10  C          6.0440   -0.7420    1.4320 C.2     1  UNL1        0.0000
     11  C          5.2840    1.4370    0.8440 C.2     1  UNL1        0.0000
     12  C          5.3990    0.4220    1.7690 C.2     1  UNL1        0.0000
@<TRIPOS>BOND
     1     4     2    1
     2     4     5    1
     3     3     2    2
     4     2     1    1
     5     1     6    1
     6     6     7    1
     7     7     9    2
     8     7     8    1
     9     9    11    1
    10     8    10    2
    11    11    12    2
    12    10    12    1
