MODEL 1
REMARK VINA RESULT:      -7.4      0.000      0.000
REMARK SMILES O=C(O)CCc1ccccc1
REMARK SMILES IDX 4 1 2 2 1 3 3 4 5 6 6 7 7 8 11 9 8 10 10 11 9 12
REMARK H PARENT 3 5
REMARK Flexibility Score: inf
ROOT
ATOM      1  C   UNL     1       8.466  -0.703  -2.028  1.00  0.00     0.127 C 
ENDROOT
BRANCH   1   2
ATOM      2  C   UNL     1       8.485  -1.925  -2.868  1.00  0.00     0.303 C 
ATOM      3  O   UNL     1       9.558  -2.531  -3.110  1.00  0.00    -0.252 OA
BRANCH   2   4
ATOM      4  O   UNL     1       7.315  -2.431  -3.409  1.00  0.00    -0.481 OA
ATOM      5  H   UNL     1       7.292  -3.403  -3.731  1.00  0.00     0.296 HD
ENDBRANCH   2   4
ENDBRANCH   1   2
BRANCH   1   6
ATOM      6  C   UNL     1       7.084  -0.126  -2.068  1.00  0.00     0.047 C 
BRANCH   6   7
ATOM      7  C   UNL     1       6.485   0.073  -0.749  1.00  0.00    -0.047 A 
ATOM      8  C   UNL     1       6.589  -0.893   0.224  1.00  0.00     0.004 A 
ATOM      9  C   UNL     1       5.814   1.245  -0.487  1.00  0.00     0.004 A 
ATOM     10  C   UNL     1       5.993  -0.635   1.460  1.00  0.00     0.000 A 
ATOM     11  C   UNL     1       5.225   1.499   0.735  1.00  0.00     0.000 A 
ATOM     12  C   UNL     1       5.324   0.535   1.716  1.00  0.00     0.000 A 
ENDBRANCH   6   7
ENDBRANCH   1   6
TORSDOF 4
ENDMDL
MODEL 2
REMARK VINA RESULT:      -7.4      0.162      1.443
REMARK SMILES O=C(O)CCc1ccccc1
REMARK SMILES IDX 4 1 2 2 1 3 3 4 5 6 6 7 7 8 11 9 8 10 10 11 9 12
REMARK H PARENT 3 5
REMARK Flexibility Score: inf
ROOT
ATOM      1  C   UNL     1       8.425  -0.632  -2.117  1.00  0.00     0.127 C 
ENDROOT
BRANCH   1   2
ATOM      2  C   UNL     1       8.458  -1.900  -2.883  1.00  0.00     0.303 C 
ATOM      3  O   UNL     1       9.533  -2.522  -3.066  1.00  0.00    -0.252 OA
BRANCH   2   4
ATOM      4  O   UNL     1       7.298  -2.435  -3.421  1.00  0.00    -0.481 OA
ATOM      5  H   UNL     1       6.732  -3.074  -2.855  1.00  0.00     0.296 HD
ENDBRANCH   2   4
ENDBRANCH   1   2
BRANCH   1   6
ATOM      6  C   UNL     1       7.012  -0.133  -2.093  1.00  0.00     0.047 C 
BRANCH   6   7
ATOM      7  C   UNL     1       6.467   0.043  -0.748  1.00  0.00    -0.047 A 
ATOM      8  C   UNL     1       5.837   1.213  -0.392  1.00  0.00     0.004 A 
ATOM      9  C   UNL     1       6.588  -0.980   0.165  1.00  0.00     0.004 A 
ATOM     10  C   UNL     1       5.339   1.311   0.909  1.00  0.00     0.000 A 
ATOM     11  C   UNL     1       6.095  -0.881   1.451  1.00  0.00     0.000 A 
ATOM     12  C   UNL     1       5.463   0.288   1.816  1.00  0.00     0.000 A 
ENDBRANCH   6   7
ENDBRANCH   1   6
TORSDOF 4
ENDMDL
MODEL 3
REMARK VINA RESULT:      -6.8      3.365      5.066
REMARK SMILES O=C(O)CCc1ccccc1
REMARK SMILES IDX 4 1 2 2 1 3 3 4 5 6 6 7 7 8 11 9 8 10 10 11 9 12
REMARK H PARENT 3 5
REMARK Flexibility Score: inf
ROOT
ATOM      1  C   UNL     1       5.005   1.775   0.712  1.00  0.00     0.127 C 
ENDROOT
BRANCH   1   2
ATOM      2  C   UNL     1       4.476   1.101   1.921  1.00  0.00     0.303 C 
ATOM      3  O   UNL     1       5.121   0.186   2.491  1.00  0.00    -0.252 OA
BRANCH   2   4
ATOM      4  O   UNL     1       3.251   1.462   2.456  1.00  0.00    -0.481 OA
ATOM      5  H   UNL     1       2.620   2.055   1.909  1.00  0.00     0.296 HD
ENDBRANCH   2   4
ENDBRANCH   1   2
BRANCH   1   6
ATOM      6  C   UNL     1       6.502   1.729   0.765  1.00  0.00     0.047 C 
BRANCH   6   7
ATOM      7  C   UNL     1       7.113   0.970  -0.326  1.00  0.00    -0.047 A 
ATOM      8  C   UNL     1       6.393   0.016  -1.007  1.00  0.00     0.004 A 
ATOM      9  C   UNL     1       8.421   1.221  -0.668  1.00  0.00     0.004 A 
ATOM     10  C   UNL     1       7.040  -0.670  -2.038  1.00  0.00     0.000 A 
ATOM     11  C   UNL     1       9.059   0.542  -1.687  1.00  0.00     0.000 A 
ATOM     12  C   UNL     1       8.346  -0.416  -2.374  1.00  0.00     0.000 A 
ENDBRANCH   6   7
ENDBRANCH   1   6
TORSDOF 4
ENDMDL
MODEL 4
REMARK VINA RESULT:      -6.8      3.363      5.080
REMARK SMILES O=C(O)CCc1ccccc1
REMARK SMILES IDX 4 1 2 2 1 3 3 4 5 6 6 7 7 8 11 9 8 10 10 11 9 12
REMARK H PARENT 3 5
REMARK Flexibility Score: inf
ROOT
ATOM      1  C   UNL     1       5.012   1.765   0.692  1.00  0.00     0.127 C 
ENDROOT
BRANCH   1   2
ATOM      2  C   UNL     1       4.497   1.094   1.909  1.00  0.00     0.303 C 
ATOM      3  O   UNL     1       5.156   0.190   2.481  1.00  0.00    -0.252 OA
BRANCH   2   4
ATOM      4  O   UNL     1       3.272   1.446   2.450  1.00  0.00    -0.481 OA
ATOM      5  H   UNL     1       2.570   0.720   2.616  1.00  0.00     0.296 HD
ENDBRANCH   2   4
ENDBRANCH   1   2
BRANCH   1   6
ATOM      6  C   UNL     1       6.508   1.778   0.758  1.00  0.00     0.047 C 
BRANCH   6   7
ATOM      7  C   UNL     1       7.158   1.049  -0.330  1.00  0.00    -0.047 A 
ATOM      8  C   UNL     1       8.488   1.253  -0.617  1.00  0.00     0.004 A 
ATOM      9  C   UNL     1       6.424   0.150  -1.068  1.00  0.00     0.004 A 
ATOM     10  C   UNL     1       9.043   0.521  -1.669  1.00  0.00     0.000 A 
ATOM     11  C   UNL     1       6.974  -0.572  -2.108  1.00  0.00     0.000 A 
ATOM     12  C   UNL     1       8.306  -0.374  -2.403  1.00  0.00     0.000 A 
ENDBRANCH   6   7
ENDBRANCH   1   6
TORSDOF 4
ENDMDL
MODEL 5
REMARK VINA RESULT:      -6.6      3.703      4.978
REMARK SMILES O=C(O)CCc1ccccc1
REMARK SMILES IDX 4 1 2 2 1 3 3 4 5 6 6 7 7 8 11 9 8 10 10 11 9 12
REMARK H PARENT 3 5
REMARK Flexibility Score: inf
ROOT
ATOM      1  C   UNL     1       5.334   2.979   0.060  1.00  0.00     0.127 C 
ENDROOT
BRANCH   1   2
ATOM      2  C   UNL     1       6.221   3.882   0.830  1.00  0.00     0.303 C 
ATOM      3  O   UNL     1       6.901   4.770   0.258  1.00  0.00    -0.252 OA
BRANCH   2   4
ATOM      4  O   UNL     1       6.325   3.771   2.207  1.00  0.00    -0.481 OA
ATOM      5  H   UNL     1       5.506   3.970   2.789  1.00  0.00     0.296 HD
ENDBRANCH   2   4
ENDBRANCH   1   2
BRANCH   1   6
ATOM      6  C   UNL     1       5.204   1.691   0.814  1.00  0.00     0.047 C 
BRANCH   6   7
ATOM      7  C   UNL     1       5.982   0.590   0.249  1.00  0.00    -0.047 A 
ATOM      8  C   UNL     1       6.379  -0.467   1.034  1.00  0.00     0.004 A 
ATOM      9  C   UNL     1       6.315   0.619  -1.086  1.00  0.00     0.004 A 
ATOM     10  C   UNL     1       7.118  -1.485   0.427  1.00  0.00     0.000 A 
ATOM     11  C   UNL     1       7.047  -0.388  -1.685  1.00  0.00     0.000 A 
ATOM     12  C   UNL     1       7.448  -1.450  -0.904  1.00  0.00     0.000 A 
ENDBRANCH   6   7
ENDBRANCH   1   6
TORSDOF 4
ENDMDL
