@<TRIPOS>MOLECULE
/home/cewinharhar/GITHUB/reincatalyze/data/processed/docking_pred/2023-Apr-26-1657_maxeplen10_maxtrainstep1000_exh32_gamma099_lrac9e-4_lrcr1e-3/354626f0a3e222b5e9865005b72eb67019ec4e19_ligand_2.pdbqt
 12 12 0 0 0
SMALL
GASTEIGER

@<TRIPOS>ATOM
      1  C          8.4660   -0.7030   -2.0280 C.3     1  UNL1        0.1270
      2  C          8.4850   -1.9250   -2.8680 C.2     1  UNL1        0.3030
      3  O          9.5580   -2.5310   -3.1100 O.2     1  UNL1       -0.2520
      4  O          7.3150   -2.4310   -3.4090 O.3     1  UNL1       -0.4810
      5  H          7.2920   -3.4030   -3.7310 H       1  UNL1        0.2960
      6  C          7.0840   -0.1260   -2.0680 C.3     1  UNL1        0.0470
      7  C          6.4850    0.0730   -0.7490 C.2     1  UNL1       -0.0470
      8  C          6.5890   -0.8930    0.2240 C.2     1  UNL1        0.0040
      9  C          5.8140    1.2450   -0.4870 C.2     1  UNL1        0.0040
     10  C          5.9930   -0.6350    1.4600 C.2     1  UNL1        0.0000
     11  C          5.2250    1.4990    0.7350 C.2     1  UNL1        0.0000
     12  C          5.3240    0.5350    1.7160 C.2     1  UNL1        0.0000
@<TRIPOS>BOND
     1     5     4    1
     2     4     2    1
     3     3     2    2
     4     2     1    1
     5     6     1    1
     6     6     7    1
     7     7     9    2
     8     7     8    1
     9     9    11    1
    10     8    10    2
    11    11    12    2
    12    10    12    1
