@<TRIPOS>MOLECULE
/home/cewinharhar/GITHUB/reincatalyze/data/processed/docking_pred/2023-Apr-26-1657_maxeplen10_maxtrainstep1000_exh32_gamma099_lrac9e-4_lrcr1e-3/354626f0a3e222b5e9865005b72eb67019ec4e19_ligand_2.pdbqt
 12 12 0 0 0
SMALL
GASTEIGER

@<TRIPOS>ATOM
      1  C          5.3340    2.9790    0.0600 C.3     1  UNL1        0.1270
      2  C          6.2210    3.8820    0.8300 C.2     1  UNL1        0.3030
      3  O          6.9010    4.7700    0.2580 O.2     1  UNL1       -0.2520
      4  O          6.3250    3.7710    2.2070 O.3     1  UNL1       -0.4810
      5  H          5.5060    3.9700    2.7890 H       1  UNL1        0.2960
      6  C          5.2040    1.6910    0.8140 C.3     1  UNL1        0.0470
      7  C          5.9820    0.5900    0.2490 C.2     1  UNL1       -0.0470
      8  C          6.3790   -0.4670    1.0340 C.2     1  UNL1        0.0040
      9  C          6.3150    0.6190   -1.0860 C.2     1  UNL1        0.0040
     10  C          7.1180   -1.4850    0.4270 C.2     1  UNL1        0.0000
     11  C          7.0470   -0.3880   -1.6850 C.2     1  UNL1        0.0000
     12  C          7.4480   -1.4500   -0.9040 C.2     1  UNL1        0.0000
@<TRIPOS>BOND
     1    11     9    1
     2    11    12    2
     3     9     7    2
     4    12    10    1
     5     1     6    1
     6     1     2    1
     7     7     6    1
     8     7     8    1
     9     3     2    2
    10    10     8    2
    11     2     4    1
    12     4     5    1
