@<TRIPOS>MOLECULE
/home/cewinharhar/GITHUB/reincatalyze/data/processed/docking_pred/2023-Apr-26-1657_maxeplen10_maxtrainstep1000_exh32_gamma099_lrac9e-4_lrcr1e-3/354626f0a3e222b5e9865005b72eb67019ec4e19_ligand_2.pdbqt
 12 12 0 0 0
SMALL
GASTEIGER

@<TRIPOS>ATOM
      1  C          5.0050    1.7750    0.7120 C.3     1  UNL1        0.1270
      2  C          4.4760    1.1010    1.9210 C.2     1  UNL1        0.3030
      3  O          5.1210    0.1860    2.4910 O.2     1  UNL1       -0.2520
      4  O          3.2510    1.4620    2.4560 O.3     1  UNL1       -0.4810
      5  H          2.6200    2.0550    1.9090 H       1  UNL1        0.2960
      6  C          6.5020    1.7290    0.7650 C.3     1  UNL1        0.0470
      7  C          7.1130    0.9700   -0.3260 C.2     1  UNL1       -0.0470
      8  C          6.3930    0.0160   -1.0070 C.2     1  UNL1        0.0040
      9  C          8.4210    1.2210   -0.6680 C.2     1  UNL1        0.0040
     10  C          7.0400   -0.6700   -2.0380 C.2     1  UNL1        0.0000
     11  C          9.0590    0.5420   -1.6870 C.2     1  UNL1        0.0000
     12  C          8.3460   -0.4160   -2.3740 C.2     1  UNL1        0.0000
@<TRIPOS>BOND
     1    12    10    2
     2    12    11    1
     3    10     8    1
     4    11     9    2
     5     8     7    2
     6     9     7    1
     7     7     6    1
     8     1     6    1
     9     1     2    1
    10     5     4    1
    11     2     4    1
    12     2     3    2
