@<TRIPOS>MOLECULE
/home/cewinharhar/GITHUB/reincatalyze/data/processed/docking_pred/2023-Apr-26-1657_maxeplen10_maxtrainstep1000_exh32_gamma099_lrac9e-4_lrcr1e-3/354626f0a3e222b5e9865005b72eb67019ec4e19_ligand_2.pdbqt
 12 12 0 0 0
SMALL
GASTEIGER

@<TRIPOS>ATOM
      1  C          5.0120    1.7650    0.6920 C.3     1  UNL1        0.1270
      2  C          4.4970    1.0940    1.9090 C.2     1  UNL1        0.3030
      3  O          5.1560    0.1900    2.4810 O.2     1  UNL1       -0.2520
      4  O          3.2720    1.4460    2.4500 O.3     1  UNL1       -0.4810
      5  H          2.5700    0.7200    2.6160 H       1  UNL1        0.2960
      6  C          6.5080    1.7780    0.7580 C.3     1  UNL1        0.0470
      7  C          7.1580    1.0490   -0.3300 C.2     1  UNL1       -0.0470
      8  C          8.4880    1.2530   -0.6170 C.2     1  UNL1        0.0040
      9  C          6.4240    0.1500   -1.0680 C.2     1  UNL1        0.0040
     10  C          9.0430    0.5210   -1.6690 C.2     1  UNL1        0.0000
     11  C          6.9740   -0.5720   -2.1080 C.2     1  UNL1        0.0000
     12  C          8.3060   -0.3740   -2.4030 C.2     1  UNL1        0.0000
@<TRIPOS>BOND
     1    12    11    2
     2    12    10    1
     3    11     9    1
     4    10     8    2
     5     9     7    2
     6     8     7    1
     7     7     6    1
     8     1     6    1
     9     1     2    1
    10     2     4    1
    11     2     3    2
    12     4     5    1
