@<TRIPOS>MOLECULE
/home/cewinharhar/GITHUB/reincatalyze/data/processed/docking_pred/2023-Apr-26-1657_maxeplen10_maxtrainstep1000_exh32_gamma099_lrac9e-4_lrcr1e-3/36543b95c0c748273319382419c31c9b55863a9a_ligand_2.pdbqt
 12 12 0 0 0
SMALL
GASTEIGER

@<TRIPOS>ATOM
      1  C          5.4420    2.9060   -0.0060 C.3     1  UNL1        0.1270
      2  C          6.2550    3.8540    0.7920 C.2     1  UNL1        0.3030
      3  O          6.9090    4.7740    0.2420 O.2     1  UNL1       -0.2520
      4  O          6.3150    3.7500    2.1730 O.3     1  UNL1       -0.4810
      5  H          5.7960    3.0030    2.6420 H       1  UNL1        0.2960
      6  C          4.9160    1.8470    0.9140 C.3     1  UNL1        0.0470
      7  C          5.7040    0.6160    0.9180 C.2     1  UNL1       -0.0470
      8  C          5.7650   -0.1780    2.0400 C.2     1  UNL1        0.0040
      9  C          6.3890    0.2540   -0.2200 C.2     1  UNL1        0.0040
     10  C          6.5370   -1.3400    1.9710 C.2     1  UNL1        0.0000
     11  C          7.1510   -0.8950   -0.2860 C.2     1  UNL1        0.0000
     12  C          7.2180   -1.6950    0.8340 C.2     1  UNL1        0.0000
@<TRIPOS>BOND
     1    11     9    1
     2    11    12    2
     3     9     7    2
     4     1     2    1
     5     1     6    1
     6     3     2    2
     7     2     4    1
     8    12    10    1
     9     6     7    1
    10     7     8    1
    11    10     8    2
    12     4     5    1
