@<TRIPOS>MOLECULE
/home/cewinharhar/GITHUB/reincatalyze/data/processed/docking_pred/2023-Apr-26-1657_maxeplen10_maxtrainstep1000_exh32_gamma099_lrac9e-4_lrcr1e-3/36543b95c0c748273319382419c31c9b55863a9a_ligand_2.pdbqt
 12 12 0 0 0
SMALL
GASTEIGER

@<TRIPOS>ATOM
      1  C          5.0150    1.7700    0.6910 C.3     1  UNL1        0.1270
      2  C          4.4890    1.1100    1.9090 C.2     1  UNL1        0.3030
      3  O          5.1390    0.2070    2.4910 O.2     1  UNL1       -0.2520
      4  O          3.2610    1.4720    2.4400 O.3     1  UNL1       -0.4810
      5  H          2.8780    2.3980    2.2280 H       1  UNL1        0.2960
      6  C          6.5110    1.7600    0.7580 C.3     1  UNL1        0.0470
      7  C          7.1510    1.0200   -0.3280 C.2     1  UNL1       -0.0470
      8  C          8.4650    1.2520   -0.6590 C.2     1  UNL1        0.0040
      9  C          6.4220    0.0790   -1.0190 C.2     1  UNL1        0.0040
     10  C          9.0110    0.5080   -1.7070 C.2     1  UNL1        0.0000
     11  C          6.9640   -0.6560   -2.0550 C.2     1  UNL1        0.0000
     12  C          8.2800   -0.4280   -2.3940 C.2     1  UNL1        0.0000
@<TRIPOS>BOND
     1    12    11    2
     2    12    10    1
     3    11     9    1
     4    10     8    2
     5     9     7    2
     6     8     7    1
     7     7     6    1
     8     1     6    1
     9     1     2    1
    10     2     4    1
    11     2     3    2
    12     5     4    1
