@<TRIPOS>MOLECULE
/home/cewinharhar/GITHUB/reincatalyze/data/processed/docking_pred/2023-Apr-26-1657_maxeplen10_maxtrainstep1000_exh32_gamma099_lrac9e-4_lrcr1e-3/36543b95c0c748273319382419c31c9b55863a9a_ligand_2.pdbqt
 12 12 0 0 0
SMALL
GASTEIGER

@<TRIPOS>ATOM
      1  C          8.4510   -0.6730   -2.0230 C.3     1  UNL1        0.1270
      2  C          8.3920   -1.8970   -2.8550 C.2     1  UNL1        0.3030
      3  O          7.2930   -2.3910   -3.2090 O.2     1  UNL1       -0.2520
      4  O          9.5530   -2.5340   -3.2650 O.3     1  UNL1       -0.4810
      5  H          9.7300   -3.4960   -2.9640 H       1  UNL1        0.2960
      6  C          7.1040   -0.0180   -2.0520 C.3     1  UNL1        0.0470
      7  C          6.4950    0.1480   -0.7340 C.2     1  UNL1       -0.0470
      8  C          5.8070    1.2960   -0.4170 C.2     1  UNL1        0.0040
      9  C          6.6140   -0.8610    0.1930 C.2     1  UNL1        0.0040
     10  C          5.2500    1.3860    0.8610 C.2     1  UNL1        0.0000
     11  C          6.0630   -0.7710    1.4550 C.2     1  UNL1        0.0000
     12  C          5.3730    0.3760    1.7820 C.2     1  UNL1        0.0000
@<TRIPOS>BOND
     1     4     5    1
     2     4     2    1
     3     3     2    2
     4     2     1    1
     5     6     1    1
     6     6     7    1
     7     7     8    2
     8     7     9    1
     9     8    10    1
    10     9    11    2
    11    10    12    2
    12    11    12    1
