MODEL 1
REMARK VINA RESULT:      -7.3      0.000      0.000
REMARK SMILES O=C(O)CCc1ccccc1
REMARK SMILES IDX 4 1 2 2 1 3 3 4 5 6 6 7 7 8 11 9 8 10 10 11 9 12
REMARK H PARENT 3 5
REMARK Flexibility Score: inf
ROOT
ATOM      1  C   UNL     1       8.430  -0.579  -2.195  1.00  0.00     0.127 C 
ENDROOT
BRANCH   1   2
ATOM      2  C   UNL     1       8.480  -1.873  -2.916  1.00  0.00     0.303 C 
ATOM      3  O   UNL     1       9.568  -2.471  -3.104  1.00  0.00    -0.252 OA
BRANCH   2   4
ATOM      4  O   UNL     1       7.323  -2.459  -3.403  1.00  0.00    -0.481 OA
ATOM      5  H   UNL     1       6.420  -2.200  -2.996  1.00  0.00     0.296 HD
ENDBRANCH   2   4
ENDBRANCH   1   2
BRANCH   1   6
ATOM      6  C   UNL     1       7.003  -0.124  -2.143  1.00  0.00     0.047 C 
BRANCH   6   7
ATOM      7  C   UNL     1       6.477   0.030  -0.788  1.00  0.00    -0.047 A 
ATOM      8  C   UNL     1       6.610  -0.979   0.137  1.00  0.00     0.004 A 
ATOM      9  C   UNL     1       5.846   1.202  -0.441  1.00  0.00     0.004 A 
ATOM     10  C   UNL     1       6.085  -0.763   1.413  1.00  0.00     0.000 A 
ATOM     11  C   UNL     1       5.327   1.415   0.820  1.00  0.00     0.000 A 
ATOM     12  C   UNL     1       5.455   0.408   1.752  1.00  0.00     0.000 A 
ENDBRANCH   6   7
ENDBRANCH   1   6
TORSDOF 4
ENDMDL
MODEL 2
REMARK VINA RESULT:      -7.3      0.141      1.733
REMARK SMILES O=C(O)CCc1ccccc1
REMARK SMILES IDX 4 1 2 2 1 3 3 4 5 6 6 7 7 8 11 9 8 10 10 11 9 12
REMARK H PARENT 3 5
REMARK Flexibility Score: inf
ROOT
ATOM      1  C   UNL     1       8.451  -0.673  -2.023  1.00  0.00     0.127 C 
ENDROOT
BRANCH   1   2
ATOM      2  C   UNL     1       8.392  -1.897  -2.855  1.00  0.00     0.303 C 
ATOM      3  O   UNL     1       7.293  -2.391  -3.209  1.00  0.00    -0.252 OA
BRANCH   2   4
ATOM      4  O   UNL     1       9.553  -2.534  -3.265  1.00  0.00    -0.481 OA
ATOM      5  H   UNL     1       9.730  -3.496  -2.964  1.00  0.00     0.296 HD
ENDBRANCH   2   4
ENDBRANCH   1   2
BRANCH   1   6
ATOM      6  C   UNL     1       7.104  -0.018  -2.052  1.00  0.00     0.047 C 
BRANCH   6   7
ATOM      7  C   UNL     1       6.495   0.148  -0.734  1.00  0.00    -0.047 A 
ATOM      8  C   UNL     1       5.807   1.296  -0.417  1.00  0.00     0.004 A 
ATOM      9  C   UNL     1       6.614  -0.861   0.193  1.00  0.00     0.004 A 
ATOM     10  C   UNL     1       5.250   1.386   0.861  1.00  0.00     0.000 A 
ATOM     11  C   UNL     1       6.063  -0.771   1.455  1.00  0.00     0.000 A 
ATOM     12  C   UNL     1       5.373   0.376   1.782  1.00  0.00     0.000 A 
ENDBRANCH   6   7
ENDBRANCH   1   6
TORSDOF 4
ENDMDL
MODEL 3
REMARK VINA RESULT:      -7.0      0.603      1.431
REMARK SMILES O=C(O)CCc1ccccc1
REMARK SMILES IDX 4 1 2 2 1 3 3 4 5 6 6 7 7 8 11 9 8 10 10 11 9 12
REMARK H PARENT 3 5
REMARK Flexibility Score: inf
ROOT
ATOM      1  C   UNL     1       7.986  -0.748  -2.081  1.00  0.00     0.127 C 
ENDROOT
BRANCH   1   2
ATOM      2  C   UNL     1       8.160  -1.921  -2.970  1.00  0.00     0.303 C 
ATOM      3  O   UNL     1       7.175  -2.472  -3.521  1.00  0.00    -0.252 OA
BRANCH   2   4
ATOM      4  O   UNL     1       9.419  -2.444  -3.217  1.00  0.00    -0.481 OA
ATOM      5  H   UNL     1       9.615  -3.418  -2.969  1.00  0.00     0.296 HD
ENDBRANCH   2   4
ENDBRANCH   1   2
BRANCH   1   6
ATOM      6  C   UNL     1       7.395  -1.222  -0.788  1.00  0.00     0.047 C 
BRANCH   6   7
ATOM      7  C   UNL     1       6.543  -0.234  -0.127  1.00  0.00    -0.047 A 
ATOM      8  C   UNL     1       6.117  -0.427   1.167  1.00  0.00     0.004 A 
ATOM      9  C   UNL     1       6.171   0.898  -0.814  1.00  0.00     0.004 A 
ATOM     10  C   UNL     1       5.306   0.558   1.735  1.00  0.00     0.000 A 
ATOM     11  C   UNL     1       5.370   1.871  -0.250  1.00  0.00     0.000 A 
ATOM     12  C   UNL     1       4.937   1.685   1.045  1.00  0.00     0.000 A 
ENDBRANCH   6   7
ENDBRANCH   1   6
TORSDOF 4
ENDMDL
MODEL 4
REMARK VINA RESULT:      -6.8      3.374      5.078
REMARK SMILES O=C(O)CCc1ccccc1
REMARK SMILES IDX 4 1 2 2 1 3 3 4 5 6 6 7 7 8 11 9 8 10 10 11 9 12
REMARK H PARENT 3 5
REMARK Flexibility Score: inf
ROOT
ATOM      1  C   UNL     1       5.015   1.770   0.691  1.00  0.00     0.127 C 
ENDROOT
BRANCH   1   2
ATOM      2  C   UNL     1       4.489   1.110   1.909  1.00  0.00     0.303 C 
ATOM      3  O   UNL     1       5.139   0.207   2.491  1.00  0.00    -0.252 OA
BRANCH   2   4
ATOM      4  O   UNL     1       3.261   1.472   2.440  1.00  0.00    -0.481 OA
ATOM      5  H   UNL     1       2.878   2.398   2.228  1.00  0.00     0.296 HD
ENDBRANCH   2   4
ENDBRANCH   1   2
BRANCH   1   6
ATOM      6  C   UNL     1       6.511   1.760   0.758  1.00  0.00     0.047 C 
BRANCH   6   7
ATOM      7  C   UNL     1       7.151   1.020  -0.328  1.00  0.00    -0.047 A 
ATOM      8  C   UNL     1       8.465   1.252  -0.659  1.00  0.00     0.004 A 
ATOM      9  C   UNL     1       6.422   0.079  -1.019  1.00  0.00     0.004 A 
ATOM     10  C   UNL     1       9.011   0.508  -1.707  1.00  0.00     0.000 A 
ATOM     11  C   UNL     1       6.964  -0.656  -2.055  1.00  0.00     0.000 A 
ATOM     12  C   UNL     1       8.280  -0.428  -2.394  1.00  0.00     0.000 A 
ENDBRANCH   6   7
ENDBRANCH   1   6
TORSDOF 4
ENDMDL
MODEL 5
REMARK VINA RESULT:      -6.7      3.807      4.913
REMARK SMILES O=C(O)CCc1ccccc1
REMARK SMILES IDX 4 1 2 2 1 3 3 4 5 6 6 7 7 8 11 9 8 10 10 11 9 12
REMARK H PARENT 3 5
REMARK Flexibility Score: inf
ROOT
ATOM      1  C   UNL     1       5.442   2.906  -0.006  1.00  0.00     0.127 C 
ENDROOT
BRANCH   1   2
ATOM      2  C   UNL     1       6.255   3.854   0.792  1.00  0.00     0.303 C 
ATOM      3  O   UNL     1       6.909   4.774   0.242  1.00  0.00    -0.252 OA
BRANCH   2   4
ATOM      4  O   UNL     1       6.315   3.750   2.173  1.00  0.00    -0.481 OA
ATOM      5  H   UNL     1       5.796   3.003   2.642  1.00  0.00     0.296 HD
ENDBRANCH   2   4
ENDBRANCH   1   2
BRANCH   1   6
ATOM      6  C   UNL     1       4.916   1.847   0.914  1.00  0.00     0.047 C 
BRANCH   6   7
ATOM      7  C   UNL     1       5.704   0.616   0.918  1.00  0.00    -0.047 A 
ATOM      8  C   UNL     1       5.765  -0.178   2.040  1.00  0.00     0.004 A 
ATOM      9  C   UNL     1       6.389   0.254  -0.220  1.00  0.00     0.004 A 
ATOM     10  C   UNL     1       6.537  -1.340   1.971  1.00  0.00     0.000 A 
ATOM     11  C   UNL     1       7.151  -0.895  -0.286  1.00  0.00     0.000 A 
ATOM     12  C   UNL     1       7.218  -1.695   0.834  1.00  0.00     0.000 A 
ENDBRANCH   6   7
ENDBRANCH   1   6
TORSDOF 4
ENDMDL
