@<TRIPOS>MOLECULE
/home/cewinharhar/GITHUB/reincatalyze/data/processed/docking_pred/2023-Apr-26-1657_maxeplen10_maxtrainstep1000_exh32_gamma099_lrac9e-4_lrcr1e-3/36543b95c0c748273319382419c31c9b55863a9a_ligand_2.pdbqt
 12 12 0 0 0
SMALL
GASTEIGER

@<TRIPOS>ATOM
      1  C          8.4300   -0.5790   -2.1950 C.3     1  UNL1        0.1270
      2  C          8.4800   -1.8730   -2.9160 C.2     1  UNL1        0.3030
      3  O          9.5680   -2.4710   -3.1040 O.2     1  UNL1       -0.2520
      4  O          7.3230   -2.4590   -3.4030 O.3     1  UNL1       -0.4810
      5  H          6.4200   -2.2000   -2.9960 H       1  UNL1        0.2960
      6  C          7.0030   -0.1240   -2.1430 C.3     1  UNL1        0.0470
      7  C          6.4770    0.0300   -0.7880 C.2     1  UNL1       -0.0470
      8  C          6.6100   -0.9790    0.1370 C.2     1  UNL1        0.0040
      9  C          5.8460    1.2020   -0.4410 C.2     1  UNL1        0.0040
     10  C          6.0850   -0.7630    1.4130 C.2     1  UNL1        0.0000
     11  C          5.3270    1.4150    0.8200 C.2     1  UNL1        0.0000
     12  C          5.4550    0.4080    1.7520 C.2     1  UNL1        0.0000
@<TRIPOS>BOND
     1     4     5    1
     2     4     2    1
     3     3     2    2
     4     2     1    1
     5     1     6    1
     6     6     7    1
     7     7     9    2
     8     7     8    1
     9     9    11    1
    10     8    10    2
    11    11    12    2
    12    10    12    1
