@<TRIPOS>MOLECULE
/home/cewinharhar/GITHUB/reincatalyze/data/processed/docking_pred/2023-Apr-26-1657_maxeplen10_maxtrainstep1000_exh32_gamma099_lrac9e-4_lrcr1e-3/36543b95c0c748273319382419c31c9b55863a9a_ligand_2.pdbqt
 12 12 0 0 0
SMALL
GASTEIGER

@<TRIPOS>ATOM
      1  C          7.9860   -0.7480   -2.0810 C.3     1  UNL1        0.1270
      2  C          8.1600   -1.9210   -2.9700 C.2     1  UNL1        0.3030
      3  O          7.1750   -2.4720   -3.5210 O.2     1  UNL1       -0.2520
      4  O          9.4190   -2.4440   -3.2170 O.3     1  UNL1       -0.4810
      5  H          9.6150   -3.4180   -2.9690 H       1  UNL1        0.2960
      6  C          7.3950   -1.2220   -0.7880 C.3     1  UNL1        0.0470
      7  C          6.5430   -0.2340   -0.1270 C.2     1  UNL1       -0.0470
      8  C          6.1170   -0.4270    1.1670 C.2     1  UNL1        0.0040
      9  C          6.1710    0.8980   -0.8140 C.2     1  UNL1        0.0040
     10  C          5.3060    0.5580    1.7350 C.2     1  UNL1        0.0000
     11  C          5.3700    1.8710   -0.2500 C.2     1  UNL1        0.0000
     12  C          4.9370    1.6850    1.0450 C.2     1  UNL1        0.0000
@<TRIPOS>BOND
     1     3     2    2
     2     4     2    1
     3     4     5    1
     4     2     1    1
     5     1     6    1
     6     9    11    1
     7     9     7    2
     8     6     7    1
     9    11    12    2
    10     7     8    1
    11    12    10    1
    12     8    10    2
