@<TRIPOS>MOLECULE
/home/cewinharhar/GITHUB/reincatalyze/data/processed/docking_pred/2023-Apr-26-1657_maxeplen10_maxtrainstep1000_exh32_gamma099_lrac9e-4_lrcr1e-3/367438b83e07ec58543242b49c62b5ced391bd04_ligand_2.pdbqt
 12 12 0 0 0
SMALL
GASTEIGER

@<TRIPOS>ATOM
      1  C          8.4740   -0.6150   -2.1460 C.3     1  UNL1        0.1270
      2  C          8.4900   -1.8890   -2.9030 C.2     1  UNL1        0.3030
      3  O          9.5620   -2.5090   -3.1110 O.2     1  UNL1       -0.2520
      4  O          7.3180   -2.4320   -3.4050 O.3     1  UNL1       -0.4810
      5  H          7.3460   -2.9660   -4.2780 H       1  UNL1        0.2960
      6  C          7.0680   -0.0960   -2.1270 C.3     1  UNL1        0.0470
      7  C          6.5070    0.0520   -0.7860 C.2     1  UNL1       -0.0470
      8  C          6.6340   -0.9530    0.1450 C.2     1  UNL1        0.0040
      9  C          5.8480    1.2140   -0.4590 C.2     1  UNL1        0.0040
     10  C          6.0740   -0.7420    1.4070 C.2     1  UNL1        0.0000
     11  C          5.2950    1.4210    0.7890 C.2     1  UNL1        0.0000
     12  C          5.4170    0.4190    1.7280 C.2     1  UNL1        0.0000
@<TRIPOS>BOND
     1     5     4    1
     2     4     2    1
     3     3     2    2
     4     2     1    1
     5     1     6    1
     6     6     7    1
     7     7     9    2
     8     7     8    1
     9     9    11    1
    10     8    10    2
    11    11    12    2
    12    10    12    1
