@<TRIPOS>MOLECULE
/home/cewinharhar/GITHUB/reincatalyze/data/processed/docking_pred/2023-Apr-26-1657_maxeplen10_maxtrainstep1000_exh32_gamma099_lrac9e-4_lrcr1e-3/367438b83e07ec58543242b49c62b5ced391bd04_ligand_2.pdbqt
 12 12 0 0 0
SMALL
GASTEIGER

@<TRIPOS>ATOM
      1  C          5.4060    2.9160    0.0440 C.3     1  UNL1        0.1270
      2  C          6.2290    3.8740    0.8190 C.2     1  UNL1        0.3030
      3  O          6.8930    4.7730    0.2460 O.2     1  UNL1       -0.2520
      4  O          6.2900    3.8020    2.2010 O.3     1  UNL1       -0.4810
      5  H          7.1740    3.5500    2.6510 H       1  UNL1        0.2960
      6  C          4.9060    1.8590    0.9810 C.3     1  UNL1        0.0470
      7  C          5.6860    0.6230    0.9540 C.2     1  UNL1       -0.0470
      8  C          6.3570    0.2390   -0.1840 C.2     1  UNL1        0.0040
      9  C          5.7470   -0.1570    2.0850 C.2     1  UNL1        0.0040
     10  C          7.0840   -0.9530   -0.1370 C.2     1  UNL1        0.0000
     11  C          6.4650   -1.3360    2.1300 C.2     1  UNL1        0.0000
     12  C          7.1390   -1.7280    0.9940 C.2     1  UNL1        0.0000
@<TRIPOS>BOND
     1     8    10    1
     2     8     7    2
     3    10    12    2
     4     1     2    1
     5     1     6    1
     6     3     2    2
     7     2     4    1
     8     7     6    1
     9     7     9    1
    10    12    11    1
    11     9    11    2
    12     4     5    1
