@<TRIPOS>MOLECULE
/home/cewinharhar/GITHUB/reincatalyze/data/processed/docking_pred/2023-Apr-26-1657_maxeplen10_maxtrainstep1000_exh32_gamma099_lrac9e-4_lrcr1e-3/367438b83e07ec58543242b49c62b5ced391bd04_ligand_2.pdbqt
 12 12 0 0 0
SMALL
GASTEIGER

@<TRIPOS>ATOM
      1  C          4.9850    1.8070    0.7150 C.3     1  UNL1        0.1270
      2  C          4.4750    1.1150    1.9220 C.2     1  UNL1        0.3030
      3  O          5.1390    0.2090    2.4820 O.2     1  UNL1       -0.2520
      4  O          3.2470    1.4520    2.4680 O.3     1  UNL1       -0.4810
      5  H          2.5930    0.7080    2.7270 H       1  UNL1        0.2960
      6  C          6.4820    1.7940    0.7620 C.3     1  UNL1        0.0470
      7  C          7.1050    1.0520   -0.3330 C.2     1  UNL1       -0.0470
      8  C          6.3690    0.1780   -1.0990 C.2     1  UNL1        0.0040
      9  C          8.4430    1.2380   -0.5950 C.2     1  UNL1        0.0040
     10  C          7.0290   -0.4960   -2.1290 C.2     1  UNL1        0.0000
     11  C          9.0940    0.5700   -1.6130 C.2     1  UNL1        0.0000
     12  C          8.3630   -0.3080   -2.3850 C.2     1  UNL1        0.0000
@<TRIPOS>BOND
     1    12    10    2
     2    12    11    1
     3    10     8    1
     4    11     9    2
     5     8     7    2
     6     9     7    1
     7     7     6    1
     8     1     6    1
     9     1     2    1
    10     2     4    1
    11     2     3    2
    12     4     5    1
