@<TRIPOS>MOLECULE
/home/cewinharhar/GITHUB/reincatalyze/data/processed/docking_pred/2023-Apr-26-1657_maxeplen10_maxtrainstep1000_exh32_gamma099_lrac9e-4_lrcr1e-3/367438b83e07ec58543242b49c62b5ced391bd04_ligand_2.pdbqt
 12 12 0 0 0
SMALL
GASTEIGER

@<TRIPOS>ATOM
      1  C          8.4350   -0.6090   -2.1610 C.3     1  UNL1        0.1270
      2  C          8.4880   -1.8900   -2.9040 C.2     1  UNL1        0.3030
      3  O          9.5770   -2.4820   -3.1040 O.2     1  UNL1       -0.2520
      4  O          7.3320   -2.4710   -3.4020 O.3     1  UNL1       -0.4810
      5  H          7.1600   -3.4660   -3.2350 H       1  UNL1        0.2960
      6  C          7.0130   -0.1360   -2.1400 C.3     1  UNL1        0.0470
      7  C          6.4680    0.0490   -0.7960 C.2     1  UNL1       -0.0470
      8  C          5.8370    1.2200   -0.4480 C.2     1  UNL1        0.0040
      9  C          6.5890   -0.9680    0.1230 C.2     1  UNL1        0.0040
     10  C          5.3390    1.3260    0.8530 C.2     1  UNL1        0.0000
     11  C          6.0960   -0.8610    1.4080 C.2     1  UNL1        0.0000
     12  C          5.4640    0.3100    1.7650 C.2     1  UNL1        0.0000
@<TRIPOS>BOND
     1     4     5    1
     2     4     2    1
     3     3     2    2
     4     2     1    1
     5     1     6    1
     6     6     7    1
     7     7     8    2
     8     7     9    1
     9     8    10    1
    10     9    11    2
    11    10    12    2
    12    11    12    1
