@<TRIPOS>MOLECULE
/home/cewinharhar/GITHUB/reincatalyze/data/processed/docking_pred/2023-Apr-26-1657_maxeplen10_maxtrainstep1000_exh32_gamma099_lrac9e-4_lrcr1e-3/367438b83e07ec58543242b49c62b5ced391bd04_ligand_2.pdbqt
 12 12 0 0 0
SMALL
GASTEIGER

@<TRIPOS>ATOM
      1  C          8.2370   -0.8810   -1.9360 C.3     1  UNL1        0.1270
      2  C          8.3800   -2.0220   -2.8700 C.2     1  UNL1        0.3030
      3  O          9.5000   -2.5430   -3.0950 O.2     1  UNL1       -0.2520
      4  O          7.2770   -2.5470   -3.5240 O.3     1  UNL1       -0.4810
      5  H          6.8060   -3.3680   -3.1340 H       1  UNL1        0.2960
      6  C          7.4420   -1.3390   -0.7510 C.3     1  UNL1        0.0470
      7  C          6.5940   -0.3020   -0.1670 C.2     1  UNL1       -0.0470
      8  C          6.2330    0.8060   -0.8990 C.2     1  UNL1        0.0040
      9  C          6.1540   -0.4450    1.1280 C.2     1  UNL1        0.0040
     10  C          5.4190    1.7560   -0.2770 C.2     1  UNL1        0.0000
     11  C          5.3500    0.4950    1.7410 C.2     1  UNL1        0.0000
     12  C          4.9840    1.6080    1.0160 C.2     1  UNL1        0.0000
@<TRIPOS>BOND
     1     4     5    1
     2     4     2    1
     3     3     2    2
     4     2     1    1
     5     1     6    1
     6     8    10    1
     7     8     7    2
     8     6     7    1
     9    10    12    2
    10     7     9    1
    11    12    11    1
    12     9    11    2
