MODEL 1
REMARK VINA RESULT:      -7.4      0.000      0.000
REMARK SMILES O=C(O)CCc1ccccc1
REMARK SMILES IDX 4 1 2 2 1 3 3 4 5 6 6 7 7 8 11 9 8 10 10 11 9 12
REMARK H PARENT 3 5
REMARK Flexibility Score: inf
ROOT
ATOM      1  C   UNL     1       8.474  -0.615  -2.146  1.00  0.00     0.127 C 
ENDROOT
BRANCH   1   2
ATOM      2  C   UNL     1       8.490  -1.889  -2.903  1.00  0.00     0.303 C 
ATOM      3  O   UNL     1       9.562  -2.509  -3.111  1.00  0.00    -0.252 OA
BRANCH   2   4
ATOM      4  O   UNL     1       7.318  -2.432  -3.405  1.00  0.00    -0.481 OA
ATOM      5  H   UNL     1       7.346  -2.966  -4.278  1.00  0.00     0.296 HD
ENDBRANCH   2   4
ENDBRANCH   1   2
BRANCH   1   6
ATOM      6  C   UNL     1       7.068  -0.096  -2.127  1.00  0.00     0.047 C 
BRANCH   6   7
ATOM      7  C   UNL     1       6.507   0.052  -0.786  1.00  0.00    -0.047 A 
ATOM      8  C   UNL     1       6.634  -0.953   0.145  1.00  0.00     0.004 A 
ATOM      9  C   UNL     1       5.848   1.214  -0.459  1.00  0.00     0.004 A 
ATOM     10  C   UNL     1       6.074  -0.742   1.407  1.00  0.00     0.000 A 
ATOM     11  C   UNL     1       5.295   1.421   0.789  1.00  0.00     0.000 A 
ATOM     12  C   UNL     1       5.417   0.419   1.728  1.00  0.00     0.000 A 
ENDBRANCH   6   7
ENDBRANCH   1   6
TORSDOF 4
ENDMDL
MODEL 2
REMARK VINA RESULT:      -7.3      0.073      1.438
REMARK SMILES O=C(O)CCc1ccccc1
REMARK SMILES IDX 4 1 2 2 1 3 3 4 5 6 6 7 7 8 11 9 8 10 10 11 9 12
REMARK H PARENT 3 5
REMARK Flexibility Score: inf
ROOT
ATOM      1  C   UNL     1       8.435  -0.609  -2.161  1.00  0.00     0.127 C 
ENDROOT
BRANCH   1   2
ATOM      2  C   UNL     1       8.488  -1.890  -2.904  1.00  0.00     0.303 C 
ATOM      3  O   UNL     1       9.577  -2.482  -3.104  1.00  0.00    -0.252 OA
BRANCH   2   4
ATOM      4  O   UNL     1       7.332  -2.471  -3.402  1.00  0.00    -0.481 OA
ATOM      5  H   UNL     1       7.160  -3.466  -3.235  1.00  0.00     0.296 HD
ENDBRANCH   2   4
ENDBRANCH   1   2
BRANCH   1   6
ATOM      6  C   UNL     1       7.013  -0.136  -2.140  1.00  0.00     0.047 C 
BRANCH   6   7
ATOM      7  C   UNL     1       6.468   0.049  -0.796  1.00  0.00    -0.047 A 
ATOM      8  C   UNL     1       5.837   1.220  -0.448  1.00  0.00     0.004 A 
ATOM      9  C   UNL     1       6.589  -0.968   0.123  1.00  0.00     0.004 A 
ATOM     10  C   UNL     1       5.339   1.326   0.853  1.00  0.00     0.000 A 
ATOM     11  C   UNL     1       6.096  -0.861   1.408  1.00  0.00     0.000 A 
ATOM     12  C   UNL     1       5.464   0.310   1.765  1.00  0.00     0.000 A 
ENDBRANCH   6   7
ENDBRANCH   1   6
TORSDOF 4
ENDMDL
MODEL 3
REMARK VINA RESULT:      -7.2      0.615      1.579
REMARK SMILES O=C(O)CCc1ccccc1
REMARK SMILES IDX 4 1 2 2 1 3 3 4 5 6 6 7 7 8 11 9 8 10 10 11 9 12
REMARK H PARENT 3 5
REMARK Flexibility Score: inf
ROOT
ATOM      1  C   UNL     1       8.237  -0.881  -1.936  1.00  0.00     0.127 C 
ENDROOT
BRANCH   1   2
ATOM      2  C   UNL     1       8.380  -2.022  -2.870  1.00  0.00     0.303 C 
ATOM      3  O   UNL     1       9.500  -2.543  -3.095  1.00  0.00    -0.252 OA
BRANCH   2   4
ATOM      4  O   UNL     1       7.277  -2.547  -3.524  1.00  0.00    -0.481 OA
ATOM      5  H   UNL     1       6.806  -3.368  -3.134  1.00  0.00     0.296 HD
ENDBRANCH   2   4
ENDBRANCH   1   2
BRANCH   1   6
ATOM      6  C   UNL     1       7.442  -1.339  -0.751  1.00  0.00     0.047 C 
BRANCH   6   7
ATOM      7  C   UNL     1       6.594  -0.302  -0.167  1.00  0.00    -0.047 A 
ATOM      8  C   UNL     1       6.233   0.806  -0.899  1.00  0.00     0.004 A 
ATOM      9  C   UNL     1       6.154  -0.445   1.128  1.00  0.00     0.004 A 
ATOM     10  C   UNL     1       5.419   1.756  -0.277  1.00  0.00     0.000 A 
ATOM     11  C   UNL     1       5.350   0.495   1.741  1.00  0.00     0.000 A 
ATOM     12  C   UNL     1       4.984   1.608   1.016  1.00  0.00     0.000 A 
ENDBRANCH   6   7
ENDBRANCH   1   6
TORSDOF 4
ENDMDL
MODEL 4
REMARK VINA RESULT:      -6.8      3.371      5.072
REMARK SMILES O=C(O)CCc1ccccc1
REMARK SMILES IDX 4 1 2 2 1 3 3 4 5 6 6 7 7 8 11 9 8 10 10 11 9 12
REMARK H PARENT 3 5
REMARK Flexibility Score: inf
ROOT
ATOM      1  C   UNL     1       4.985   1.807   0.715  1.00  0.00     0.127 C 
ENDROOT
BRANCH   1   2
ATOM      2  C   UNL     1       4.475   1.115   1.922  1.00  0.00     0.303 C 
ATOM      3  O   UNL     1       5.139   0.209   2.482  1.00  0.00    -0.252 OA
BRANCH   2   4
ATOM      4  O   UNL     1       3.247   1.452   2.468  1.00  0.00    -0.481 OA
ATOM      5  H   UNL     1       2.593   0.708   2.727  1.00  0.00     0.296 HD
ENDBRANCH   2   4
ENDBRANCH   1   2
BRANCH   1   6
ATOM      6  C   UNL     1       6.482   1.794   0.762  1.00  0.00     0.047 C 
BRANCH   6   7
ATOM      7  C   UNL     1       7.105   1.052  -0.333  1.00  0.00    -0.047 A 
ATOM      8  C   UNL     1       6.369   0.178  -1.099  1.00  0.00     0.004 A 
ATOM      9  C   UNL     1       8.443   1.238  -0.595  1.00  0.00     0.004 A 
ATOM     10  C   UNL     1       7.029  -0.496  -2.129  1.00  0.00     0.000 A 
ATOM     11  C   UNL     1       9.094   0.570  -1.613  1.00  0.00     0.000 A 
ATOM     12  C   UNL     1       8.363  -0.308  -2.385  1.00  0.00     0.000 A 
ENDBRANCH   6   7
ENDBRANCH   1   6
TORSDOF 4
ENDMDL
MODEL 5
REMARK VINA RESULT:      -6.7      3.834      5.010
REMARK SMILES O=C(O)CCc1ccccc1
REMARK SMILES IDX 4 1 2 2 1 3 3 4 5 6 6 7 7 8 11 9 8 10 10 11 9 12
REMARK H PARENT 3 5
REMARK Flexibility Score: inf
ROOT
ATOM      1  C   UNL     1       5.406   2.916   0.044  1.00  0.00     0.127 C 
ENDROOT
BRANCH   1   2
ATOM      2  C   UNL     1       6.229   3.874   0.819  1.00  0.00     0.303 C 
ATOM      3  O   UNL     1       6.893   4.773   0.246  1.00  0.00    -0.252 OA
BRANCH   2   4
ATOM      4  O   UNL     1       6.290   3.802   2.201  1.00  0.00    -0.481 OA
ATOM      5  H   UNL     1       7.174   3.550   2.651  1.00  0.00     0.296 HD
ENDBRANCH   2   4
ENDBRANCH   1   2
BRANCH   1   6
ATOM      6  C   UNL     1       4.906   1.859   0.981  1.00  0.00     0.047 C 
BRANCH   6   7
ATOM      7  C   UNL     1       5.686   0.623   0.954  1.00  0.00    -0.047 A 
ATOM      8  C   UNL     1       6.357   0.239  -0.184  1.00  0.00     0.004 A 
ATOM      9  C   UNL     1       5.747  -0.157   2.085  1.00  0.00     0.004 A 
ATOM     10  C   UNL     1       7.084  -0.953  -0.137  1.00  0.00     0.000 A 
ATOM     11  C   UNL     1       6.465  -1.336   2.130  1.00  0.00     0.000 A 
ATOM     12  C   UNL     1       7.139  -1.728   0.994  1.00  0.00     0.000 A 
ENDBRANCH   6   7
ENDBRANCH   1   6
TORSDOF 4
ENDMDL
