@<TRIPOS>MOLECULE
/home/cewinharhar/GITHUB/reincatalyze/data/processed/docking_pred/2023-Apr-26-1657_maxeplen10_maxtrainstep1000_exh32_gamma099_lrac9e-4_lrcr1e-3/37a8b72800122466266a4bb22cdda1f56f02b914_ligand_2.pdbqt
 12 12 0 0 0
SMALL
GASTEIGER

@<TRIPOS>ATOM
      1  C          7.8570   -6.5340   11.1910 C.3     1  UNL1        0.1270
      2  C          8.3120   -5.1290   11.0730 C.2     1  UNL1        0.3030
      3  O          7.7020   -4.3060   10.3470 O.2     1  UNL1       -0.2520
      4  O          9.4280   -4.6830   11.7640 O.3     1  UNL1       -0.4810
      5  H         10.3510   -4.7640   11.3300 H       1  UNL1        0.2960
      6  C          8.6520   -7.1970   12.2750 C.3     1  UNL1        0.0470
      7  C          9.4570   -8.3270   11.8150 C.2     1  UNL1       -0.0470
      8  C         10.3330   -8.1850   10.7630 C.2     1  UNL1        0.0040
      9  C          9.3340   -9.5420   12.4490 C.2     1  UNL1        0.0040
     10  C         11.0710   -9.3070   10.3780 C.2     1  UNL1        0.0000
     11  C         10.0640  -10.6490   12.0670 C.2     1  UNL1        0.0000
     12  C         10.9420  -10.5160   11.0130 C.2     1  UNL1        0.0000
@<TRIPOS>BOND
     1     3     2    2
     2    10     8    1
     3    10    12    2
     4     8     7    2
     5    12    11    1
     6     2     1    1
     7     2     4    1
     8     1     6    1
     9     5     4    1
    10     7     6    1
    11     7     9    1
    12    11     9    2
