@<TRIPOS>MOLECULE
/home/cewinharhar/GITHUB/reincatalyze/data/processed/docking_pred/2023-Apr-26-1657_maxeplen10_maxtrainstep1000_exh32_gamma099_lrac9e-4_lrcr1e-3/37a8b72800122466266a4bb22cdda1f56f02b914_ligand_2.pdbqt
 12 12 0 0 0
SMALL
GASTEIGER

@<TRIPOS>ATOM
      1  C          5.5010    2.9370    0.0830 C.3     1  UNL1        0.1270
      2  C          6.1870    4.0510    0.7800 C.2     1  UNL1        0.3030
      3  O          7.0230    4.7750    0.1850 O.2     1  UNL1       -0.2520
      4  O          5.9220    4.3250    2.1120 O.3     1  UNL1       -0.4810
      5  H          6.5600    4.9310    2.6350 H       1  UNL1        0.2960
      6  C          4.8080    2.0950    1.1100 C.3     1  UNL1        0.0470
      7  C          5.5580    0.9050    1.5070 C.2     1  UNL1       -0.0470
      8  C          6.8150    1.0160    2.0550 C.2     1  UNL1        0.0040
      9  C          4.9920   -0.3360    1.3300 C.2     1  UNL1        0.0040
     10  C          7.4730   -0.1630    2.4130 C.2     1  UNL1        0.0000
     11  C          5.6440   -1.5010    1.6840 C.2     1  UNL1        0.0000
     12  C          6.9040   -1.3980    2.2330 C.2     1  UNL1        0.0000
@<TRIPOS>BOND
     1     1     2    1
     2     1     6    1
     3     3     2    2
     4     2     4    1
     5     6     7    1
     6     9     7    2
     7     9    11    1
     8     7     8    1
     9    11    12    2
    10     8    10    2
    11     4     5    1
    12    12    10    1
