@<TRIPOS>MOLECULE
/home/cewinharhar/GITHUB/reincatalyze/data/processed/docking_pred/2023-Apr-26-1657_maxeplen10_maxtrainstep1000_exh32_gamma099_lrac9e-4_lrcr1e-3/37a8b72800122466266a4bb22cdda1f56f02b914_ligand_2.pdbqt
 12 12 0 0 0
SMALL
GASTEIGER

@<TRIPOS>ATOM
      1  C          8.1790   -6.1100   11.4000 C.3     1  UNL1        0.1270
      2  C          8.0370   -4.6370   11.3240 C.2     1  UNL1        0.3030
      3  O          7.6180   -4.0770   10.2810 O.2     1  UNL1       -0.2520
      4  O          8.3630   -3.8360   12.4060 O.3     1  UNL1       -0.4810
      5  H          7.7630   -3.0390   12.6390 H       1  UNL1        0.2960
      6  C          8.9120   -6.5760   10.1790 C.3     1  UNL1        0.0470
      7  C         10.2120   -7.1820   10.4610 C.2     1  UNL1       -0.0470
      8  C         10.3630   -8.5490   10.4730 C.2     1  UNL1        0.0040
      9  C         11.2920   -6.3680   10.7130 C.2     1  UNL1        0.0040
     10  C         11.6340   -9.0590   10.7490 C.2     1  UNL1        0.0000
     11  C         12.5480   -6.8730   10.9850 C.2     1  UNL1        0.0000
     12  C         12.7070   -8.2420   11.0010 C.2     1  UNL1        0.0000
@<TRIPOS>BOND
     1     6     7    1
     2     6     1    1
     3     3     2    2
     4     7     8    2
     5     7     9    1
     6     8    10    1
     7     9    11    2
     8    10    12    2
     9    11    12    1
    10     2     1    1
    11     2     4    1
    12     4     5    1
