@<TRIPOS>MOLECULE
/home/cewinharhar/GITHUB/reincatalyze/data/processed/docking_pred/2023-Apr-26-1657_maxeplen10_maxtrainstep1000_exh32_gamma099_lrac9e-4_lrcr1e-3/37a8b72800122466266a4bb22cdda1f56f02b914_ligand_2.pdbqt
 12 12 0 0 0
SMALL
GASTEIGER

@<TRIPOS>ATOM
      1  C          6.2030   -1.3350    2.0460 C.3     1  UNL1        0.1270
      2  C          7.5290   -1.8390    1.6190 C.2     1  UNL1        0.3030
      3  O          7.7040   -3.0490    1.3300 O.2     1  UNL1       -0.2520
      4  O          8.6170   -0.9850    1.5270 O.3     1  UNL1       -0.4810
      5  H          8.4890   -0.0530    1.1260 H       1  UNL1        0.2960
      6  C          6.3930    0.0030    2.6930 C.3     1  UNL1        0.0470
      7  C          6.1340    1.1340    1.8040 C.2     1  UNL1       -0.0470
      8  C          6.8950    2.2780    1.8820 C.2     1  UNL1        0.0040
      9  C          5.1170    1.0450    0.8820 C.2     1  UNL1        0.0040
     10  C          6.5920    3.3190    1.0010 C.2     1  UNL1        0.0000
     11  C          4.8190    2.0750    0.0120 C.2     1  UNL1        0.0000
     12  C          5.5760    3.2240    0.0840 C.2     1  UNL1        0.0000
@<TRIPOS>BOND
     1    11    12    2
     2    11     9    1
     3    12    10    1
     4     9     7    2
     5    10     8    2
     6     5     4    1
     7     3     2    2
     8     4     2    1
     9     2     1    1
    10     7     8    1
    11     7     6    1
    12     1     6    1
