MODEL 1
REMARK VINA RESULT:      -5.5      0.000      0.000
REMARK SMILES O=C(O)CCc1ccccc1
REMARK SMILES IDX 4 1 2 2 1 3 3 4 5 6 6 7 7 8 11 9 8 10 10 11 9 12
REMARK H PARENT 3 5
REMARK Flexibility Score: inf
ROOT
ATOM      1  C   UNL     1       6.352  -0.544   2.733  1.00  0.00     0.127 C 
ENDROOT
BRANCH   1   2
ATOM      2  C   UNL     1       7.117  -1.504   1.902  1.00  0.00     0.303 C 
ATOM      3  O   UNL     1       8.281  -1.241   1.510  1.00  0.00    -0.252 OA
BRANCH   2   4
ATOM      4  O   UNL     1       6.566  -2.720   1.533  1.00  0.00    -0.481 OA
ATOM      5  H   UNL     1       6.887  -3.176   0.674  1.00  0.00     0.296 HD
ENDBRANCH   2   4
ENDBRANCH   1   2
BRANCH   1   6
ATOM      6  C   UNL     1       5.237   0.014   1.902  1.00  0.00     0.047 C 
BRANCH   6   7
ATOM      7  C   UNL     1       5.530   1.322   1.317  1.00  0.00    -0.047 A 
ATOM      8  C   UNL     1       4.848   1.765   0.208  1.00  0.00     0.004 A 
ATOM      9  C   UNL     1       6.498   2.113   1.892  1.00  0.00     0.004 A 
ATOM     10  C   UNL     1       5.178   3.025  -0.296  1.00  0.00     0.000 A 
ATOM     11  C   UNL     1       6.824   3.358   1.392  1.00  0.00     0.000 A 
ATOM     12  C   UNL     1       6.146   3.809   0.280  1.00  0.00     0.000 A 
ENDBRANCH   6   7
ENDBRANCH   1   6
TORSDOF 4
ENDMDL
MODEL 2
REMARK VINA RESULT:      -4.1      0.754      1.866
REMARK SMILES O=C(O)CCc1ccccc1
REMARK SMILES IDX 4 1 2 2 1 3 3 4 5 6 6 7 7 8 11 9 8 10 10 11 9 12
REMARK H PARENT 3 5
REMARK Flexibility Score: inf
ROOT
ATOM      1  C   UNL     1       6.203  -1.335   2.046  1.00  0.00     0.127 C 
ENDROOT
BRANCH   1   2
ATOM      2  C   UNL     1       7.529  -1.839   1.619  1.00  0.00     0.303 C 
ATOM      3  O   UNL     1       7.704  -3.049   1.330  1.00  0.00    -0.252 OA
BRANCH   2   4
ATOM      4  O   UNL     1       8.617  -0.985   1.527  1.00  0.00    -0.481 OA
ATOM      5  H   UNL     1       8.489  -0.053   1.126  1.00  0.00     0.296 HD
ENDBRANCH   2   4
ENDBRANCH   1   2
BRANCH   1   6
ATOM      6  C   UNL     1       6.393   0.003   2.693  1.00  0.00     0.047 C 
BRANCH   6   7
ATOM      7  C   UNL     1       6.134   1.134   1.804  1.00  0.00    -0.047 A 
ATOM      8  C   UNL     1       6.895   2.278   1.882  1.00  0.00     0.004 A 
ATOM      9  C   UNL     1       5.117   1.045   0.882  1.00  0.00     0.004 A 
ATOM     10  C   UNL     1       6.592   3.319   1.001  1.00  0.00     0.000 A 
ATOM     11  C   UNL     1       4.819   2.075   0.012  1.00  0.00     0.000 A 
ATOM     12  C   UNL     1       5.576   3.224   0.084  1.00  0.00     0.000 A 
ENDBRANCH   6   7
ENDBRANCH   1   6
TORSDOF 4
ENDMDL
MODEL 3
REMARK VINA RESULT:      -3.8     11.795     14.345
REMARK SMILES O=C(O)CCc1ccccc1
REMARK SMILES IDX 4 1 2 2 1 3 3 4 5 6 6 7 7 8 11 9 8 10 10 11 9 12
REMARK H PARENT 3 5
REMARK Flexibility Score: inf
ROOT
ATOM      1  C   UNL     1       7.857  -6.534  11.191  1.00  0.00     0.127 C 
ENDROOT
BRANCH   1   2
ATOM      2  C   UNL     1       8.312  -5.129  11.073  1.00  0.00     0.303 C 
ATOM      3  O   UNL     1       7.702  -4.306  10.347  1.00  0.00    -0.252 OA
BRANCH   2   4
ATOM      4  O   UNL     1       9.428  -4.683  11.764  1.00  0.00    -0.481 OA
ATOM      5  H   UNL     1      10.351  -4.764  11.330  1.00  0.00     0.296 HD
ENDBRANCH   2   4
ENDBRANCH   1   2
BRANCH   1   6
ATOM      6  C   UNL     1       8.652  -7.197  12.275  1.00  0.00     0.047 C 
BRANCH   6   7
ATOM      7  C   UNL     1       9.457  -8.327  11.815  1.00  0.00    -0.047 A 
ATOM      8  C   UNL     1      10.333  -8.185  10.763  1.00  0.00     0.004 A 
ATOM      9  C   UNL     1       9.334  -9.542  12.449  1.00  0.00     0.004 A 
ATOM     10  C   UNL     1      11.071  -9.307  10.378  1.00  0.00     0.000 A 
ATOM     11  C   UNL     1      10.064 -10.649  12.067  1.00  0.00     0.000 A 
ATOM     12  C   UNL     1      10.942 -10.516  11.013  1.00  0.00     0.000 A 
ENDBRANCH   6   7
ENDBRANCH   1   6
TORSDOF 4
ENDMDL
MODEL 4
REMARK VINA RESULT:      -3.7     11.640     13.408
REMARK SMILES O=C(O)CCc1ccccc1
REMARK SMILES IDX 4 1 2 2 1 3 3 4 5 6 6 7 7 8 11 9 8 10 10 11 9 12
REMARK H PARENT 3 5
REMARK Flexibility Score: inf
ROOT
ATOM      1  C   UNL     1       8.179  -6.110  11.400  1.00  0.00     0.127 C 
ENDROOT
BRANCH   1   2
ATOM      2  C   UNL     1       8.037  -4.637  11.324  1.00  0.00     0.303 C 
ATOM      3  O   UNL     1       7.618  -4.077  10.281  1.00  0.00    -0.252 OA
BRANCH   2   4
ATOM      4  O   UNL     1       8.363  -3.836  12.406  1.00  0.00    -0.481 OA
ATOM      5  H   UNL     1       7.763  -3.039  12.639  1.00  0.00     0.296 HD
ENDBRANCH   2   4
ENDBRANCH   1   2
BRANCH   1   6
ATOM      6  C   UNL     1       8.912  -6.576  10.179  1.00  0.00     0.047 C 
BRANCH   6   7
ATOM      7  C   UNL     1      10.212  -7.182  10.461  1.00  0.00    -0.047 A 
ATOM      8  C   UNL     1      10.363  -8.549  10.473  1.00  0.00     0.004 A 
ATOM      9  C   UNL     1      11.292  -6.368  10.713  1.00  0.00     0.004 A 
ATOM     10  C   UNL     1      11.634  -9.059  10.749  1.00  0.00     0.000 A 
ATOM     11  C   UNL     1      12.548  -6.873  10.985  1.00  0.00     0.000 A 
ATOM     12  C   UNL     1      12.707  -8.242  11.001  1.00  0.00     0.000 A 
ENDBRANCH   6   7
ENDBRANCH   1   6
TORSDOF 4
ENDMDL
MODEL 5
REMARK VINA RESULT:      -3.7      2.916      4.709
REMARK SMILES O=C(O)CCc1ccccc1
REMARK SMILES IDX 4 1 2 2 1 3 3 4 5 6 6 7 7 8 11 9 8 10 10 11 9 12
REMARK H PARENT 3 5
REMARK Flexibility Score: inf
ROOT
ATOM      1  C   UNL     1       5.501   2.937   0.083  1.00  0.00     0.127 C 
ENDROOT
BRANCH   1   2
ATOM      2  C   UNL     1       6.187   4.051   0.780  1.00  0.00     0.303 C 
ATOM      3  O   UNL     1       7.023   4.775   0.185  1.00  0.00    -0.252 OA
BRANCH   2   4
ATOM      4  O   UNL     1       5.922   4.325   2.112  1.00  0.00    -0.481 OA
ATOM      5  H   UNL     1       6.560   4.931   2.635  1.00  0.00     0.296 HD
ENDBRANCH   2   4
ENDBRANCH   1   2
BRANCH   1   6
ATOM      6  C   UNL     1       4.808   2.095   1.110  1.00  0.00     0.047 C 
BRANCH   6   7
ATOM      7  C   UNL     1       5.558   0.905   1.507  1.00  0.00    -0.047 A 
ATOM      8  C   UNL     1       6.815   1.016   2.055  1.00  0.00     0.004 A 
ATOM      9  C   UNL     1       4.992  -0.336   1.330  1.00  0.00     0.004 A 
ATOM     10  C   UNL     1       7.473  -0.163   2.413  1.00  0.00     0.000 A 
ATOM     11  C   UNL     1       5.644  -1.501   1.684  1.00  0.00     0.000 A 
ATOM     12  C   UNL     1       6.904  -1.398   2.233  1.00  0.00     0.000 A 
ENDBRANCH   6   7
ENDBRANCH   1   6
TORSDOF 4
ENDMDL
