@<TRIPOS>MOLECULE
/home/cewinharhar/GITHUB/reincatalyze/data/processed/docking_pred/2023-Apr-26-1657_maxeplen10_maxtrainstep1000_exh32_gamma099_lrac9e-4_lrcr1e-3/37a8b72800122466266a4bb22cdda1f56f02b914_ligand_2.pdbqt
 12 12 0 0 0
SMALL
GASTEIGER

@<TRIPOS>ATOM
      1  C          6.3520   -0.5440    2.7330 C.3     1  UNL1        0.1270
      2  C          7.1170   -1.5040    1.9020 C.2     1  UNL1        0.3030
      3  O          8.2810   -1.2410    1.5100 O.2     1  UNL1       -0.2520
      4  O          6.5660   -2.7200    1.5330 O.3     1  UNL1       -0.4810
      5  H          6.8870   -3.1760    0.6740 H       1  UNL1        0.2960
      6  C          5.2370    0.0140    1.9020 C.3     1  UNL1        0.0470
      7  C          5.5300    1.3220    1.3170 C.2     1  UNL1       -0.0470
      8  C          4.8480    1.7650    0.2080 C.2     1  UNL1        0.0040
      9  C          6.4980    2.1130    1.8920 C.2     1  UNL1        0.0040
     10  C          5.1780    3.0250   -0.2960 C.2     1  UNL1        0.0000
     11  C          6.8240    3.3580    1.3920 C.2     1  UNL1        0.0000
     12  C          6.1460    3.8090    0.2800 C.2     1  UNL1        0.0000
@<TRIPOS>BOND
     1    10     8    1
     2    10    12    2
     3     8     7    2
     4    12    11    1
     5     5     4    1
     6     7     9    1
     7     7     6    1
     8    11     9    2
     9     3     2    2
    10     4     2    1
    11     2     1    1
    12     6     1    1
