@<TRIPOS>MOLECULE
/home/cewinharhar/GITHUB/reincatalyze/data/processed/docking_pred/2023-Apr-26-1657_maxeplen10_maxtrainstep1000_exh32_gamma099_lrac9e-4_lrcr1e-3/37aabdb081a78d2f2d4d4e560ab17afff45a2586_ligand_2.pdbqt
 12 12 0 0 0
SMALL
GASTEIGER

@<TRIPOS>ATOM
      1  C          8.4290   -0.6500   -2.1000 C.3     1  UNL1        0.1270
      2  C          8.3880   -1.9060   -2.8850 C.2     1  UNL1        0.3030
      3  O          7.2960   -2.4170   -3.2390 O.2     1  UNL1       -0.2520
      4  O          9.5570   -2.5540   -3.2500 O.3     1  UNL1       -0.4810
      5  H         10.2030   -2.0940   -3.8980 H       1  UNL1        0.2960
      6  C          7.0530   -0.0560   -2.0900 C.3     1  UNL1        0.0470
      7  C          6.4800    0.0940   -0.7530 C.2     1  UNL1       -0.0470
      8  C          6.5990   -0.9100    0.1790 C.2     1  UNL1        0.0040
      9  C          5.8180    1.2570   -0.4330 C.2     1  UNL1        0.0040
     10  C          6.0280   -0.6980    1.4360 C.2     1  UNL1        0.0000
     11  C          5.2550    1.4650    0.8100 C.2     1  UNL1        0.0000
     12  C          5.3680    0.4640    1.7500 C.2     1  UNL1        0.0000
@<TRIPOS>BOND
     1     5     4    1
     2     4     2    1
     3     3     2    2
     4     2     1    1
     5     1     6    1
     6     6     7    1
     7     7     9    2
     8     7     8    1
     9     9    11    1
    10     8    10    2
    11    11    12    2
    12    10    12    1
