@<TRIPOS>MOLECULE
/home/cewinharhar/GITHUB/reincatalyze/data/processed/docking_pred/2023-Apr-26-1657_maxeplen10_maxtrainstep1000_exh32_gamma099_lrac9e-4_lrcr1e-3/37aabdb081a78d2f2d4d4e560ab17afff45a2586_ligand_2.pdbqt
 12 12 0 0 0
SMALL
GASTEIGER

@<TRIPOS>ATOM
      1  C          5.0380    1.7010    0.6490 C.3     1  UNL1        0.1270
      2  C          4.6040    1.0460    1.9060 C.2     1  UNL1        0.3030
      3  O          5.3380    0.2130    2.4920 O.2     1  UNL1       -0.2520
      4  O          3.3720    1.3360    2.4690 O.3     1  UNL1       -0.4810
      5  H          2.5250    0.9380    2.0540 H       1  UNL1        0.2960
      6  C          6.5330    1.7980    0.6600 C.3     1  UNL1        0.0470
      7  C          7.1860    1.0280   -0.3970 C.2     1  UNL1       -0.0470
      8  C          8.5280    1.1870   -0.6560 C.2     1  UNL1        0.0040
      9  C          6.4440    0.1340   -1.1340 C.2     1  UNL1        0.0040
     10  C          9.0860    0.4180   -1.6800 C.2     1  UNL1        0.0000
     11  C          6.9980   -0.6250   -2.1450 C.2     1  UNL1        0.0000
     12  C          8.3410   -0.4710   -2.4120 C.2     1  UNL1        0.0000
@<TRIPOS>BOND
     1    12    11    2
     2    12    10    1
     3    11     9    1
     4    10     8    2
     5     9     7    2
     6     8     7    1
     7     7     6    1
     8     1     6    1
     9     1     2    1
    10     2     4    1
    11     2     3    2
    12     5     4    1
