@<TRIPOS>MOLECULE
/home/cewinharhar/GITHUB/reincatalyze/data/processed/docking_pred/2023-Apr-26-1657_maxeplen10_maxtrainstep1000_exh32_gamma099_lrac9e-4_lrcr1e-3/37aabdb081a78d2f2d4d4e560ab17afff45a2586_ligand_2.pdbqt
 12 12 0 0 0
SMALL
GASTEIGER

@<TRIPOS>ATOM
      1  C          5.0200    1.7930    0.7280 C.3     1  UNL1        0.1270
      2  C          4.4850    1.1070    1.9270 C.2     1  UNL1        0.3030
      3  O          5.1290    0.1910    2.4950 O.2     1  UNL1       -0.2520
      4  O          3.2530    1.4600    2.4560 O.3     1  UNL1       -0.4810
      5  H          2.5950    0.7240    2.7270 H       1  UNL1        0.2960
      6  C          6.5170    1.7340    0.7810 C.3     1  UNL1        0.0470
      7  C          7.1220    0.9950   -0.3260 C.2     1  UNL1       -0.0470
      8  C          6.3870    0.0840   -1.0490 C.2     1  UNL1        0.0040
      9  C          8.4420    1.2210   -0.6410 C.2     1  UNL1        0.0040
     10  C          7.0300   -0.5850   -2.0930 C.2     1  UNL1        0.0000
     11  C          9.0760    0.5580   -1.6730 C.2     1  UNL1        0.0000
     12  C          8.3470   -0.3560   -2.4020 C.2     1  UNL1        0.0000
@<TRIPOS>BOND
     1    12    10    2
     2    12    11    1
     3    10     8    1
     4    11     9    2
     5     8     7    2
     6     9     7    1
     7     7     6    1
     8     1     6    1
     9     1     2    1
    10     2     4    1
    11     2     3    2
    12     4     5    1
