@<TRIPOS>MOLECULE
/home/cewinharhar/GITHUB/reincatalyze/data/processed/docking_pred/2023-Apr-26-1657_maxeplen10_maxtrainstep1000_exh32_gamma099_lrac9e-4_lrcr1e-3/37aabdb081a78d2f2d4d4e560ab17afff45a2586_ligand_2.pdbqt
 12 12 0 0 0
SMALL
GASTEIGER

@<TRIPOS>ATOM
      1  C          8.4800   -0.6430   -2.1040 C.3     1  UNL1        0.1270
      2  C          8.4920   -1.9100   -2.8730 C.2     1  UNL1        0.3030
      3  O          9.5580   -2.5460   -3.0610 O.2     1  UNL1       -0.2520
      4  O          7.3230   -2.4280   -3.4060 O.3     1  UNL1       -0.4810
      5  H          6.8690   -1.9410   -4.1830 H       1  UNL1        0.2960
      6  C          7.0850   -0.0970   -2.1190 C.3     1  UNL1        0.0470
      7  C          6.5070    0.0940   -0.7890 C.2     1  UNL1       -0.0470
      8  C          5.8390    1.2540   -0.4730 C.2     1  UNL1        0.0040
      9  C          6.6370   -0.9050    0.1480 C.2     1  UNL1        0.0040
     10  C          5.3120    1.3670    0.8160 C.2     1  UNL1        0.0000
     11  C          6.1150   -0.7910    1.4220 C.2     1  UNL1        0.0000
     12  C          5.4450    0.3690    1.7480 C.2     1  UNL1        0.0000
@<TRIPOS>BOND
     1     5     4    1
     2     4     2    1
     3     3     2    2
     4     2     1    1
     5     6     1    1
     6     6     7    1
     7     7     8    2
     8     7     9    1
     9     8    10    1
    10     9    11    2
    11    10    12    2
    12    11    12    1
