MODEL 1
REMARK VINA RESULT:      -7.3      0.000      0.000
REMARK SMILES O=C(O)CCc1ccccc1
REMARK SMILES IDX 4 1 2 2 1 3 3 4 5 6 6 7 7 8 11 9 8 10 10 11 9 12
REMARK H PARENT 3 5
REMARK Flexibility Score: inf
ROOT
ATOM      1  C   UNL     1       8.480  -0.643  -2.104  1.00  0.00     0.127 C 
ENDROOT
BRANCH   1   2
ATOM      2  C   UNL     1       8.492  -1.910  -2.873  1.00  0.00     0.303 C 
ATOM      3  O   UNL     1       9.558  -2.546  -3.061  1.00  0.00    -0.252 OA
BRANCH   2   4
ATOM      4  O   UNL     1       7.323  -2.428  -3.406  1.00  0.00    -0.481 OA
ATOM      5  H   UNL     1       6.869  -1.941  -4.183  1.00  0.00     0.296 HD
ENDBRANCH   2   4
ENDBRANCH   1   2
BRANCH   1   6
ATOM      6  C   UNL     1       7.085  -0.097  -2.119  1.00  0.00     0.047 C 
BRANCH   6   7
ATOM      7  C   UNL     1       6.507   0.094  -0.789  1.00  0.00    -0.047 A 
ATOM      8  C   UNL     1       5.839   1.254  -0.473  1.00  0.00     0.004 A 
ATOM      9  C   UNL     1       6.637  -0.905   0.148  1.00  0.00     0.004 A 
ATOM     10  C   UNL     1       5.312   1.367   0.816  1.00  0.00     0.000 A 
ATOM     11  C   UNL     1       6.115  -0.791   1.422  1.00  0.00     0.000 A 
ATOM     12  C   UNL     1       5.445   0.369   1.748  1.00  0.00     0.000 A 
ENDBRANCH   6   7
ENDBRANCH   1   6
TORSDOF 4
ENDMDL
MODEL 2
REMARK VINA RESULT:      -7.2      0.110      1.731
REMARK SMILES O=C(O)CCc1ccccc1
REMARK SMILES IDX 4 1 2 2 1 3 3 4 5 6 6 7 7 8 11 9 8 10 10 11 9 12
REMARK H PARENT 3 5
REMARK Flexibility Score: inf
ROOT
ATOM      1  C   UNL     1       8.429  -0.650  -2.100  1.00  0.00     0.127 C 
ENDROOT
BRANCH   1   2
ATOM      2  C   UNL     1       8.388  -1.906  -2.885  1.00  0.00     0.303 C 
ATOM      3  O   UNL     1       7.296  -2.417  -3.239  1.00  0.00    -0.252 OA
BRANCH   2   4
ATOM      4  O   UNL     1       9.557  -2.554  -3.250  1.00  0.00    -0.481 OA
ATOM      5  H   UNL     1      10.203  -2.094  -3.898  1.00  0.00     0.296 HD
ENDBRANCH   2   4
ENDBRANCH   1   2
BRANCH   1   6
ATOM      6  C   UNL     1       7.053  -0.056  -2.090  1.00  0.00     0.047 C 
BRANCH   6   7
ATOM      7  C   UNL     1       6.480   0.094  -0.753  1.00  0.00    -0.047 A 
ATOM      8  C   UNL     1       6.599  -0.910   0.179  1.00  0.00     0.004 A 
ATOM      9  C   UNL     1       5.818   1.257  -0.433  1.00  0.00     0.004 A 
ATOM     10  C   UNL     1       6.028  -0.698   1.436  1.00  0.00     0.000 A 
ATOM     11  C   UNL     1       5.255   1.465   0.810  1.00  0.00     0.000 A 
ATOM     12  C   UNL     1       5.368   0.464   1.750  1.00  0.00     0.000 A 
ENDBRANCH   6   7
ENDBRANCH   1   6
TORSDOF 4
ENDMDL
MODEL 3
REMARK VINA RESULT:      -6.8      3.369      5.078
REMARK SMILES O=C(O)CCc1ccccc1
REMARK SMILES IDX 4 1 2 2 1 3 3 4 5 6 6 7 7 8 11 9 8 10 10 11 9 12
REMARK H PARENT 3 5
REMARK Flexibility Score: inf
ROOT
ATOM      1  C   UNL     1       5.020   1.793   0.728  1.00  0.00     0.127 C 
ENDROOT
BRANCH   1   2
ATOM      2  C   UNL     1       4.485   1.107   1.927  1.00  0.00     0.303 C 
ATOM      3  O   UNL     1       5.129   0.191   2.495  1.00  0.00    -0.252 OA
BRANCH   2   4
ATOM      4  O   UNL     1       3.253   1.460   2.456  1.00  0.00    -0.481 OA
ATOM      5  H   UNL     1       2.595   0.724   2.727  1.00  0.00     0.296 HD
ENDBRANCH   2   4
ENDBRANCH   1   2
BRANCH   1   6
ATOM      6  C   UNL     1       6.517   1.734   0.781  1.00  0.00     0.047 C 
BRANCH   6   7
ATOM      7  C   UNL     1       7.122   0.995  -0.326  1.00  0.00    -0.047 A 
ATOM      8  C   UNL     1       6.387   0.084  -1.049  1.00  0.00     0.004 A 
ATOM      9  C   UNL     1       8.442   1.221  -0.641  1.00  0.00     0.004 A 
ATOM     10  C   UNL     1       7.030  -0.585  -2.093  1.00  0.00     0.000 A 
ATOM     11  C   UNL     1       9.076   0.558  -1.673  1.00  0.00     0.000 A 
ATOM     12  C   UNL     1       8.347  -0.356  -2.402  1.00  0.00     0.000 A 
ENDBRANCH   6   7
ENDBRANCH   1   6
TORSDOF 4
ENDMDL
MODEL 4
REMARK VINA RESULT:      -6.7      3.332      5.015
REMARK SMILES O=C(O)CCc1ccccc1
REMARK SMILES IDX 4 1 2 2 1 3 3 4 5 6 6 7 7 8 11 9 8 10 10 11 9 12
REMARK H PARENT 3 5
REMARK Flexibility Score: inf
ROOT
ATOM      1  C   UNL     1       5.038   1.701   0.649  1.00  0.00     0.127 C 
ENDROOT
BRANCH   1   2
ATOM      2  C   UNL     1       4.604   1.046   1.906  1.00  0.00     0.303 C 
ATOM      3  O   UNL     1       5.338   0.213   2.492  1.00  0.00    -0.252 OA
BRANCH   2   4
ATOM      4  O   UNL     1       3.372   1.336   2.469  1.00  0.00    -0.481 OA
ATOM      5  H   UNL     1       2.525   0.938   2.054  1.00  0.00     0.296 HD
ENDBRANCH   2   4
ENDBRANCH   1   2
BRANCH   1   6
ATOM      6  C   UNL     1       6.533   1.798   0.660  1.00  0.00     0.047 C 
BRANCH   6   7
ATOM      7  C   UNL     1       7.186   1.028  -0.397  1.00  0.00    -0.047 A 
ATOM      8  C   UNL     1       8.528   1.187  -0.656  1.00  0.00     0.004 A 
ATOM      9  C   UNL     1       6.444   0.134  -1.134  1.00  0.00     0.004 A 
ATOM     10  C   UNL     1       9.086   0.418  -1.680  1.00  0.00     0.000 A 
ATOM     11  C   UNL     1       6.998  -0.625  -2.145  1.00  0.00     0.000 A 
ATOM     12  C   UNL     1       8.341  -0.471  -2.412  1.00  0.00     0.000 A 
ENDBRANCH   6   7
ENDBRANCH   1   6
TORSDOF 4
ENDMDL
MODEL 5
REMARK VINA RESULT:      -6.6      1.984      2.281
REMARK SMILES O=C(O)CCc1ccccc1
REMARK SMILES IDX 4 1 2 2 1 3 3 4 5 6 6 7 7 8 11 9 8 10 10 11 9 12
REMARK H PARENT 3 5
REMARK Flexibility Score: inf
ROOT
ATOM      1  C   UNL     1       8.254   0.368  -2.013  1.00  0.00     0.127 C 
ENDROOT
BRANCH   1   2
ATOM      2  C   UNL     1       9.443   0.412  -1.130  1.00  0.00     0.303 C 
ATOM      3  O   UNL     1       9.543  -0.348  -0.135  1.00  0.00    -0.252 OA
BRANCH   2   4
ATOM      4  O   UNL     1      10.480   1.296  -1.379  1.00  0.00    -0.481 OA
ATOM      5  H   UNL     1      10.433   1.904  -2.202  1.00  0.00     0.296 HD
ENDBRANCH   2   4
ENDBRANCH   1   2
BRANCH   1   6
ATOM      6  C   UNL     1       7.226  -0.515  -1.374  1.00  0.00     0.047 C 
BRANCH   6   7
ATOM      7  C   UNL     1       6.398   0.162  -0.377  1.00  0.00    -0.047 A 
ATOM      8  C   UNL     1       5.824   1.382  -0.650  1.00  0.00     0.004 A 
ATOM      9  C   UNL     1       6.194  -0.437   0.845  1.00  0.00     0.004 A 
ATOM     10  C   UNL     1       5.045   1.970   0.349  1.00  0.00     0.000 A 
ATOM     11  C   UNL     1       5.423   0.146   1.831  1.00  0.00     0.000 A 
ATOM     12  C   UNL     1       4.845   1.368   1.566  1.00  0.00     0.000 A 
ENDBRANCH   6   7
ENDBRANCH   1   6
TORSDOF 4
ENDMDL
