@<TRIPOS>MOLECULE
/home/cewinharhar/GITHUB/reincatalyze/data/processed/docking_pred/2023-Apr-26-1657_maxeplen10_maxtrainstep1000_exh32_gamma099_lrac9e-4_lrcr1e-3/37aabdb081a78d2f2d4d4e560ab17afff45a2586_ligand_2.pdbqt
 12 12 0 0 0
SMALL
GASTEIGER

@<TRIPOS>ATOM
      1  C          8.2540    0.3680   -2.0130 C.3     1  UNL1        0.1270
      2  C          9.4430    0.4120   -1.1300 C.2     1  UNL1        0.3030
      3  O          9.5430   -0.3480   -0.1350 O.2     1  UNL1       -0.2520
      4  O         10.4800    1.2960   -1.3790 O.3     1  UNL1       -0.4810
      5  H         10.4330    1.9040   -2.2020 H       1  UNL1        0.2960
      6  C          7.2260   -0.5150   -1.3740 C.3     1  UNL1        0.0470
      7  C          6.3980    0.1620   -0.3770 C.2     1  UNL1       -0.0470
      8  C          5.8240    1.3820   -0.6500 C.2     1  UNL1        0.0040
      9  C          6.1940   -0.4370    0.8450 C.2     1  UNL1        0.0040
     10  C          5.0450    1.9700    0.3490 C.2     1  UNL1        0.0000
     11  C          5.4230    0.1460    1.8310 C.2     1  UNL1        0.0000
     12  C          4.8450    1.3680    1.5660 C.2     1  UNL1        0.0000
@<TRIPOS>BOND
     1     5     4    1
     2     1     6    1
     3     1     2    1
     4     4     2    1
     5     6     7    1
     6     2     3    2
     7     8     7    2
     8     8    10    1
     9     7     9    1
    10    10    12    2
    11     9    11    2
    12    12    11    1
