@<TRIPOS>MOLECULE
/home/cewinharhar/GITHUB/reincatalyze/data/processed/docking_pred/2023-Apr-26-1657_maxeplen10_maxtrainstep1000_exh32_gamma099_lrac9e-4_lrcr1e-3/3b11ad51370e6150fddf32b3aa65dd5e24197163_ligand_2.pdbqt
 12 12 0 0 0
SMALL
GASTEIGER

@<TRIPOS>ATOM
      1  C          8.4320   -0.6080   -2.1440 C.3     1  UNL1        0.1270
      2  C          8.5000   -1.8620   -2.9310 C.2     1  UNL1        0.3030
      3  O          9.6020   -2.3960   -3.2110 O.2     1  UNL1       -0.2520
      4  O          7.3450   -2.4810   -3.3820 O.3     1  UNL1       -0.4810
      5  H          7.4070   -3.1670   -4.1390 H       1  UNL1        0.2960
      6  C          7.0070   -0.1470   -2.1140 C.3     1  UNL1        0.0470
      7  C          6.4660    0.0270   -0.7670 C.2     1  UNL1       -0.0470
      8  C          6.5980   -0.9640    0.1770 C.2     1  UNL1        0.0040
      9  C          5.8210    1.2000   -0.4500 C.2     1  UNL1        0.0040
     10  C          6.0580   -0.7280    1.4440 C.2     1  UNL1        0.0000
     11  C          5.2870    1.4310    0.8030 C.2     1  UNL1        0.0000
     12  C          5.4150    0.4430    1.7550 C.2     1  UNL1        0.0000
@<TRIPOS>BOND
     1     5     4    1
     2     4     2    1
     3     3     2    2
     4     2     1    1
     5     1     6    1
     6     6     7    1
     7     7     9    2
     8     7     8    1
     9     9    11    1
    10     8    10    2
    11    11    12    2
    12    10    12    1
