@<TRIPOS>MOLECULE
/home/cewinharhar/GITHUB/reincatalyze/data/processed/docking_pred/2023-Apr-26-1657_maxeplen10_maxtrainstep1000_exh32_gamma099_lrac9e-4_lrcr1e-3/3b11ad51370e6150fddf32b3aa65dd5e24197163_ligand_2.pdbqt
 12 12 0 0 0
SMALL
GASTEIGER

@<TRIPOS>ATOM
      1  C          5.5160    1.4820   -0.2640 C.3     1  UNL1        0.1270
      2  C          5.3290    1.8150    1.1680 C.2     1  UNL1        0.3030
      3  O          5.5490    2.9730    1.6010 O.2     1  UNL1       -0.2520
      4  O          4.9050    0.8530    2.0710 O.3     1  UNL1       -0.4810
      5  H          5.5400    0.0930    2.3290 H       1  UNL1        0.2960
      6  C          6.2990    0.2080   -0.3520 C.3     1  UNL1        0.0470
      7  C          7.4940    0.3010   -1.1890 C.2     1  UNL1       -0.0470
      8  C          7.4680   -0.1080   -2.5020 C.2     1  UNL1        0.0040
      9  C          8.6540    0.8090   -0.6490 C.2     1  UNL1        0.0040
     10  C          8.6460    0.0110   -3.2420 C.2     1  UNL1        0.0000
     11  C          9.8180    0.9260   -1.3830 C.2     1  UNL1        0.0000
     12  C          9.7990    0.5170   -2.6990 C.2     1  UNL1        0.0000
@<TRIPOS>BOND
     1    10    12    2
     2    10     8    1
     3    12    11    1
     4     8     7    2
     5    11     9    2
     6     7     9    1
     7     7     6    1
     8     6     1    1
     9     1     2    1
    10     2     3    2
    11     2     4    1
    12     4     5    1
