@<TRIPOS>MOLECULE
/home/cewinharhar/GITHUB/reincatalyze/data/processed/docking_pred/2023-Apr-26-1657_maxeplen10_maxtrainstep1000_exh32_gamma099_lrac9e-4_lrcr1e-3/3b11ad51370e6150fddf32b3aa65dd5e24197163_ligand_2.pdbqt
 12 12 0 0 0
SMALL
GASTEIGER

@<TRIPOS>ATOM
      1  C          8.5490    0.1860   -1.9500 C.3     1  UNL1        0.1270
      2  C          9.0420   -0.3750   -3.2300 C.2     1  UNL1        0.3030
      3  O          9.6160   -1.4920   -3.2720 O.2     1  UNL1       -0.2520
      4  O          8.8840    0.3190   -4.4180 O.3     1  UNL1       -0.4810
      5  H          8.5870   -0.1860   -5.2580 H       1  UNL1        0.2960
      6  C          7.0510    0.1690   -1.9760 C.3     1  UNL1        0.0470
      7  C          6.4330    0.2560   -0.6540 C.2     1  UNL1       -0.0470
      8  C          5.7200    1.3730   -0.2830 C.2     1  UNL1        0.0040
      9  C          6.5690   -0.7960    0.2220 C.2     1  UNL1        0.0040
     10  C          5.1560    1.3880    0.9950 C.2     1  UNL1        0.0000
     11  C          6.0110   -0.7800    1.4850 C.2     1  UNL1        0.0000
     12  C          5.2960    0.3360    1.8650 C.2     1  UNL1        0.0000
@<TRIPOS>BOND
     1     5     4    1
     2     4     2    1
     3     3     2    2
     4     2     1    1
     5     6     1    1
     6     6     7    1
     7     7     8    2
     8     7     9    1
     9     8    10    1
    10     9    11    2
    11    10    12    2
    12    11    12    1
