@<TRIPOS>MOLECULE
/home/cewinharhar/GITHUB/reincatalyze/data/processed/docking_pred/2023-Apr-26-1657_maxeplen10_maxtrainstep1000_exh32_gamma099_lrac9e-4_lrcr1e-3/3b11ad51370e6150fddf32b3aa65dd5e24197163_ligand_2.pdbqt
 12 12 0 0 0
SMALL
GASTEIGER

@<TRIPOS>ATOM
      1  C          8.4850    0.2990   -1.9790 C.3     1  UNL1        0.1270
      2  C          9.0950   -0.2430   -3.2170 C.2     1  UNL1        0.3030
      3  O          9.7440   -1.3190   -3.2050 O.2     1  UNL1       -0.2520
      4  O          8.9650    0.4250   -4.4230 O.3     1  UNL1       -0.4810
      5  H          8.4410   -0.0150   -5.1850 H       1  UNL1        0.2960
      6  C          7.0910   -0.2370   -1.8680 C.3     1  UNL1        0.0470
      7  C          6.4410    0.0580   -0.5920 C.2     1  UNL1       -0.0470
      8  C          6.4750   -0.8490    0.4410 C.2     1  UNL1        0.0040
      9  C          5.7920    1.2600   -0.4310 C.2     1  UNL1        0.0040
     10  C          5.8340   -0.5010    1.6320 C.2     1  UNL1        0.0000
     11  C          5.1580    1.6030    0.7470 C.2     1  UNL1        0.0000
     12  C          5.1870    0.7000    1.7860 C.2     1  UNL1        0.0000
@<TRIPOS>BOND
     1     5     4    1
     2     4     2    1
     3     2     3    2
     4     2     1    1
     5     1     6    1
     6     6     7    1
     7     7     9    2
     8     7     8    1
     9     9    11    1
    10     8    10    2
    11    11    12    2
    12    10    12    1
