@<TRIPOS>MOLECULE
/home/cewinharhar/GITHUB/reincatalyze/data/processed/docking_pred/2023-Apr-26-1657_maxeplen10_maxtrainstep1000_exh32_gamma099_lrac9e-4_lrcr1e-3/3b11ad51370e6150fddf32b3aa65dd5e24197163_ligand_2.pdbqt
 12 12 0 0 0
SMALL
GASTEIGER

@<TRIPOS>ATOM
      1  C          8.4650   -0.6500   -2.0590 C.3     1  UNL1        0.1270
      2  C          8.5100   -1.8610   -2.9120 C.2     1  UNL1        0.3030
      3  O          9.6020   -2.3940   -3.2290 O.2     1  UNL1       -0.2520
      4  O          7.3430   -2.4400   -3.3840 O.3     1  UNL1       -0.4810
      5  H          6.5700   -2.6100   -2.7350 H       1  UNL1        0.2960
      6  C          7.0710   -0.1020   -2.0930 C.3     1  UNL1        0.0470
      7  C          6.4820    0.1060   -0.7710 C.2     1  UNL1       -0.0470
      8  C          5.8100    1.2690   -0.4750 C.2     1  UNL1        0.0040
      9  C          6.6030   -0.8800    0.1810 C.2     1  UNL1        0.0040
     10  C          5.2720    1.3990    0.8070 C.2     1  UNL1        0.0000
     11  C          6.0710   -0.7500    1.4480 C.2     1  UNL1        0.0000
     12  C          5.3970    0.4130    1.7520 C.2     1  UNL1        0.0000
@<TRIPOS>BOND
     1     4     2    1
     2     4     5    1
     3     3     2    2
     4     2     1    1
     5     6     1    1
     6     6     7    1
     7     7     8    2
     8     7     9    1
     9     8    10    1
    10     9    11    2
    11    10    12    2
    12    11    12    1
