MODEL 1
REMARK VINA RESULT:      -7.1      0.000      0.000
REMARK SMILES O=C(O)CCc1ccccc1
REMARK SMILES IDX 4 1 2 2 1 3 3 4 5 6 6 7 7 8 11 9 8 10 10 11 9 12
REMARK H PARENT 3 5
REMARK Flexibility Score: inf
ROOT
ATOM      1  C   UNL     1       8.465  -0.650  -2.059  1.00  0.00     0.127 C 
ENDROOT
BRANCH   1   2
ATOM      2  C   UNL     1       8.510  -1.861  -2.912  1.00  0.00     0.303 C 
ATOM      3  O   UNL     1       9.602  -2.394  -3.229  1.00  0.00    -0.252 OA
BRANCH   2   4
ATOM      4  O   UNL     1       7.343  -2.440  -3.384  1.00  0.00    -0.481 OA
ATOM      5  H   UNL     1       6.570  -2.610  -2.735  1.00  0.00     0.296 HD
ENDBRANCH   2   4
ENDBRANCH   1   2
BRANCH   1   6
ATOM      6  C   UNL     1       7.071  -0.102  -2.093  1.00  0.00     0.047 C 
BRANCH   6   7
ATOM      7  C   UNL     1       6.482   0.106  -0.771  1.00  0.00    -0.047 A 
ATOM      8  C   UNL     1       5.810   1.269  -0.475  1.00  0.00     0.004 A 
ATOM      9  C   UNL     1       6.603  -0.880   0.181  1.00  0.00     0.004 A 
ATOM     10  C   UNL     1       5.272   1.399   0.807  1.00  0.00     0.000 A 
ATOM     11  C   UNL     1       6.071  -0.750   1.448  1.00  0.00     0.000 A 
ATOM     12  C   UNL     1       5.397   0.413   1.752  1.00  0.00     0.000 A 
ENDBRANCH   6   7
ENDBRANCH   1   6
TORSDOF 4
ENDMDL
MODEL 2
REMARK VINA RESULT:      -7.1      0.061      1.438
REMARK SMILES O=C(O)CCc1ccccc1
REMARK SMILES IDX 4 1 2 2 1 3 3 4 5 6 6 7 7 8 11 9 8 10 10 11 9 12
REMARK H PARENT 3 5
REMARK Flexibility Score: inf
ROOT
ATOM      1  C   UNL     1       8.432  -0.608  -2.144  1.00  0.00     0.127 C 
ENDROOT
BRANCH   1   2
ATOM      2  C   UNL     1       8.500  -1.862  -2.931  1.00  0.00     0.303 C 
ATOM      3  O   UNL     1       9.602  -2.396  -3.211  1.00  0.00    -0.252 OA
BRANCH   2   4
ATOM      4  O   UNL     1       7.345  -2.481  -3.382  1.00  0.00    -0.481 OA
ATOM      5  H   UNL     1       7.407  -3.167  -4.139  1.00  0.00     0.296 HD
ENDBRANCH   2   4
ENDBRANCH   1   2
BRANCH   1   6
ATOM      6  C   UNL     1       7.007  -0.147  -2.114  1.00  0.00     0.047 C 
BRANCH   6   7
ATOM      7  C   UNL     1       6.466   0.027  -0.767  1.00  0.00    -0.047 A 
ATOM      8  C   UNL     1       6.598  -0.964   0.177  1.00  0.00     0.004 A 
ATOM      9  C   UNL     1       5.821   1.200  -0.450  1.00  0.00     0.004 A 
ATOM     10  C   UNL     1       6.058  -0.728   1.444  1.00  0.00     0.000 A 
ATOM     11  C   UNL     1       5.287   1.431   0.803  1.00  0.00     0.000 A 
ATOM     12  C   UNL     1       5.415   0.443   1.755  1.00  0.00     0.000 A 
ENDBRANCH   6   7
ENDBRANCH   1   6
TORSDOF 4
ENDMDL
MODEL 3
REMARK VINA RESULT:      -6.8      1.140      1.910
REMARK SMILES O=C(O)CCc1ccccc1
REMARK SMILES IDX 4 1 2 2 1 3 3 4 5 6 6 7 7 8 11 9 8 10 10 11 9 12
REMARK H PARENT 3 5
REMARK Flexibility Score: inf
ROOT
ATOM      1  C   UNL     1       8.485   0.299  -1.979  1.00  0.00     0.127 C 
ENDROOT
BRANCH   1   2
ATOM      2  C   UNL     1       9.095  -0.243  -3.217  1.00  0.00     0.303 C 
ATOM      3  O   UNL     1       9.744  -1.319  -3.205  1.00  0.00    -0.252 OA
BRANCH   2   4
ATOM      4  O   UNL     1       8.965   0.425  -4.423  1.00  0.00    -0.481 OA
ATOM      5  H   UNL     1       8.441  -0.015  -5.185  1.00  0.00     0.296 HD
ENDBRANCH   2   4
ENDBRANCH   1   2
BRANCH   1   6
ATOM      6  C   UNL     1       7.091  -0.237  -1.868  1.00  0.00     0.047 C 
BRANCH   6   7
ATOM      7  C   UNL     1       6.441   0.058  -0.592  1.00  0.00    -0.047 A 
ATOM      8  C   UNL     1       6.475  -0.849   0.441  1.00  0.00     0.004 A 
ATOM      9  C   UNL     1       5.792   1.260  -0.431  1.00  0.00     0.004 A 
ATOM     10  C   UNL     1       5.834  -0.501   1.632  1.00  0.00     0.000 A 
ATOM     11  C   UNL     1       5.158   1.603   0.747  1.00  0.00     0.000 A 
ATOM     12  C   UNL     1       5.187   0.700   1.786  1.00  0.00     0.000 A 
ENDBRANCH   6   7
ENDBRANCH   1   6
TORSDOF 4
ENDMDL
MODEL 4
REMARK VINA RESULT:      -6.7      1.082      1.186
REMARK SMILES O=C(O)CCc1ccccc1
REMARK SMILES IDX 4 1 2 2 1 3 3 4 5 6 6 7 7 8 11 9 8 10 10 11 9 12
REMARK H PARENT 3 5
REMARK Flexibility Score: inf
ROOT
ATOM      1  C   UNL     1       8.549   0.186  -1.950  1.00  0.00     0.127 C 
ENDROOT
BRANCH   1   2
ATOM      2  C   UNL     1       9.042  -0.375  -3.230  1.00  0.00     0.303 C 
ATOM      3  O   UNL     1       9.616  -1.492  -3.272  1.00  0.00    -0.252 OA
BRANCH   2   4
ATOM      4  O   UNL     1       8.884   0.319  -4.418  1.00  0.00    -0.481 OA
ATOM      5  H   UNL     1       8.587  -0.186  -5.258  1.00  0.00     0.296 HD
ENDBRANCH   2   4
ENDBRANCH   1   2
BRANCH   1   6
ATOM      6  C   UNL     1       7.051   0.169  -1.976  1.00  0.00     0.047 C 
BRANCH   6   7
ATOM      7  C   UNL     1       6.433   0.256  -0.654  1.00  0.00    -0.047 A 
ATOM      8  C   UNL     1       5.720   1.373  -0.283  1.00  0.00     0.004 A 
ATOM      9  C   UNL     1       6.569  -0.796   0.222  1.00  0.00     0.004 A 
ATOM     10  C   UNL     1       5.156   1.388   0.995  1.00  0.00     0.000 A 
ATOM     11  C   UNL     1       6.011  -0.780   1.485  1.00  0.00     0.000 A 
ATOM     12  C   UNL     1       5.296   0.336   1.865  1.00  0.00     0.000 A 
ENDBRANCH   6   7
ENDBRANCH   1   6
TORSDOF 4
ENDMDL
MODEL 5
REMARK VINA RESULT:      -6.6      3.323      5.109
REMARK SMILES O=C(O)CCc1ccccc1
REMARK SMILES IDX 4 1 2 2 1 3 3 4 5 6 6 7 7 8 11 9 8 10 10 11 9 12
REMARK H PARENT 3 5
REMARK Flexibility Score: inf
ROOT
ATOM      1  C   UNL     1       5.516   1.482  -0.264  1.00  0.00     0.127 C 
ENDROOT
BRANCH   1   2
ATOM      2  C   UNL     1       5.329   1.815   1.168  1.00  0.00     0.303 C 
ATOM      3  O   UNL     1       5.549   2.973   1.601  1.00  0.00    -0.252 OA
BRANCH   2   4
ATOM      4  O   UNL     1       4.905   0.853   2.071  1.00  0.00    -0.481 OA
ATOM      5  H   UNL     1       5.540   0.093   2.329  1.00  0.00     0.296 HD
ENDBRANCH   2   4
ENDBRANCH   1   2
BRANCH   1   6
ATOM      6  C   UNL     1       6.299   0.208  -0.352  1.00  0.00     0.047 C 
BRANCH   6   7
ATOM      7  C   UNL     1       7.494   0.301  -1.189  1.00  0.00    -0.047 A 
ATOM      8  C   UNL     1       7.468  -0.108  -2.502  1.00  0.00     0.004 A 
ATOM      9  C   UNL     1       8.654   0.809  -0.649  1.00  0.00     0.004 A 
ATOM     10  C   UNL     1       8.646   0.011  -3.242  1.00  0.00     0.000 A 
ATOM     11  C   UNL     1       9.818   0.926  -1.383  1.00  0.00     0.000 A 
ATOM     12  C   UNL     1       9.799   0.517  -2.699  1.00  0.00     0.000 A 
ENDBRANCH   6   7
ENDBRANCH   1   6
TORSDOF 4
ENDMDL
