@<TRIPOS>MOLECULE
/home/cewinharhar/GITHUB/reincatalyze/data/processed/docking_pred/2023-Apr-26-1657_maxeplen10_maxtrainstep1000_exh32_gamma099_lrac9e-4_lrcr1e-3/3b29dc4ebb7ee5049f43ecb42d98a580ffb6b5da_ligand_2.pdbqt
 12 12 0 0 0
SMALL
GASTEIGER

@<TRIPOS>ATOM
      1  C          8.4540   -0.6210   -2.1210 C.3     1  UNL1        0.1270
      2  C          8.4950   -1.8880   -2.8890 C.2     1  UNL1        0.3030
      3  O          9.5790   -2.4860   -3.1010 O.2     1  UNL1       -0.2520
      4  O          7.3340   -2.4480   -3.3970 O.3     1  UNL1       -0.4810
      5  H          6.6350   -1.8420   -3.8350 H       1  UNL1        0.2960
      6  C          7.0470   -0.1070   -2.1350 C.3     1  UNL1        0.0470
      7  C          6.4760    0.1000   -0.8060 C.2     1  UNL1       -0.0470
      8  C          5.8090    1.2640   -0.5000 C.2     1  UNL1        0.0040
      9  C          6.6100   -0.8860    0.1440 C.2     1  UNL1        0.0040
     10  C          5.2890    1.3940    0.7890 C.2     1  UNL1        0.0000
     11  C          6.0940   -0.7560    1.4180 C.2     1  UNL1        0.0000
     12  C          5.4260    0.4070    1.7330 C.2     1  UNL1        0.0000
@<TRIPOS>BOND
     1     5     4    1
     2     4     2    1
     3     3     2    2
     4     2     1    1
     5     6     1    1
     6     6     7    1
     7     7     8    2
     8     7     9    1
     9     8    10    1
    10     9    11    2
    11    10    12    2
    12    11    12    1
