MODEL 1
REMARK VINA RESULT:      -7.3      0.000      0.000
REMARK SMILES O=C(O)CCc1ccccc1
REMARK SMILES IDX 4 1 2 2 1 3 3 4 5 6 6 7 7 8 11 9 8 10 10 11 9 12
REMARK H PARENT 3 5
REMARK Flexibility Score: inf
ROOT
ATOM      1  C   UNL     1       8.454  -0.621  -2.121  1.00  0.00     0.127 C 
ENDROOT
BRANCH   1   2
ATOM      2  C   UNL     1       8.495  -1.888  -2.889  1.00  0.00     0.303 C 
ATOM      3  O   UNL     1       9.579  -2.486  -3.101  1.00  0.00    -0.252 OA
BRANCH   2   4
ATOM      4  O   UNL     1       7.334  -2.448  -3.397  1.00  0.00    -0.481 OA
ATOM      5  H   UNL     1       6.635  -1.842  -3.835  1.00  0.00     0.296 HD
ENDBRANCH   2   4
ENDBRANCH   1   2
BRANCH   1   6
ATOM      6  C   UNL     1       7.047  -0.107  -2.135  1.00  0.00     0.047 C 
BRANCH   6   7
ATOM      7  C   UNL     1       6.476   0.100  -0.806  1.00  0.00    -0.047 A 
ATOM      8  C   UNL     1       5.809   1.264  -0.500  1.00  0.00     0.004 A 
ATOM      9  C   UNL     1       6.610  -0.886   0.144  1.00  0.00     0.004 A 
ATOM     10  C   UNL     1       5.289   1.394   0.789  1.00  0.00     0.000 A 
ATOM     11  C   UNL     1       6.094  -0.756   1.418  1.00  0.00     0.000 A 
ATOM     12  C   UNL     1       5.426   0.407   1.733  1.00  0.00     0.000 A 
ENDBRANCH   6   7
ENDBRANCH   1   6
TORSDOF 4
ENDMDL
MODEL 2
REMARK VINA RESULT:      -7.3      0.064      1.437
REMARK SMILES O=C(O)CCc1ccccc1
REMARK SMILES IDX 4 1 2 2 1 3 3 4 5 6 6 7 7 8 11 9 8 10 10 11 9 12
REMARK H PARENT 3 5
REMARK Flexibility Score: inf
ROOT
ATOM      1  C   UNL     1       8.439  -0.563  -2.223  1.00  0.00     0.127 C 
ENDROOT
BRANCH   1   2
ATOM      2  C   UNL     1       8.481  -1.871  -2.919  1.00  0.00     0.303 C 
ATOM      3  O   UNL     1       9.565  -2.483  -3.088  1.00  0.00    -0.252 OA
BRANCH   2   4
ATOM      4  O   UNL     1       7.322  -2.455  -3.405  1.00  0.00    -0.481 OA
ATOM      5  H   UNL     1       6.976  -3.315  -2.971  1.00  0.00     0.296 HD
ENDBRANCH   2   4
ENDBRANCH   1   2
BRANCH   1   6
ATOM      6  C   UNL     1       7.015  -0.099  -2.179  1.00  0.00     0.047 C 
BRANCH   6   7
ATOM      7  C   UNL     1       6.485   0.066  -0.827  1.00  0.00    -0.047 A 
ATOM      8  C   UNL     1       6.609  -0.938   0.105  1.00  0.00     0.004 A 
ATOM      9  C   UNL     1       5.858   1.244  -0.491  1.00  0.00     0.004 A 
ATOM     10  C   UNL     1       6.080  -0.710   1.378  1.00  0.00     0.000 A 
ATOM     11  C   UNL     1       5.335   1.467   0.767  1.00  0.00     0.000 A 
ATOM     12  C   UNL     1       5.455   0.466   1.707  1.00  0.00     0.000 A 
ENDBRANCH   6   7
ENDBRANCH   1   6
TORSDOF 4
ENDMDL
MODEL 3
REMARK VINA RESULT:      -6.7      3.372      5.082
REMARK SMILES O=C(O)CCc1ccccc1
REMARK SMILES IDX 4 1 2 2 1 3 3 4 5 6 6 7 7 8 11 9 8 10 10 11 9 12
REMARK H PARENT 3 5
REMARK Flexibility Score: inf
ROOT
ATOM      1  C   UNL     1       4.990   1.792   0.707  1.00  0.00     0.127 C 
ENDROOT
BRANCH   1   2
ATOM      2  C   UNL     1       4.472   1.110   1.916  1.00  0.00     0.303 C 
ATOM      3  O   UNL     1       5.126   0.198   2.480  1.00  0.00    -0.252 OA
BRANCH   2   4
ATOM      4  O   UNL     1       3.246   1.462   2.459  1.00  0.00    -0.481 OA
ATOM      5  H   UNL     1       2.685   0.748   2.932  1.00  0.00     0.296 HD
ENDBRANCH   2   4
ENDBRANCH   1   2
BRANCH   1   6
ATOM      6  C   UNL     1       6.488   1.769   0.759  1.00  0.00     0.047 C 
BRANCH   6   7
ATOM      7  C   UNL     1       7.109   1.017  -0.329  1.00  0.00    -0.047 A 
ATOM      8  C   UNL     1       6.387   0.092  -1.047  1.00  0.00     0.004 A 
ATOM      9  C   UNL     1       8.432   1.244  -0.633  1.00  0.00     0.004 A 
ATOM     10  C   UNL     1       7.045  -0.589  -2.073  1.00  0.00     0.000 A 
ATOM     11  C   UNL     1       9.080   0.570  -1.648  1.00  0.00     0.000 A 
ATOM     12  C   UNL     1       8.364  -0.359  -2.371  1.00  0.00     0.000 A 
ENDBRANCH   6   7
ENDBRANCH   1   6
TORSDOF 4
ENDMDL
MODEL 4
REMARK VINA RESULT:      -6.5      1.884      2.841
REMARK SMILES O=C(O)CCc1ccccc1
REMARK SMILES IDX 4 1 2 2 1 3 3 4 5 6 6 7 7 8 11 9 8 10 10 11 9 12
REMARK H PARENT 3 5
REMARK Flexibility Score: inf
ROOT
ATOM      1  C   UNL     1       8.188  -1.546   1.123  1.00  0.00     0.127 C 
ENDROOT
BRANCH   1   2
ATOM      2  C   UNL     1       8.485  -2.769   0.343  1.00  0.00     0.303 C 
ATOM      3  O   UNL     1       9.124  -3.725   0.849  1.00  0.00    -0.252 OA
BRANCH   2   4
ATOM      4  O   UNL     1       8.066  -2.892  -0.972  1.00  0.00    -0.481 OA
ATOM      5  H   UNL     1       8.194  -3.784  -1.458  1.00  0.00     0.296 HD
ENDBRANCH   2   4
ENDBRANCH   1   2
BRANCH   1   6
ATOM      6  C   UNL     1       6.700  -1.410   1.237  1.00  0.00     0.047 C 
BRANCH   6   7
ATOM      7  C   UNL     1       6.174  -0.156   0.699  1.00  0.00    -0.047 A 
ATOM      8  C   UNL     1       6.430   0.213  -0.601  1.00  0.00     0.004 A 
ATOM      9  C   UNL     1       5.414   0.656   1.509  1.00  0.00     0.004 A 
ATOM     10  C   UNL     1       5.895   1.424  -1.048  1.00  0.00     0.000 A 
ATOM     11  C   UNL     1       4.887   1.852   1.065  1.00  0.00     0.000 A 
ATOM     12  C   UNL     1       5.139   2.230  -0.235  1.00  0.00     0.000 A 
ENDBRANCH   6   7
ENDBRANCH   1   6
TORSDOF 4
ENDMDL
MODEL 5
REMARK VINA RESULT:      -6.5      2.090      2.752
REMARK SMILES O=C(O)CCc1ccccc1
REMARK SMILES IDX 4 1 2 2 1 3 3 4 5 6 6 7 7 8 11 9 8 10 10 11 9 12
REMARK H PARENT 3 5
REMARK Flexibility Score: inf
ROOT
ATOM      1  C   UNL     1       8.508   0.696  -1.616  1.00  0.00     0.127 C 
ENDROOT
BRANCH   1   2
ATOM      2  C   UNL     1       9.666   0.298  -0.781  1.00  0.00     0.303 C 
ATOM      3  O   UNL     1       9.532  -0.500   0.179  1.00  0.00    -0.252 OA
BRANCH   2   4
ATOM      4  O   UNL     1      10.932   0.798  -1.038  1.00  0.00    -0.481 OA
ATOM      5  H   UNL     1      11.345   1.474  -0.390  1.00  0.00     0.296 HD
ENDBRANCH   2   4
ENDBRANCH   1   2
BRANCH   1   6
ATOM      6  C   UNL     1       7.363  -0.217  -1.299  1.00  0.00     0.047 C 
BRANCH   6   7
ATOM      7  C   UNL     1       6.449   0.305  -0.285  1.00  0.00    -0.047 A 
ATOM      8  C   UNL     1       6.202  -0.401   0.870  1.00  0.00     0.004 A 
ATOM      9  C   UNL     1       5.835   1.518  -0.494  1.00  0.00     0.004 A 
ATOM     10  C   UNL     1       5.319   0.158   1.796  1.00  0.00     0.000 A 
ATOM     11  C   UNL     1       4.962   2.070   0.422  1.00  0.00     0.000 A 
ATOM     12  C   UNL     1       4.709   1.368   1.581  1.00  0.00     0.000 A 
ENDBRANCH   6   7
ENDBRANCH   1   6
TORSDOF 4
ENDMDL
