@<TRIPOS>MOLECULE
/home/cewinharhar/GITHUB/reincatalyze/data/processed/docking_pred/2023-Apr-26-1657_maxeplen10_maxtrainstep1000_exh32_gamma099_lrac9e-4_lrcr1e-3/3b29dc4ebb7ee5049f43ecb42d98a580ffb6b5da_ligand_2.pdbqt
 12 12 0 0 0
SMALL
GASTEIGER

@<TRIPOS>ATOM
      1  C          8.4390   -0.5630   -2.2230 C.3     1  UNL1        0.1270
      2  C          8.4810   -1.8710   -2.9190 C.2     1  UNL1        0.3030
      3  O          9.5650   -2.4830   -3.0880 O.2     1  UNL1       -0.2520
      4  O          7.3220   -2.4550   -3.4050 O.3     1  UNL1       -0.4810
      5  H          6.9760   -3.3150   -2.9710 H       1  UNL1        0.2960
      6  C          7.0150   -0.0990   -2.1790 C.3     1  UNL1        0.0470
      7  C          6.4850    0.0660   -0.8270 C.2     1  UNL1       -0.0470
      8  C          6.6090   -0.9380    0.1050 C.2     1  UNL1        0.0040
      9  C          5.8580    1.2440   -0.4910 C.2     1  UNL1        0.0040
     10  C          6.0800   -0.7100    1.3780 C.2     1  UNL1        0.0000
     11  C          5.3350    1.4670    0.7670 C.2     1  UNL1        0.0000
     12  C          5.4550    0.4660    1.7070 C.2     1  UNL1        0.0000
@<TRIPOS>BOND
     1     4     5    1
     2     4     2    1
     3     3     2    2
     4     2     1    1
     5     1     6    1
     6     6     7    1
     7     7     9    2
     8     7     8    1
     9     9    11    1
    10     8    10    2
    11    11    12    2
    12    10    12    1
