@<TRIPOS>MOLECULE
/home/cewinharhar/GITHUB/reincatalyze/data/processed/docking_pred/2023-Apr-26-1657_maxeplen10_maxtrainstep1000_exh32_gamma099_lrac9e-4_lrcr1e-3/3b29dc4ebb7ee5049f43ecb42d98a580ffb6b5da_ligand_2.pdbqt
 12 12 0 0 0
SMALL
GASTEIGER

@<TRIPOS>ATOM
      1  C          8.1880   -1.5460    1.1230 C.3     1  UNL1        0.1270
      2  C          8.4850   -2.7690    0.3430 C.2     1  UNL1        0.3030
      3  O          9.1240   -3.7250    0.8490 O.2     1  UNL1       -0.2520
      4  O          8.0660   -2.8920   -0.9720 O.3     1  UNL1       -0.4810
      5  H          8.1940   -3.7840   -1.4580 H       1  UNL1        0.2960
      6  C          6.7000   -1.4100    1.2370 C.3     1  UNL1        0.0470
      7  C          6.1740   -0.1560    0.6990 C.2     1  UNL1       -0.0470
      8  C          6.4300    0.2130   -0.6010 C.2     1  UNL1        0.0040
      9  C          5.4140    0.6560    1.5090 C.2     1  UNL1        0.0040
     10  C          5.8950    1.4240   -1.0480 C.2     1  UNL1        0.0000
     11  C          4.8870    1.8520    1.0650 C.2     1  UNL1        0.0000
     12  C          5.1390    2.2300   -0.2350 C.2     1  UNL1        0.0000
@<TRIPOS>BOND
     1     5     4    1
     2    10     8    1
     3    10    12    2
     4     4     2    1
     5     8     7    2
     6    12    11    1
     7     2     3    2
     8     2     1    1
     9     7     6    1
    10     7     9    1
    11    11     9    2
    12     1     6    1
