@<TRIPOS>MOLECULE
/home/cewinharhar/GITHUB/reincatalyze/data/processed/docking_pred/2023-Apr-26-1657_maxeplen10_maxtrainstep1000_exh32_gamma099_lrac9e-4_lrcr1e-3/3b29dc4ebb7ee5049f43ecb42d98a580ffb6b5da_ligand_2.pdbqt
 12 12 0 0 0
SMALL
GASTEIGER

@<TRIPOS>ATOM
      1  C          8.5080    0.6960   -1.6160 C.3     1  UNL1        0.1270
      2  C          9.6660    0.2980   -0.7810 C.2     1  UNL1        0.3030
      3  O          9.5320   -0.5000    0.1790 O.2     1  UNL1       -0.2520
      4  O         10.9320    0.7980   -1.0380 O.3     1  UNL1       -0.4810
      5  H         11.3450    1.4740   -0.3900 H       1  UNL1        0.2960
      6  C          7.3630   -0.2170   -1.2990 C.3     1  UNL1        0.0470
      7  C          6.4490    0.3050   -0.2850 C.2     1  UNL1       -0.0470
      8  C          6.2020   -0.4010    0.8700 C.2     1  UNL1        0.0040
      9  C          5.8350    1.5180   -0.4940 C.2     1  UNL1        0.0040
     10  C          5.3190    0.1580    1.7960 C.2     1  UNL1        0.0000
     11  C          4.9620    2.0700    0.4220 C.2     1  UNL1        0.0000
     12  C          4.7090    1.3680    1.5810 C.2     1  UNL1        0.0000
@<TRIPOS>BOND
     1     1     6    1
     2     1     2    1
     3     6     7    1
     4     4     2    1
     5     4     5    1
     6     2     3    2
     7     9     7    2
     8     9    11    1
     9     7     8    1
    10    11    12    2
    11     8    10    2
    12    12    10    1
