@<TRIPOS>MOLECULE
/home/cewinharhar/GITHUB/reincatalyze/data/processed/docking_pred/2023-Apr-26-1657_maxeplen10_maxtrainstep1000_exh32_gamma099_lrac9e-4_lrcr1e-3/3b98b0574a09314ff34419eb6cee054edaec9098_ligand_2.pdbqt
 12 12 0 0 0
SMALL
GASTEIGER

@<TRIPOS>ATOM
      1  C          8.4430   -0.5560   -2.2450 C.3     1  UNL1        0.1270
      2  C          8.4990   -1.8650   -2.9380 C.2     1  UNL1        0.3030
      3  O          9.5910   -2.4570   -3.1220 O.2     1  UNL1       -0.2520
      4  O          7.3440   -2.4720   -3.4020 O.3     1  UNL1       -0.4810
      5  H          7.2670   -2.7080   -4.3960 H       1  UNL1        0.2960
      6  C          7.0140   -0.1060   -2.2040 C.3     1  UNL1        0.0470
      7  C          6.4820    0.0590   -0.8530 C.2     1  UNL1       -0.0470
      8  C          6.5780   -0.9570    0.0700 C.2     1  UNL1        0.0040
      9  C          5.8810    1.2470   -0.5080 C.2     1  UNL1        0.0040
     10  C          6.0480   -0.7290    1.3420 C.2     1  UNL1        0.0000
     11  C          5.3570    1.4710    0.7500 C.2     1  UNL1        0.0000
     12  C          5.4490    0.4580    1.6800 C.2     1  UNL1        0.0000
@<TRIPOS>BOND
     1     5     4    1
     2     4     2    1
     3     3     2    2
     4     2     1    1
     5     1     6    1
     6     6     7    1
     7     7     9    2
     8     7     8    1
     9     9    11    1
    10     8    10    2
    11    11    12    2
    12    10    12    1
