@<TRIPOS>MOLECULE
/home/cewinharhar/GITHUB/reincatalyze/data/processed/docking_pred/2023-Apr-26-1657_maxeplen10_maxtrainstep1000_exh32_gamma099_lrac9e-4_lrcr1e-3/3b98b0574a09314ff34419eb6cee054edaec9098_ligand_2.pdbqt
 12 12 0 0 0
SMALL
GASTEIGER

@<TRIPOS>ATOM
      1  C          7.2590   -1.3000   -2.2730 C.3     1  UNL1        0.1270
      2  C          8.7150   -1.3980   -2.5300 C.2     1  UNL1        0.3030
      3  O          9.5130   -0.5330   -2.0920 O.2     1  UNL1       -0.2520
      4  O          9.2360   -2.4510   -3.2650 O.3     1  UNL1       -0.4810
      5  H          9.9950   -2.2710   -3.9280 H       1  UNL1        0.2960
      6  C          6.9350    0.1250   -1.9400 C.3     1  UNL1        0.0470
      7  C          6.3250    0.3040   -0.6240 C.2     1  UNL1       -0.0470
      8  C          6.4500   -0.6630    0.3470 C.2     1  UNL1        0.0040
      9  C          5.6220    1.4570   -0.3610 C.2     1  UNL1        0.0040
     10  C          5.8420   -0.4240    1.5820 C.2     1  UNL1        0.0000
     11  C          5.0220    1.6910    0.8600 C.2     1  UNL1        0.0000
     12  C          5.1410    0.7270    1.8380 C.2     1  UNL1        0.0000
@<TRIPOS>BOND
     1     5     4    1
     2     4     2    1
     3     2     1    1
     4     2     3    2
     5     1     6    1
     6     6     7    1
     7     7     9    2
     8     7     8    1
     9     9    11    1
    10     8    10    2
    11    11    12    2
    12    10    12    1
