MODEL 1
REMARK VINA RESULT:      -7.3      0.000      0.000
REMARK SMILES O=C(O)CCc1ccccc1
REMARK SMILES IDX 4 1 2 2 1 3 3 4 5 6 6 7 7 8 11 9 8 10 10 11 9 12
REMARK H PARENT 3 5
REMARK Flexibility Score: inf
ROOT
ATOM      1  C   UNL     1       8.443  -0.556  -2.245  1.00  0.00     0.127 C 
ENDROOT
BRANCH   1   2
ATOM      2  C   UNL     1       8.499  -1.865  -2.938  1.00  0.00     0.303 C 
ATOM      3  O   UNL     1       9.591  -2.457  -3.122  1.00  0.00    -0.252 OA
BRANCH   2   4
ATOM      4  O   UNL     1       7.344  -2.472  -3.402  1.00  0.00    -0.481 OA
ATOM      5  H   UNL     1       7.267  -2.708  -4.396  1.00  0.00     0.296 HD
ENDBRANCH   2   4
ENDBRANCH   1   2
BRANCH   1   6
ATOM      6  C   UNL     1       7.014  -0.106  -2.204  1.00  0.00     0.047 C 
BRANCH   6   7
ATOM      7  C   UNL     1       6.482   0.059  -0.853  1.00  0.00    -0.047 A 
ATOM      8  C   UNL     1       6.578  -0.957   0.070  1.00  0.00     0.004 A 
ATOM      9  C   UNL     1       5.881   1.247  -0.508  1.00  0.00     0.004 A 
ATOM     10  C   UNL     1       6.048  -0.729   1.342  1.00  0.00     0.000 A 
ATOM     11  C   UNL     1       5.357   1.471   0.750  1.00  0.00     0.000 A 
ATOM     12  C   UNL     1       5.449   0.458   1.680  1.00  0.00     0.000 A 
ENDBRANCH   6   7
ENDBRANCH   1   6
TORSDOF 4
ENDMDL
MODEL 2
REMARK VINA RESULT:      -7.3      0.118      1.441
REMARK SMILES O=C(O)CCc1ccccc1
REMARK SMILES IDX 4 1 2 2 1 3 3 4 5 6 6 7 7 8 11 9 8 10 10 11 9 12
REMARK H PARENT 3 5
REMARK Flexibility Score: inf
ROOT
ATOM      1  C   UNL     1       8.405  -0.582  -2.189  1.00  0.00     0.127 C 
ENDROOT
BRANCH   1   2
ATOM      2  C   UNL     1       8.465  -1.863  -2.933  1.00  0.00     0.303 C 
ATOM      3  O   UNL     1       9.555  -2.462  -3.110  1.00  0.00    -0.252 OA
BRANCH   2   4
ATOM      4  O   UNL     1       7.317  -2.435  -3.455  1.00  0.00    -0.481 OA
ATOM      5  H   UNL     1       6.432  -1.923  -3.400  1.00  0.00     0.296 HD
ENDBRANCH   2   4
ENDBRANCH   1   2
BRANCH   1   6
ATOM      6  C   UNL     1       6.977  -0.134  -2.138  1.00  0.00     0.047 C 
BRANCH   6   7
ATOM      7  C   UNL     1       6.459   0.049  -0.783  1.00  0.00    -0.047 A 
ATOM      8  C   UNL     1       5.829   1.218  -0.423  1.00  0.00     0.004 A 
ATOM      9  C   UNL     1       6.605  -0.965   0.135  1.00  0.00     0.004 A 
ATOM     10  C   UNL     1       5.358   1.324   0.888  1.00  0.00     0.000 A 
ATOM     11  C   UNL     1       6.140  -0.859   1.430  1.00  0.00     0.000 A 
ATOM     12  C   UNL     1       5.508   0.309   1.799  1.00  0.00     0.000 A 
ENDBRANCH   6   7
ENDBRANCH   1   6
TORSDOF 4
ENDMDL
MODEL 3
REMARK VINA RESULT:      -7.2      0.626      1.584
REMARK SMILES O=C(O)CCc1ccccc1
REMARK SMILES IDX 4 1 2 2 1 3 3 4 5 6 6 7 7 8 11 9 8 10 10 11 9 12
REMARK H PARENT 3 5
REMARK Flexibility Score: inf
ROOT
ATOM      1  C   UNL     1       8.225  -0.837  -1.978  1.00  0.00     0.127 C 
ENDROOT
BRANCH   1   2
ATOM      2  C   UNL     1       8.373  -1.999  -2.886  1.00  0.00     0.303 C 
ATOM      3  O   UNL     1       9.496  -2.518  -3.101  1.00  0.00    -0.252 OA
BRANCH   2   4
ATOM      4  O   UNL     1       7.272  -2.544  -3.525  1.00  0.00    -0.481 OA
ATOM      5  H   UNL     1       7.349  -2.821  -4.508  1.00  0.00     0.296 HD
ENDBRANCH   2   4
ENDBRANCH   1   2
BRANCH   1   6
ATOM      6  C   UNL     1       7.505  -1.292  -0.745  1.00  0.00     0.047 C 
BRANCH   6   7
ATOM      7  C   UNL     1       6.631  -0.277  -0.159  1.00  0.00    -0.047 A 
ATOM      8  C   UNL     1       6.265   0.837  -0.878  1.00  0.00     0.004 A 
ATOM      9  C   UNL     1       6.172  -0.448   1.127  1.00  0.00     0.004 A 
ATOM     10  C   UNL     1       5.427   1.764  -0.255  1.00  0.00     0.000 A 
ATOM     11  C   UNL     1       5.344   0.470   1.741  1.00  0.00     0.000 A 
ATOM     12  C   UNL     1       4.973   1.589   1.028  1.00  0.00     0.000 A 
ENDBRANCH   6   7
ENDBRANCH   1   6
TORSDOF 4
ENDMDL
MODEL 4
REMARK VINA RESULT:      -7.1      0.851      1.040
REMARK SMILES O=C(O)CCc1ccccc1
REMARK SMILES IDX 4 1 2 2 1 3 3 4 5 6 6 7 7 8 11 9 8 10 10 11 9 12
REMARK H PARENT 3 5
REMARK Flexibility Score: inf
ROOT
ATOM      1  C   UNL     1       7.259  -1.300  -2.273  1.00  0.00     0.127 C 
ENDROOT
BRANCH   1   2
ATOM      2  C   UNL     1       8.715  -1.398  -2.530  1.00  0.00     0.303 C 
ATOM      3  O   UNL     1       9.513  -0.533  -2.092  1.00  0.00    -0.252 OA
BRANCH   2   4
ATOM      4  O   UNL     1       9.236  -2.451  -3.265  1.00  0.00    -0.481 OA
ATOM      5  H   UNL     1       9.995  -2.271  -3.928  1.00  0.00     0.296 HD
ENDBRANCH   2   4
ENDBRANCH   1   2
BRANCH   1   6
ATOM      6  C   UNL     1       6.935   0.125  -1.940  1.00  0.00     0.047 C 
BRANCH   6   7
ATOM      7  C   UNL     1       6.325   0.304  -0.624  1.00  0.00    -0.047 A 
ATOM      8  C   UNL     1       6.450  -0.663   0.347  1.00  0.00     0.004 A 
ATOM      9  C   UNL     1       5.622   1.457  -0.361  1.00  0.00     0.004 A 
ATOM     10  C   UNL     1       5.842  -0.424   1.582  1.00  0.00     0.000 A 
ATOM     11  C   UNL     1       5.022   1.691   0.860  1.00  0.00     0.000 A 
ATOM     12  C   UNL     1       5.141   0.727   1.838  1.00  0.00     0.000 A 
ENDBRANCH   6   7
ENDBRANCH   1   6
TORSDOF 4
ENDMDL
MODEL 5
REMARK VINA RESULT:      -6.8      3.377      5.059
REMARK SMILES O=C(O)CCc1ccccc1
REMARK SMILES IDX 4 1 2 2 1 3 3 4 5 6 6 7 7 8 11 9 8 10 10 11 9 12
REMARK H PARENT 3 5
REMARK Flexibility Score: inf
ROOT
ATOM      1  C   UNL     1       4.984   1.792   0.704  1.00  0.00     0.127 C 
ENDROOT
BRANCH   1   2
ATOM      2  C   UNL     1       4.470   1.108   1.914  1.00  0.00     0.303 C 
ATOM      3  O   UNL     1       5.126   0.195   2.473  1.00  0.00    -0.252 OA
BRANCH   2   4
ATOM      4  O   UNL     1       3.247   1.459   2.463  1.00  0.00    -0.481 OA
ATOM      5  H   UNL     1       3.207   1.777   3.435  1.00  0.00     0.296 HD
ENDBRANCH   2   4
ENDBRANCH   1   2
BRANCH   1   6
ATOM      6  C   UNL     1       6.481   1.776   0.754  1.00  0.00     0.047 C 
BRANCH   6   7
ATOM      7  C   UNL     1       7.105   1.023  -0.333  1.00  0.00    -0.047 A 
ATOM      8  C   UNL     1       6.379   0.110  -1.062  1.00  0.00     0.004 A 
ATOM      9  C   UNL     1       8.432   1.239  -0.624  1.00  0.00     0.004 A 
ATOM     10  C   UNL     1       7.039  -0.573  -2.086  1.00  0.00     0.000 A 
ATOM     11  C   UNL     1       9.083   0.563  -1.637  1.00  0.00     0.000 A 
ATOM     12  C   UNL     1       8.363  -0.354  -2.371  1.00  0.00     0.000 A 
ENDBRANCH   6   7
ENDBRANCH   1   6
TORSDOF 4
ENDMDL
