@<TRIPOS>MOLECULE
/home/cewinharhar/GITHUB/reincatalyze/data/processed/docking_pred/2023-Apr-26-1657_maxeplen10_maxtrainstep1000_exh32_gamma099_lrac9e-4_lrcr1e-3/3b98b0574a09314ff34419eb6cee054edaec9098_ligand_2.pdbqt
 12 12 0 0 0
SMALL
GASTEIGER

@<TRIPOS>ATOM
      1  C          8.2250   -0.8370   -1.9780 C.3     1  UNL1        0.1270
      2  C          8.3730   -1.9990   -2.8860 C.2     1  UNL1        0.3030
      3  O          9.4960   -2.5180   -3.1010 O.2     1  UNL1       -0.2520
      4  O          7.2720   -2.5440   -3.5250 O.3     1  UNL1       -0.4810
      5  H          7.3490   -2.8210   -4.5080 H       1  UNL1        0.2960
      6  C          7.5050   -1.2920   -0.7450 C.3     1  UNL1        0.0470
      7  C          6.6310   -0.2770   -0.1590 C.2     1  UNL1       -0.0470
      8  C          6.2650    0.8370   -0.8780 C.2     1  UNL1        0.0040
      9  C          6.1720   -0.4480    1.1270 C.2     1  UNL1        0.0040
     10  C          5.4270    1.7640   -0.2550 C.2     1  UNL1        0.0000
     11  C          5.3440    0.4700    1.7410 C.2     1  UNL1        0.0000
     12  C          4.9730    1.5890    1.0280 C.2     1  UNL1        0.0000
@<TRIPOS>BOND
     1     5     4    1
     2     4     2    1
     3     3     2    2
     4     2     1    1
     5     1     6    1
     6     8    10    1
     7     8     7    2
     8     6     7    1
     9    10    12    2
    10     7     9    1
    11    12    11    1
    12     9    11    2
