@<TRIPOS>MOLECULE
/home/cewinharhar/GITHUB/reincatalyze/data/processed/docking_pred/2023-Apr-26-1657_maxeplen10_maxtrainstep1000_exh32_gamma099_lrac9e-4_lrcr1e-3/3bf4b9a3f06cfa5433c2fd34b58c3faf64c233d9_ligand_2.pdbqt
 12 12 0 0 0
SMALL
GASTEIGER

@<TRIPOS>ATOM
      1  C          8.2010   -0.8120   -2.0260 C.3     1  UNL1        0.1270
      2  C          8.3710   -2.0100   -2.8820 C.2     1  UNL1        0.3030
      3  O          9.4970   -2.5430   -3.0400 O.2     1  UNL1       -0.2520
      4  O          7.2870   -2.5740   -3.5360 O.3     1  UNL1       -0.4810
      5  H          6.8270   -3.3930   -3.1280 H       1  UNL1        0.2960
      6  C          7.5710   -1.2420   -0.7360 C.3     1  UNL1        0.0470
      7  C          6.6670   -0.2500   -0.1560 C.2     1  UNL1       -0.0470
      8  C          6.2730    0.8510   -0.8800 C.2     1  UNL1        0.0040
      9  C          6.2080   -0.4290    1.1280 C.2     1  UNL1        0.0040
     10  C          5.4070    1.7570   -0.2640 C.2     1  UNL1        0.0000
     11  C          5.3530    0.4670    1.7370 C.2     1  UNL1        0.0000
     12  C          4.9540    1.5730    1.0180 C.2     1  UNL1        0.0000
@<TRIPOS>BOND
     1     4     5    1
     2     4     2    1
     3     3     2    2
     4     2     1    1
     5     1     6    1
     6     8    10    1
     7     8     7    2
     8     6     7    1
     9    10    12    2
    10     7     9    1
    11    12    11    1
    12     9    11    2
