@<TRIPOS>MOLECULE
/home/cewinharhar/GITHUB/reincatalyze/data/processed/docking_pred/2023-Apr-26-1657_maxeplen10_maxtrainstep1000_exh32_gamma099_lrac9e-4_lrcr1e-3/3bf4b9a3f06cfa5433c2fd34b58c3faf64c233d9_ligand_2.pdbqt
 12 12 0 0 0
SMALL
GASTEIGER

@<TRIPOS>ATOM
      1  C          5.4700    2.9090   -0.0020 C.3     1  UNL1        0.1270
      2  C          6.2610    3.8670    0.8070 C.2     1  UNL1        0.3030
      3  O          6.9380    4.7740    0.2630 O.2     1  UNL1       -0.2520
      4  O          6.2750    3.7870    2.1900 O.3     1  UNL1       -0.4810
      5  H          6.0370    4.6150    2.7420 H       1  UNL1        0.2960
      6  C          4.9330    1.8520    0.9130 C.3     1  UNL1        0.0470
      7  C          5.7140    0.6160    0.9170 C.2     1  UNL1       -0.0470
      8  C          6.3860    0.2050   -0.2110 C.2     1  UNL1        0.0040
      9  C          5.7740   -0.1370    2.0660 C.2     1  UNL1        0.0040
     10  C          7.1130   -0.9850   -0.1350 C.2     1  UNL1        0.0000
     11  C          6.4920   -1.3140    2.1400 C.2     1  UNL1        0.0000
     12  C          7.1680   -1.7330    1.0140 C.2     1  UNL1        0.0000
@<TRIPOS>BOND
     1     8    10    1
     2     8     7    2
     3    10    12    2
     4     1     2    1
     5     1     6    1
     6     3     2    2
     7     2     4    1
     8     6     7    1
     9     7     9    1
    10    12    11    1
    11     9    11    2
    12     4     5    1
