@<TRIPOS>MOLECULE
/home/cewinharhar/GITHUB/reincatalyze/data/processed/docking_pred/2023-Apr-26-1657_maxeplen10_maxtrainstep1000_exh32_gamma099_lrac9e-4_lrcr1e-3/3bf4b9a3f06cfa5433c2fd34b58c3faf64c233d9_ligand_2.pdbqt
 12 12 0 0 0
SMALL
GASTEIGER

@<TRIPOS>ATOM
      1  C          5.0390    1.7830    0.7430 C.3     1  UNL1        0.1270
      2  C          4.4800    1.0990    1.9330 C.2     1  UNL1        0.3030
      3  O          5.1040    0.1690    2.5020 O.2     1  UNL1       -0.2520
      4  O          3.2490    1.4680    2.4510 O.3     1  UNL1       -0.4810
      5  H          2.4820    0.7900    2.4520 H       1  UNL1        0.2960
      6  C          6.5330    1.6810    0.8000 C.3     1  UNL1        0.0470
      7  C          7.1200    0.9350   -0.3120 C.2     1  UNL1       -0.0470
      8  C          6.3970   -0.0300   -0.9720 C.2     1  UNL1        0.0040
      9  C          8.4120    1.2120   -0.6970 C.2     1  UNL1        0.0040
     10  C          7.0210   -0.7020   -2.0260 C.2     1  UNL1        0.0000
     11  C          9.0280    0.5470   -1.7390 C.2     1  UNL1        0.0000
     12  C          8.3100   -0.4230   -2.4050 C.2     1  UNL1        0.0000
@<TRIPOS>BOND
     1    12    10    2
     2    12    11    1
     3    10     8    1
     4    11     9    2
     5     8     7    2
     6     9     7    1
     7     7     6    1
     8     1     6    1
     9     1     2    1
    10     2     4    1
    11     2     3    2
    12     4     5    1
