MODEL 1
REMARK VINA RESULT:      -7.3      0.000      0.000
REMARK SMILES O=C(O)CCc1ccccc1
REMARK SMILES IDX 4 1 2 2 1 3 3 4 5 6 6 7 7 8 11 9 8 10 10 11 9 12
REMARK H PARENT 3 5
REMARK Flexibility Score: inf
ROOT
ATOM      1  C   UNL     1       8.422  -0.553  -2.274  1.00  0.00     0.127 C 
ENDROOT
BRANCH   1   2
ATOM      2  C   UNL     1       8.486  -1.868  -2.953  1.00  0.00     0.303 C 
ATOM      3  O   UNL     1       9.580  -2.463  -3.118  1.00  0.00    -0.252 OA
BRANCH   2   4
ATOM      4  O   UNL     1       7.337  -2.480  -3.426  1.00  0.00    -0.481 OA
ATOM      5  H   UNL     1       6.438  -2.268  -2.985  1.00  0.00     0.296 HD
ENDBRANCH   2   4
ENDBRANCH   1   2
BRANCH   1   6
ATOM      6  C   UNL     1       6.986  -0.134  -2.195  1.00  0.00     0.047 C 
BRANCH   6   7
ATOM      7  C   UNL     1       6.484   0.018  -0.830  1.00  0.00    -0.047 A 
ATOM      8  C   UNL     1       6.628  -0.996   0.089  1.00  0.00     0.004 A 
ATOM      9  C   UNL     1       5.865   1.192  -0.469  1.00  0.00     0.004 A 
ATOM     10  C   UNL     1       6.126  -0.781   1.374  1.00  0.00     0.000 A 
ATOM     11  C   UNL     1       5.369   1.402   0.802  1.00  0.00     0.000 A 
ATOM     12  C   UNL     1       5.509   0.392   1.729  1.00  0.00     0.000 A 
ENDBRANCH   6   7
ENDBRANCH   1   6
TORSDOF 4
ENDMDL
MODEL 2
REMARK VINA RESULT:      -7.3      0.148      1.734
REMARK SMILES O=C(O)CCc1ccccc1
REMARK SMILES IDX 4 1 2 2 1 3 3 4 5 6 6 7 7 8 11 9 8 10 10 11 9 12
REMARK H PARENT 3 5
REMARK Flexibility Score: inf
ROOT
ATOM      1  C   UNL     1       8.411  -0.619  -2.117  1.00  0.00     0.127 C 
ENDROOT
BRANCH   1   2
ATOM      2  C   UNL     1       8.384  -1.883  -2.890  1.00  0.00     0.303 C 
ATOM      3  O   UNL     1       7.298  -2.416  -3.229  1.00  0.00    -0.252 OA
BRANCH   2   4
ATOM      4  O   UNL     1       9.561  -2.514  -3.261  1.00  0.00    -0.481 OA
ATOM      5  H   UNL     1      10.239  -2.010  -3.838  1.00  0.00     0.296 HD
ENDBRANCH   2   4
ENDBRANCH   1   2
BRANCH   1   6
ATOM      6  C   UNL     1       7.022  -0.058  -2.084  1.00  0.00     0.047 C 
BRANCH   6   7
ATOM      7  C   UNL     1       6.470   0.085  -0.738  1.00  0.00    -0.047 A 
ATOM      8  C   UNL     1       5.820   1.237  -0.363  1.00  0.00     0.004 A 
ATOM      9  C   UNL     1       6.606  -0.952   0.156  1.00  0.00     0.004 A 
ATOM     10  C   UNL     1       5.317   1.304   0.938  1.00  0.00     0.000 A 
ATOM     11  C   UNL     1       6.109  -0.884   1.443  1.00  0.00     0.000 A 
ATOM     12  C   UNL     1       5.456   0.267   1.827  1.00  0.00     0.000 A 
ENDBRANCH   6   7
ENDBRANCH   1   6
TORSDOF 4
ENDMDL
MODEL 3
REMARK VINA RESULT:      -7.2      0.627      1.592
REMARK SMILES O=C(O)CCc1ccccc1
REMARK SMILES IDX 4 1 2 2 1 3 3 4 5 6 6 7 7 8 11 9 8 10 10 11 9 12
REMARK H PARENT 3 5
REMARK Flexibility Score: inf
ROOT
ATOM      1  C   UNL     1       8.201  -0.812  -2.026  1.00  0.00     0.127 C 
ENDROOT
BRANCH   1   2
ATOM      2  C   UNL     1       8.371  -2.010  -2.882  1.00  0.00     0.303 C 
ATOM      3  O   UNL     1       9.497  -2.543  -3.040  1.00  0.00    -0.252 OA
BRANCH   2   4
ATOM      4  O   UNL     1       7.287  -2.574  -3.536  1.00  0.00    -0.481 OA
ATOM      5  H   UNL     1       6.827  -3.393  -3.128  1.00  0.00     0.296 HD
ENDBRANCH   2   4
ENDBRANCH   1   2
BRANCH   1   6
ATOM      6  C   UNL     1       7.571  -1.242  -0.736  1.00  0.00     0.047 C 
BRANCH   6   7
ATOM      7  C   UNL     1       6.667  -0.250  -0.156  1.00  0.00    -0.047 A 
ATOM      8  C   UNL     1       6.273   0.851  -0.880  1.00  0.00     0.004 A 
ATOM      9  C   UNL     1       6.208  -0.429   1.128  1.00  0.00     0.004 A 
ATOM     10  C   UNL     1       5.407   1.757  -0.264  1.00  0.00     0.000 A 
ATOM     11  C   UNL     1       5.353   0.467   1.737  1.00  0.00     0.000 A 
ATOM     12  C   UNL     1       4.954   1.573   1.018  1.00  0.00     0.000 A 
ENDBRANCH   6   7
ENDBRANCH   1   6
TORSDOF 4
ENDMDL
MODEL 4
REMARK VINA RESULT:      -6.8      3.388      5.057
REMARK SMILES O=C(O)CCc1ccccc1
REMARK SMILES IDX 4 1 2 2 1 3 3 4 5 6 6 7 7 8 11 9 8 10 10 11 9 12
REMARK H PARENT 3 5
REMARK Flexibility Score: inf
ROOT
ATOM      1  C   UNL     1       5.039   1.783   0.743  1.00  0.00     0.127 C 
ENDROOT
BRANCH   1   2
ATOM      2  C   UNL     1       4.480   1.099   1.933  1.00  0.00     0.303 C 
ATOM      3  O   UNL     1       5.104   0.169   2.502  1.00  0.00    -0.252 OA
BRANCH   2   4
ATOM      4  O   UNL     1       3.249   1.468   2.451  1.00  0.00    -0.481 OA
ATOM      5  H   UNL     1       2.482   0.790   2.452  1.00  0.00     0.296 HD
ENDBRANCH   2   4
ENDBRANCH   1   2
BRANCH   1   6
ATOM      6  C   UNL     1       6.533   1.681   0.800  1.00  0.00     0.047 C 
BRANCH   6   7
ATOM      7  C   UNL     1       7.120   0.935  -0.312  1.00  0.00    -0.047 A 
ATOM      8  C   UNL     1       6.397  -0.030  -0.972  1.00  0.00     0.004 A 
ATOM      9  C   UNL     1       8.412   1.212  -0.697  1.00  0.00     0.004 A 
ATOM     10  C   UNL     1       7.021  -0.702  -2.026  1.00  0.00     0.000 A 
ATOM     11  C   UNL     1       9.028   0.547  -1.739  1.00  0.00     0.000 A 
ATOM     12  C   UNL     1       8.310  -0.423  -2.405  1.00  0.00     0.000 A 
ENDBRANCH   6   7
ENDBRANCH   1   6
TORSDOF 4
ENDMDL
MODEL 5
REMARK VINA RESULT:      -6.7      3.844      4.988
REMARK SMILES O=C(O)CCc1ccccc1
REMARK SMILES IDX 4 1 2 2 1 3 3 4 5 6 6 7 7 8 11 9 8 10 10 11 9 12
REMARK H PARENT 3 5
REMARK Flexibility Score: inf
ROOT
ATOM      1  C   UNL     1       5.470   2.909  -0.002  1.00  0.00     0.127 C 
ENDROOT
BRANCH   1   2
ATOM      2  C   UNL     1       6.261   3.867   0.807  1.00  0.00     0.303 C 
ATOM      3  O   UNL     1       6.938   4.774   0.263  1.00  0.00    -0.252 OA
BRANCH   2   4
ATOM      4  O   UNL     1       6.275   3.787   2.190  1.00  0.00    -0.481 OA
ATOM      5  H   UNL     1       6.037   4.615   2.742  1.00  0.00     0.296 HD
ENDBRANCH   2   4
ENDBRANCH   1   2
BRANCH   1   6
ATOM      6  C   UNL     1       4.933   1.852   0.913  1.00  0.00     0.047 C 
BRANCH   6   7
ATOM      7  C   UNL     1       5.714   0.616   0.917  1.00  0.00    -0.047 A 
ATOM      8  C   UNL     1       6.386   0.205  -0.211  1.00  0.00     0.004 A 
ATOM      9  C   UNL     1       5.774  -0.137   2.066  1.00  0.00     0.004 A 
ATOM     10  C   UNL     1       7.113  -0.985  -0.135  1.00  0.00     0.000 A 
ATOM     11  C   UNL     1       6.492  -1.314   2.140  1.00  0.00     0.000 A 
ATOM     12  C   UNL     1       7.168  -1.733   1.014  1.00  0.00     0.000 A 
ENDBRANCH   6   7
ENDBRANCH   1   6
TORSDOF 4
ENDMDL
