@<TRIPOS>MOLECULE
/home/cewinharhar/GITHUB/reincatalyze/data/processed/docking_pred/2023-Apr-26-1657_maxeplen10_maxtrainstep1000_exh32_gamma099_lrac9e-4_lrcr1e-3/3bf4b9a3f06cfa5433c2fd34b58c3faf64c233d9_ligand_2.pdbqt
 12 12 0 0 0
SMALL
GASTEIGER

@<TRIPOS>ATOM
      1  C          8.4110   -0.6190   -2.1170 C.3     1  UNL1        0.1270
      2  C          8.3840   -1.8830   -2.8900 C.2     1  UNL1        0.3030
      3  O          7.2980   -2.4160   -3.2290 O.2     1  UNL1       -0.2520
      4  O          9.5610   -2.5140   -3.2610 O.3     1  UNL1       -0.4810
      5  H         10.2390   -2.0100   -3.8380 H       1  UNL1        0.2960
      6  C          7.0220   -0.0580   -2.0840 C.3     1  UNL1        0.0470
      7  C          6.4700    0.0850   -0.7380 C.2     1  UNL1       -0.0470
      8  C          5.8200    1.2370   -0.3630 C.2     1  UNL1        0.0040
      9  C          6.6060   -0.9520    0.1560 C.2     1  UNL1        0.0040
     10  C          5.3170    1.3040    0.9380 C.2     1  UNL1        0.0000
     11  C          6.1090   -0.8840    1.4430 C.2     1  UNL1        0.0000
     12  C          5.4560    0.2670    1.8270 C.2     1  UNL1        0.0000
@<TRIPOS>BOND
     1     5     4    1
     2     4     2    1
     3     3     2    2
     4     2     1    1
     5     1     6    1
     6     6     7    1
     7     7     8    2
     8     7     9    1
     9     8    10    1
    10     9    11    2
    11    10    12    2
    12    11    12    1
