MODEL 1
REMARK VINA RESULT:      -7.4      0.000      0.000
REMARK SMILES O=C(O)CCc1ccccc1
REMARK SMILES IDX 4 1 2 2 1 3 3 4 5 6 6 7 7 8 11 9 8 10 10 11 9 12
REMARK H PARENT 3 5
REMARK Flexibility Score: inf
ROOT
ATOM      1  C   UNL     1       8.474  -0.608  -2.170  1.00  0.00     0.127 C 
ENDROOT
BRANCH   1   2
ATOM      2  C   UNL     1       8.488  -1.896  -2.902  1.00  0.00     0.303 C 
ATOM      3  O   UNL     1       9.556  -2.534  -3.075  1.00  0.00    -0.252 OA
BRANCH   2   4
ATOM      4  O   UNL     1       7.320  -2.433  -3.417  1.00  0.00    -0.481 OA
ATOM      5  H   UNL     1       7.058  -2.228  -4.385  1.00  0.00     0.296 HD
ENDBRANCH   2   4
ENDBRANCH   1   2
BRANCH   1   6
ATOM      6  C   UNL     1       7.065  -0.098  -2.141  1.00  0.00     0.047 C 
BRANCH   6   7
ATOM      7  C   UNL     1       6.509   0.038  -0.796  1.00  0.00    -0.047 A 
ATOM      8  C   UNL     1       6.638  -0.977   0.124  1.00  0.00     0.004 A 
ATOM      9  C   UNL     1       5.854   1.198  -0.455  1.00  0.00     0.004 A 
ATOM     10  C   UNL     1       6.083  -0.778   1.390  1.00  0.00     0.000 A 
ATOM     11  C   UNL     1       5.305   1.393   0.798  1.00  0.00     0.000 A 
ATOM     12  C   UNL     1       5.429   0.381   1.725  1.00  0.00     0.000 A 
ENDBRANCH   6   7
ENDBRANCH   1   6
TORSDOF 4
ENDMDL
MODEL 2
REMARK VINA RESULT:      -7.3      0.062      1.437
REMARK SMILES O=C(O)CCc1ccccc1
REMARK SMILES IDX 4 1 2 2 1 3 3 4 5 6 6 7 7 8 11 9 8 10 10 11 9 12
REMARK H PARENT 3 5
REMARK Flexibility Score: inf
ROOT
ATOM      1  C   UNL     1       8.433  -0.640  -2.122  1.00  0.00     0.127 C 
ENDROOT
BRANCH   1   2
ATOM      2  C   UNL     1       8.467  -1.918  -2.872  1.00  0.00     0.303 C 
ATOM      3  O   UNL     1       9.544  -2.537  -3.054  1.00  0.00    -0.252 OA
BRANCH   2   4
ATOM      4  O   UNL     1       7.307  -2.465  -3.395  1.00  0.00    -0.481 OA
ATOM      5  H   UNL     1       7.358  -3.346  -3.915  1.00  0.00     0.296 HD
ENDBRANCH   2   4
ENDBRANCH   1   2
BRANCH   1   6
ATOM      6  C   UNL     1       7.021  -0.137  -2.114  1.00  0.00     0.047 C 
BRANCH   6   7
ATOM      7  C   UNL     1       6.472   0.070  -0.775  1.00  0.00    -0.047 A 
ATOM      8  C   UNL     1       5.867   1.258  -0.439  1.00  0.00     0.004 A 
ATOM      9  C   UNL     1       6.564  -0.942   0.152  1.00  0.00     0.004 A 
ATOM     10  C   UNL     1       5.363   1.386   0.858  1.00  0.00     0.000 A 
ATOM     11  C   UNL     1       6.066  -0.815   1.434  1.00  0.00     0.000 A 
ATOM     12  C   UNL     1       5.458   0.373   1.779  1.00  0.00     0.000 A 
ENDBRANCH   6   7
ENDBRANCH   1   6
TORSDOF 4
ENDMDL
MODEL 3
REMARK VINA RESULT:      -7.1      0.841      1.035
REMARK SMILES O=C(O)CCc1ccccc1
REMARK SMILES IDX 4 1 2 2 1 3 3 4 5 6 6 7 7 8 11 9 8 10 10 11 9 12
REMARK H PARENT 3 5
REMARK Flexibility Score: inf
ROOT
ATOM      1  C   UNL     1       7.239  -1.192  -2.352  1.00  0.00     0.127 C 
ENDROOT
BRANCH   1   2
ATOM      2  C   UNL     1       8.698  -1.377  -2.538  1.00  0.00     0.303 C 
ATOM      3  O   UNL     1       9.523  -0.554  -2.070  1.00  0.00    -0.252 OA
BRANCH   2   4
ATOM      4  O   UNL     1       9.192  -2.467  -3.236  1.00  0.00    -0.481 OA
ATOM      5  H   UNL     1       9.637  -2.320  -4.146  1.00  0.00     0.296 HD
ENDBRANCH   2   4
ENDBRANCH   1   2
BRANCH   1   6
ATOM      6  C   UNL     1       7.000   0.206  -1.870  1.00  0.00     0.047 C 
BRANCH   6   7
ATOM      7  C   UNL     1       6.368   0.281  -0.554  1.00  0.00    -0.047 A 
ATOM      8  C   UNL     1       6.494  -0.751   0.347  1.00  0.00     0.004 A 
ATOM      9  C   UNL     1       5.642   1.401  -0.220  1.00  0.00     0.004 A 
ATOM     10  C   UNL     1       5.865  -0.611   1.586  1.00  0.00     0.000 A 
ATOM     11  C   UNL     1       5.021   1.538   1.005  1.00  0.00     0.000 A 
ATOM     12  C   UNL     1       5.142   0.508   1.913  1.00  0.00     0.000 A 
ENDBRANCH   6   7
ENDBRANCH   1   6
TORSDOF 4
ENDMDL
MODEL 4
REMARK VINA RESULT:      -6.8      3.376      5.066
REMARK SMILES O=C(O)CCc1ccccc1
REMARK SMILES IDX 4 1 2 2 1 3 3 4 5 6 6 7 7 8 11 9 8 10 10 11 9 12
REMARK H PARENT 3 5
REMARK Flexibility Score: inf
ROOT
ATOM      1  C   UNL     1       4.993   1.793   0.700  1.00  0.00     0.127 C 
ENDROOT
BRANCH   1   2
ATOM      2  C   UNL     1       4.480   1.116   1.915  1.00  0.00     0.303 C 
ATOM      3  O   UNL     1       5.142   0.213   2.484  1.00  0.00    -0.252 OA
BRANCH   2   4
ATOM      4  O   UNL     1       3.253   1.463   2.456  1.00  0.00    -0.481 OA
ATOM      5  H   UNL     1       3.185   2.291   3.054  1.00  0.00     0.296 HD
ENDBRANCH   2   4
ENDBRANCH   1   2
BRANCH   1   6
ATOM      6  C   UNL     1       6.490   1.783   0.751  1.00  0.00     0.047 C 
BRANCH   6   7
ATOM      7  C   UNL     1       7.117   1.035  -0.336  1.00  0.00    -0.047 A 
ATOM      8  C   UNL     1       6.388   0.145  -1.090  1.00  0.00     0.004 A 
ATOM      9  C   UNL     1       8.453   1.231  -0.603  1.00  0.00     0.004 A 
ATOM     10  C   UNL     1       7.052  -0.534  -2.114  1.00  0.00     0.000 A 
ATOM     11  C   UNL     1       9.108   0.558  -1.615  1.00  0.00     0.000 A 
ATOM     12  C   UNL     1       8.384  -0.336  -2.375  1.00  0.00     0.000 A 
ENDBRANCH   6   7
ENDBRANCH   1   6
TORSDOF 4
ENDMDL
MODEL 5
REMARK VINA RESULT:      -6.7      3.760      4.976
REMARK SMILES O=C(O)CCc1ccccc1
REMARK SMILES IDX 4 1 2 2 1 3 3 4 5 6 6 7 7 8 11 9 8 10 10 11 9 12
REMARK H PARENT 3 5
REMARK Flexibility Score: inf
ROOT
ATOM      1  C   UNL     1       5.366   2.847  -0.035  1.00  0.00     0.127 C 
ENDROOT
BRANCH   1   2
ATOM      2  C   UNL     1       6.169   3.824   0.737  1.00  0.00     0.303 C 
ATOM      3  O   UNL     1       6.880   4.683   0.159  1.00  0.00    -0.252 OA
BRANCH   2   4
ATOM      4  O   UNL     1       6.158   3.816   2.122  1.00  0.00    -0.481 OA
ATOM      5  H   UNL     1       6.492   2.986   2.621  1.00  0.00     0.296 HD
ENDBRANCH   2   4
ENDBRANCH   1   2
BRANCH   1   6
ATOM      6  C   UNL     1       4.920   1.763   0.898  1.00  0.00     0.047 C 
BRANCH   6   7
ATOM      7  C   UNL     1       5.739   0.554   0.839  1.00  0.00    -0.047 A 
ATOM      8  C   UNL     1       6.449   0.240  -0.297  1.00  0.00     0.004 A 
ATOM      9  C   UNL     1       5.796  -0.273   1.937  1.00  0.00     0.004 A 
ATOM     10  C   UNL     1       7.212  -0.930  -0.282  1.00  0.00     0.000 A 
ATOM     11  C   UNL     1       6.550  -1.430   1.950  1.00  0.00     0.000 A 
ATOM     12  C   UNL     1       7.264  -1.751   0.816  1.00  0.00     0.000 A 
ENDBRANCH   6   7
ENDBRANCH   1   6
TORSDOF 4
ENDMDL
