@<TRIPOS>MOLECULE
/home/cewinharhar/GITHUB/reincatalyze/data/processed/docking_pred/2023-Apr-26-1657_maxeplen10_maxtrainstep1000_exh32_gamma099_lrac9e-4_lrcr1e-3/3c607cf36dcc024da10d53d595c24d9744c2a083_ligand_2.pdbqt
 12 12 0 0 0
SMALL
GASTEIGER

@<TRIPOS>ATOM
      1  C          8.4330   -0.6400   -2.1220 C.3     1  UNL1        0.1270
      2  C          8.4670   -1.9180   -2.8720 C.2     1  UNL1        0.3030
      3  O          9.5440   -2.5370   -3.0540 O.2     1  UNL1       -0.2520
      4  O          7.3070   -2.4650   -3.3950 O.3     1  UNL1       -0.4810
      5  H          7.3580   -3.3460   -3.9150 H       1  UNL1        0.2960
      6  C          7.0210   -0.1370   -2.1140 C.3     1  UNL1        0.0470
      7  C          6.4720    0.0700   -0.7750 C.2     1  UNL1       -0.0470
      8  C          5.8670    1.2580   -0.4390 C.2     1  UNL1        0.0040
      9  C          6.5640   -0.9420    0.1520 C.2     1  UNL1        0.0040
     10  C          5.3630    1.3860    0.8580 C.2     1  UNL1        0.0000
     11  C          6.0660   -0.8150    1.4340 C.2     1  UNL1        0.0000
     12  C          5.4580    0.3730    1.7790 C.2     1  UNL1        0.0000
@<TRIPOS>BOND
     1     5     4    1
     2     4     2    1
     3     3     2    2
     4     2     1    1
     5     1     6    1
     6     6     7    1
     7     7     8    2
     8     7     9    1
     9     8    10    1
    10     9    11    2
    11    10    12    2
    12    11    12    1
