@<TRIPOS>MOLECULE
/home/cewinharhar/GITHUB/reincatalyze/data/processed/docking_pred/2023-Apr-26-1657_maxeplen10_maxtrainstep1000_exh32_gamma099_lrac9e-4_lrcr1e-3/3c607cf36dcc024da10d53d595c24d9744c2a083_ligand_2.pdbqt
 12 12 0 0 0
SMALL
GASTEIGER

@<TRIPOS>ATOM
      1  C          5.3660    2.8470   -0.0350 C.3     1  UNL1        0.1270
      2  C          6.1690    3.8240    0.7370 C.2     1  UNL1        0.3030
      3  O          6.8800    4.6830    0.1590 O.2     1  UNL1       -0.2520
      4  O          6.1580    3.8160    2.1220 O.3     1  UNL1       -0.4810
      5  H          6.4920    2.9860    2.6210 H       1  UNL1        0.2960
      6  C          4.9200    1.7630    0.8980 C.3     1  UNL1        0.0470
      7  C          5.7390    0.5540    0.8390 C.2     1  UNL1       -0.0470
      8  C          6.4490    0.2400   -0.2970 C.2     1  UNL1        0.0040
      9  C          5.7960   -0.2730    1.9370 C.2     1  UNL1        0.0040
     10  C          7.2120   -0.9300   -0.2820 C.2     1  UNL1        0.0000
     11  C          6.5500   -1.4300    1.9500 C.2     1  UNL1        0.0000
     12  C          7.2640   -1.7510    0.8160 C.2     1  UNL1        0.0000
@<TRIPOS>BOND
     1     8    10    1
     2     8     7    2
     3    10    12    2
     4     1     2    1
     5     1     6    1
     6     3     2    2
     7     2     4    1
     8    12    11    1
     9     7     6    1
    10     7     9    1
    11     9    11    2
    12     4     5    1
