@<TRIPOS>MOLECULE
/home/cewinharhar/GITHUB/reincatalyze/data/processed/docking_pred/2023-Apr-26-1657_maxeplen10_maxtrainstep1000_exh32_gamma099_lrac9e-4_lrcr1e-3/3c607cf36dcc024da10d53d595c24d9744c2a083_ligand_2.pdbqt
 12 12 0 0 0
SMALL
GASTEIGER

@<TRIPOS>ATOM
      1  C          8.4740   -0.6080   -2.1700 C.3     1  UNL1        0.1270
      2  C          8.4880   -1.8960   -2.9020 C.2     1  UNL1        0.3030
      3  O          9.5560   -2.5340   -3.0750 O.2     1  UNL1       -0.2520
      4  O          7.3200   -2.4330   -3.4170 O.3     1  UNL1       -0.4810
      5  H          7.0580   -2.2280   -4.3850 H       1  UNL1        0.2960
      6  C          7.0650   -0.0980   -2.1410 C.3     1  UNL1        0.0470
      7  C          6.5090    0.0380   -0.7960 C.2     1  UNL1       -0.0470
      8  C          6.6380   -0.9770    0.1240 C.2     1  UNL1        0.0040
      9  C          5.8540    1.1980   -0.4550 C.2     1  UNL1        0.0040
     10  C          6.0830   -0.7780    1.3900 C.2     1  UNL1        0.0000
     11  C          5.3050    1.3930    0.7980 C.2     1  UNL1        0.0000
     12  C          5.4290    0.3810    1.7250 C.2     1  UNL1        0.0000
@<TRIPOS>BOND
     1     5     4    1
     2     4     2    1
     3     3     2    2
     4     2     1    1
     5     1     6    1
     6     6     7    1
     7     7     9    2
     8     7     8    1
     9     9    11    1
    10     8    10    2
    11    11    12    2
    12    10    12    1
