@<TRIPOS>MOLECULE
/home/cewinharhar/GITHUB/reincatalyze/data/processed/docking_pred/2023-Apr-26-1657_maxeplen10_maxtrainstep1000_exh32_gamma099_lrac9e-4_lrcr1e-3/3c607cf36dcc024da10d53d595c24d9744c2a083_ligand_2.pdbqt
 12 12 0 0 0
SMALL
GASTEIGER

@<TRIPOS>ATOM
      1  C          7.2390   -1.1920   -2.3520 C.3     1  UNL1        0.1270
      2  C          8.6980   -1.3770   -2.5380 C.2     1  UNL1        0.3030
      3  O          9.5230   -0.5540   -2.0700 O.2     1  UNL1       -0.2520
      4  O          9.1920   -2.4670   -3.2360 O.3     1  UNL1       -0.4810
      5  H          9.6370   -2.3200   -4.1460 H       1  UNL1        0.2960
      6  C          7.0000    0.2060   -1.8700 C.3     1  UNL1        0.0470
      7  C          6.3680    0.2810   -0.5540 C.2     1  UNL1       -0.0470
      8  C          6.4940   -0.7510    0.3470 C.2     1  UNL1        0.0040
      9  C          5.6420    1.4010   -0.2200 C.2     1  UNL1        0.0040
     10  C          5.8650   -0.6110    1.5860 C.2     1  UNL1        0.0000
     11  C          5.0210    1.5380    1.0050 C.2     1  UNL1        0.0000
     12  C          5.1420    0.5080    1.9130 C.2     1  UNL1        0.0000
@<TRIPOS>BOND
     1     5     4    1
     2     4     2    1
     3     2     1    1
     4     2     3    2
     5     1     6    1
     6     6     7    1
     7     7     9    2
     8     7     8    1
     9     9    11    1
    10     8    10    2
    11    11    12    2
    12    10    12    1
