MODEL 1
REMARK VINA RESULT:      -7.4      0.000      0.000
REMARK SMILES O=C(O)CCc1ccccc1
REMARK SMILES IDX 4 1 2 2 1 3 3 4 5 6 6 7 7 8 11 9 8 10 10 11 9 12
REMARK H PARENT 3 5
REMARK Flexibility Score: inf
ROOT
ATOM      1  C   UNL     1       8.448  -0.596  -2.191  1.00  0.00     0.127 C 
ENDROOT
BRANCH   1   2
ATOM      2  C   UNL     1       8.486  -1.887  -2.917  1.00  0.00     0.303 C 
ATOM      3  O   UNL     1       9.566  -2.503  -3.094  1.00  0.00    -0.252 OA
BRANCH   2   4
ATOM      4  O   UNL     1       7.325  -2.452  -3.421  1.00  0.00    -0.481 OA
ATOM      5  H   UNL     1       7.362  -2.967  -4.305  1.00  0.00     0.296 HD
ENDBRANCH   2   4
ENDBRANCH   1   2
BRANCH   1   6
ATOM      6  C   UNL     1       7.029  -0.118  -2.154  1.00  0.00     0.047 C 
BRANCH   6   7
ATOM      7  C   UNL     1       6.490   0.042  -0.804  1.00  0.00    -0.047 A 
ATOM      8  C   UNL     1       6.622  -0.961   0.129  1.00  0.00     0.004 A 
ATOM      9  C   UNL     1       5.847   1.212  -0.471  1.00  0.00     0.004 A 
ATOM     10  C   UNL     1       6.084  -0.739   1.399  1.00  0.00     0.000 A 
ATOM     11  C   UNL     1       5.316   1.429   0.784  1.00  0.00     0.000 A 
ATOM     12  C   UNL     1       5.443   0.429   1.724  1.00  0.00     0.000 A 
ENDBRANCH   6   7
ENDBRANCH   1   6
TORSDOF 4
ENDMDL
MODEL 2
REMARK VINA RESULT:      -7.3      0.143      1.733
REMARK SMILES O=C(O)CCc1ccccc1
REMARK SMILES IDX 4 1 2 2 1 3 3 4 5 6 6 7 7 8 11 9 8 10 10 11 9 12
REMARK H PARENT 3 5
REMARK Flexibility Score: inf
ROOT
ATOM      1  C   UNL     1       8.414  -0.703  -2.015  1.00  0.00     0.127 C 
ENDROOT
BRANCH   1   2
ATOM      2  C   UNL     1       8.372  -1.917  -2.865  1.00  0.00     0.303 C 
ATOM      3  O   UNL     1       7.280  -2.405  -3.248  1.00  0.00    -0.252 OA
BRANCH   2   4
ATOM      4  O   UNL     1       9.541  -2.547  -3.260  1.00  0.00    -0.481 OA
ATOM      5  H   UNL     1       9.694  -2.740  -4.254  1.00  0.00     0.296 HD
ENDBRANCH   2   4
ENDBRANCH   1   2
BRANCH   1   6
ATOM      6  C   UNL     1       7.058  -0.065  -2.038  1.00  0.00     0.047 C 
BRANCH   6   7
ATOM      7  C   UNL     1       6.464   0.117  -0.715  1.00  0.00    -0.047 A 
ATOM      8  C   UNL     1       5.798   1.278  -0.397  1.00  0.00     0.004 A 
ATOM      9  C   UNL     1       6.577  -0.889   0.216  1.00  0.00     0.004 A 
ATOM     10  C   UNL     1       5.254   1.383   0.885  1.00  0.00     0.000 A 
ATOM     11  C   UNL     1       6.040  -0.783   1.484  1.00  0.00     0.000 A 
ATOM     12  C   UNL     1       5.371   0.377   1.810  1.00  0.00     0.000 A 
ENDBRANCH   6   7
ENDBRANCH   1   6
TORSDOF 4
ENDMDL
MODEL 3
REMARK VINA RESULT:      -6.8      3.378      5.067
REMARK SMILES O=C(O)CCc1ccccc1
REMARK SMILES IDX 4 1 2 2 1 3 3 4 5 6 6 7 7 8 11 9 8 10 10 11 9 12
REMARK H PARENT 3 5
REMARK Flexibility Score: inf
ROOT
ATOM      1  C   UNL     1       4.995   1.799   0.696  1.00  0.00     0.127 C 
ENDROOT
BRANCH   1   2
ATOM      2  C   UNL     1       4.488   1.118   1.911  1.00  0.00     0.303 C 
ATOM      3  O   UNL     1       5.154   0.218   2.478  1.00  0.00    -0.252 OA
BRANCH   2   4
ATOM      4  O   UNL     1       3.259   1.458   2.454  1.00  0.00    -0.481 OA
ATOM      5  H   UNL     1       2.612   2.033   1.909  1.00  0.00     0.296 HD
ENDBRANCH   2   4
ENDBRANCH   1   2
BRANCH   1   6
ATOM      6  C   UNL     1       6.493   1.791   0.743  1.00  0.00     0.047 C 
BRANCH   6   7
ATOM      7  C   UNL     1       7.117   1.038  -0.343  1.00  0.00    -0.047 A 
ATOM      8  C   UNL     1       6.384   0.153  -1.099  1.00  0.00     0.004 A 
ATOM      9  C   UNL     1       8.455   1.224  -0.607  1.00  0.00     0.004 A 
ATOM     10  C   UNL     1       7.045  -0.531  -2.121  1.00  0.00     0.000 A 
ATOM     11  C   UNL     1       9.108   0.547  -1.617  1.00  0.00     0.000 A 
ATOM     12  C   UNL     1       8.380  -0.342  -2.378  1.00  0.00     0.000 A 
ENDBRANCH   6   7
ENDBRANCH   1   6
TORSDOF 4
ENDMDL
MODEL 4
REMARK VINA RESULT:      -6.7      3.832      4.999
REMARK SMILES O=C(O)CCc1ccccc1
REMARK SMILES IDX 4 1 2 2 1 3 3 4 5 6 6 7 7 8 11 9 8 10 10 11 9 12
REMARK H PARENT 3 5
REMARK Flexibility Score: inf
ROOT
ATOM      1  C   UNL     1       5.461   2.873  -0.020  1.00  0.00     0.127 C 
ENDROOT
BRANCH   1   2
ATOM      2  C   UNL     1       6.214   3.823   0.832  1.00  0.00     0.303 C 
ATOM      3  O   UNL     1       6.116   3.793   2.084  1.00  0.00    -0.252 OA
BRANCH   2   4
ATOM      4  O   UNL     1       7.050   4.773   0.268  1.00  0.00    -0.481 OA
ATOM      5  H   UNL     1       6.769   5.758   0.280  1.00  0.00     0.296 HD
ENDBRANCH   2   4
ENDBRANCH   1   2
BRANCH   1   6
ATOM      6  C   UNL     1       4.886   1.805   0.860  1.00  0.00     0.047 C 
BRANCH   6   7
ATOM      7  C   UNL     1       5.676   0.575   0.896  1.00  0.00    -0.047 A 
ATOM      8  C   UNL     1       6.338   0.131  -0.225  1.00  0.00     0.004 A 
ATOM      9  C   UNL     1       5.755  -0.138   2.070  1.00  0.00     0.004 A 
ATOM     10  C   UNL     1       7.074  -1.051  -0.118  1.00  0.00     0.000 A 
ATOM     11  C   UNL     1       6.483  -1.306   2.174  1.00  0.00     0.000 A 
ATOM     12  C   UNL     1       7.149  -1.758   1.055  1.00  0.00     0.000 A 
ENDBRANCH   6   7
ENDBRANCH   1   6
TORSDOF 4
ENDMDL
MODEL 5
REMARK VINA RESULT:      -6.7      3.831      4.953
REMARK SMILES O=C(O)CCc1ccccc1
REMARK SMILES IDX 4 1 2 2 1 3 3 4 5 6 6 7 7 8 11 9 8 10 10 11 9 12
REMARK H PARENT 3 5
REMARK Flexibility Score: inf
ROOT
ATOM      1  C   UNL     1       5.431   2.919   0.027  1.00  0.00     0.127 C 
ENDROOT
BRANCH   1   2
ATOM      2  C   UNL     1       6.235   3.887   0.810  1.00  0.00     0.303 C 
ATOM      3  O   UNL     1       6.919   4.775   0.243  1.00  0.00    -0.252 OA
BRANCH   2   4
ATOM      4  O   UNL     1       6.255   3.837   2.195  1.00  0.00    -0.481 OA
ATOM      5  H   UNL     1       7.036   3.375   2.668  1.00  0.00     0.296 HD
ENDBRANCH   2   4
ENDBRANCH   1   2
BRANCH   1   6
ATOM      6  C   UNL     1       4.906   1.875   0.965  1.00  0.00     0.047 C 
BRANCH   6   7
ATOM      7  C   UNL     1       5.695   0.645   0.987  1.00  0.00    -0.047 A 
ATOM      8  C   UNL     1       5.777  -0.118   2.128  1.00  0.00     0.004 A 
ATOM      9  C   UNL     1       6.358   0.252  -0.153  1.00  0.00     0.004 A 
ATOM     10  C   UNL     1       6.548  -1.282   2.077  1.00  0.00     0.000 A 
ATOM     11  C   UNL     1       7.120  -0.899  -0.203  1.00  0.00     0.000 A 
ATOM     12  C   UNL     1       7.208  -1.668   0.937  1.00  0.00     0.000 A 
ENDBRANCH   6   7
ENDBRANCH   1   6
TORSDOF 4
ENDMDL
