@<TRIPOS>MOLECULE
/home/cewinharhar/GITHUB/reincatalyze/data/processed/docking_pred/2023-Apr-26-1657_maxeplen10_maxtrainstep1000_exh32_gamma099_lrac9e-4_lrcr1e-3/3c93f0ab1d0179ecce707f4524a6ff468bff7290_ligand_2.pdbqt
 12 12 0 0 0
SMALL
GASTEIGER

@<TRIPOS>ATOM
      1  C          5.4310    2.9190    0.0270 C.3     1  UNL1        0.1270
      2  C          6.2350    3.8870    0.8100 C.2     1  UNL1        0.3030
      3  O          6.9190    4.7750    0.2430 O.2     1  UNL1       -0.2520
      4  O          6.2550    3.8370    2.1950 O.3     1  UNL1       -0.4810
      5  H          7.0360    3.3750    2.6680 H       1  UNL1        0.2960
      6  C          4.9060    1.8750    0.9650 C.3     1  UNL1        0.0470
      7  C          5.6950    0.6450    0.9870 C.2     1  UNL1       -0.0470
      8  C          5.7770   -0.1180    2.1280 C.2     1  UNL1        0.0040
      9  C          6.3580    0.2520   -0.1530 C.2     1  UNL1        0.0040
     10  C          6.5480   -1.2820    2.0770 C.2     1  UNL1        0.0000
     11  C          7.1200   -0.8990   -0.2030 C.2     1  UNL1        0.0000
     12  C          7.2080   -1.6680    0.9370 C.2     1  UNL1        0.0000
@<TRIPOS>BOND
     1    11     9    1
     2    11    12    2
     3     9     7    2
     4     1     2    1
     5     1     6    1
     6     3     2    2
     7     2     4    1
     8    12    10    1
     9     6     7    1
    10     7     8    1
    11    10     8    2
    12     4     5    1
