@<TRIPOS>MOLECULE
/home/cewinharhar/GITHUB/reincatalyze/data/processed/docking_pred/2023-Apr-26-1657_maxeplen10_maxtrainstep1000_exh32_gamma099_lrac9e-4_lrcr1e-3/3c93f0ab1d0179ecce707f4524a6ff468bff7290_ligand_2.pdbqt
 12 12 0 0 0
SMALL
GASTEIGER

@<TRIPOS>ATOM
      1  C          8.4140   -0.7030   -2.0150 C.3     1  UNL1        0.1270
      2  C          8.3720   -1.9170   -2.8650 C.2     1  UNL1        0.3030
      3  O          7.2800   -2.4050   -3.2480 O.2     1  UNL1       -0.2520
      4  O          9.5410   -2.5470   -3.2600 O.3     1  UNL1       -0.4810
      5  H          9.6940   -2.7400   -4.2540 H       1  UNL1        0.2960
      6  C          7.0580   -0.0650   -2.0380 C.3     1  UNL1        0.0470
      7  C          6.4640    0.1170   -0.7150 C.2     1  UNL1       -0.0470
      8  C          5.7980    1.2780   -0.3970 C.2     1  UNL1        0.0040
      9  C          6.5770   -0.8890    0.2160 C.2     1  UNL1        0.0040
     10  C          5.2540    1.3830    0.8850 C.2     1  UNL1        0.0000
     11  C          6.0400   -0.7830    1.4840 C.2     1  UNL1        0.0000
     12  C          5.3710    0.3770    1.8100 C.2     1  UNL1        0.0000
@<TRIPOS>BOND
     1     5     4    1
     2     4     2    1
     3     3     2    2
     4     2     1    1
     5     6     1    1
     6     6     7    1
     7     7     8    2
     8     7     9    1
     9     8    10    1
    10     9    11    2
    11    10    12    2
    12    11    12    1
