@<TRIPOS>MOLECULE
/home/cewinharhar/GITHUB/reincatalyze/data/processed/docking_pred/2023-Apr-26-1657_maxeplen10_maxtrainstep1000_exh32_gamma099_lrac9e-4_lrcr1e-3/3c93f0ab1d0179ecce707f4524a6ff468bff7290_ligand_2.pdbqt
 12 12 0 0 0
SMALL
GASTEIGER

@<TRIPOS>ATOM
      1  C          5.4610    2.8730   -0.0200 C.3     1  UNL1        0.1270
      2  C          6.2140    3.8230    0.8320 C.2     1  UNL1        0.3030
      3  O          6.1160    3.7930    2.0840 O.2     1  UNL1       -0.2520
      4  O          7.0500    4.7730    0.2680 O.3     1  UNL1       -0.4810
      5  H          6.7690    5.7580    0.2800 H       1  UNL1        0.2960
      6  C          4.8860    1.8050    0.8600 C.3     1  UNL1        0.0470
      7  C          5.6760    0.5750    0.8960 C.2     1  UNL1       -0.0470
      8  C          6.3380    0.1310   -0.2250 C.2     1  UNL1        0.0040
      9  C          5.7550   -0.1380    2.0700 C.2     1  UNL1        0.0040
     10  C          7.0740   -1.0510   -0.1180 C.2     1  UNL1        0.0000
     11  C          6.4830   -1.3060    2.1740 C.2     1  UNL1        0.0000
     12  C          7.1490   -1.7580    1.0550 C.2     1  UNL1        0.0000
@<TRIPOS>BOND
     1     8    10    1
     2     8     7    2
     3    10    12    2
     4     1     2    1
     5     1     6    1
     6     4     5    1
     7     4     2    1
     8     2     3    2
     9     6     7    1
    10     7     9    1
    11    12    11    1
    12     9    11    2
