@<TRIPOS>MOLECULE
/home/cewinharhar/GITHUB/reincatalyze/data/processed/docking_pred/2023-Apr-26-1657_maxeplen10_maxtrainstep1000_exh32_gamma099_lrac9e-4_lrcr1e-3/3c93f0ab1d0179ecce707f4524a6ff468bff7290_ligand_2.pdbqt
 12 12 0 0 0
SMALL
GASTEIGER

@<TRIPOS>ATOM
      1  C          8.4480   -0.5960   -2.1910 C.3     1  UNL1        0.1270
      2  C          8.4860   -1.8870   -2.9170 C.2     1  UNL1        0.3030
      3  O          9.5660   -2.5030   -3.0940 O.2     1  UNL1       -0.2520
      4  O          7.3250   -2.4520   -3.4210 O.3     1  UNL1       -0.4810
      5  H          7.3620   -2.9670   -4.3050 H       1  UNL1        0.2960
      6  C          7.0290   -0.1180   -2.1540 C.3     1  UNL1        0.0470
      7  C          6.4900    0.0420   -0.8040 C.2     1  UNL1       -0.0470
      8  C          6.6220   -0.9610    0.1290 C.2     1  UNL1        0.0040
      9  C          5.8470    1.2120   -0.4710 C.2     1  UNL1        0.0040
     10  C          6.0840   -0.7390    1.3990 C.2     1  UNL1        0.0000
     11  C          5.3160    1.4290    0.7840 C.2     1  UNL1        0.0000
     12  C          5.4430    0.4290    1.7240 C.2     1  UNL1        0.0000
@<TRIPOS>BOND
     1     5     4    1
     2     4     2    1
     3     3     2    2
     4     2     1    1
     5     1     6    1
     6     6     7    1
     7     7     9    2
     8     7     8    1
     9     9    11    1
    10     8    10    2
    11    11    12    2
    12    10    12    1
