@<TRIPOS>MOLECULE
/home/cewinharhar/GITHUB/reincatalyze/data/processed/docking_pred/2023-Apr-26-1657_maxeplen10_maxtrainstep1000_exh32_gamma099_lrac9e-4_lrcr1e-3/3c93f0ab1d0179ecce707f4524a6ff468bff7290_ligand_2.pdbqt
 12 12 0 0 0
SMALL
GASTEIGER

@<TRIPOS>ATOM
      1  C          4.9950    1.7990    0.6960 C.3     1  UNL1        0.1270
      2  C          4.4880    1.1180    1.9110 C.2     1  UNL1        0.3030
      3  O          5.1540    0.2180    2.4780 O.2     1  UNL1       -0.2520
      4  O          3.2590    1.4580    2.4540 O.3     1  UNL1       -0.4810
      5  H          2.6120    2.0330    1.9090 H       1  UNL1        0.2960
      6  C          6.4930    1.7910    0.7430 C.3     1  UNL1        0.0470
      7  C          7.1170    1.0380   -0.3430 C.2     1  UNL1       -0.0470
      8  C          6.3840    0.1530   -1.0990 C.2     1  UNL1        0.0040
      9  C          8.4550    1.2240   -0.6070 C.2     1  UNL1        0.0040
     10  C          7.0450   -0.5310   -2.1210 C.2     1  UNL1        0.0000
     11  C          9.1080    0.5470   -1.6170 C.2     1  UNL1        0.0000
     12  C          8.3800   -0.3420   -2.3780 C.2     1  UNL1        0.0000
@<TRIPOS>BOND
     1    12    10    2
     2    12    11    1
     3    10     8    1
     4    11     9    2
     5     8     7    2
     6     9     7    1
     7     7     6    1
     8     1     6    1
     9     1     2    1
    10     5     4    1
    11     2     4    1
    12     2     3    2
