@<TRIPOS>MOLECULE
/home/cewinharhar/GITHUB/reincatalyze/data/processed/docking_pred/2023-Apr-26-1657_maxeplen10_maxtrainstep1000_exh32_gamma099_lrac9e-4_lrcr1e-3/3dd20a82ca316ee4e9168eadca9f8684e5881f32_ligand_2.pdbqt
 12 12 0 0 0
SMALL
GASTEIGER

@<TRIPOS>ATOM
      1  C          8.4100   -0.5160   -2.1560 C.3     1  UNL1        0.1270
      2  C          8.4190   -1.8210   -2.8580 C.2     1  UNL1        0.3030
      3  O          9.4790   -2.4820   -2.9910 O.2     1  UNL1       -0.2520
      4  O          7.2540   -2.3500   -3.3900 O.3     1  UNL1       -0.4810
      5  H          6.7860   -1.8590   -4.1570 H       1  UNL1        0.2960
      6  C          6.9910   -0.0470   -2.0530 C.3     1  UNL1        0.0470
      7  C          6.5100    0.0950   -0.6790 C.2     1  UNL1       -0.0470
      8  C          5.8010    1.2080   -0.2940 C.2     1  UNL1        0.0040
      9  C          6.7740   -0.9030    0.2310 C.2     1  UNL1        0.0040
     10  C          5.3720    1.2770    1.0330 C.2     1  UNL1        0.0000
     11  C          6.3500   -0.8330    1.5430 C.2     1  UNL1        0.0000
     12  C          5.6390    0.2790    1.9370 C.2     1  UNL1        0.0000
@<TRIPOS>BOND
     1     5     4    1
     2     4     2    1
     3     3     2    2
     4     2     1    1
     5     1     6    1
     6     6     7    1
     7     7     8    2
     8     7     9    1
     9     8    10    1
    10     9    11    2
    11    10    12    2
    12    11    12    1
