MODEL 1
REMARK VINA RESULT:      -7.3      0.000      0.000
REMARK SMILES O=C(O)CCc1ccccc1
REMARK SMILES IDX 4 1 2 2 1 3 3 4 5 6 6 7 7 8 11 9 8 10 10 11 9 12
REMARK H PARENT 3 5
REMARK Flexibility Score: inf
ROOT
ATOM      1  C   UNL     1       8.412  -0.554  -2.232  1.00  0.00     0.127 C 
ENDROOT
BRANCH   1   2
ATOM      2  C   UNL     1       8.461  -1.867  -2.918  1.00  0.00     0.303 C 
ATOM      3  O   UNL     1       9.543  -2.491  -3.053  1.00  0.00    -0.252 OA
BRANCH   2   4
ATOM      4  O   UNL     1       7.310  -2.442  -3.432  1.00  0.00    -0.481 OA
ATOM      5  H   UNL     1       6.958  -2.132  -4.342  1.00  0.00     0.296 HD
ENDBRANCH   2   4
ENDBRANCH   1   2
BRANCH   1   6
ATOM      6  C   UNL     1       6.984  -0.104  -2.177  1.00  0.00     0.047 C 
BRANCH   6   7
ATOM      7  C   UNL     1       6.463   0.056  -0.821  1.00  0.00    -0.047 A 
ATOM      8  C   UNL     1       6.585  -0.955   0.104  1.00  0.00     0.004 A 
ATOM      9  C   UNL     1       5.847   1.236  -0.474  1.00  0.00     0.004 A 
ATOM     10  C   UNL     1       6.065  -0.732   1.381  1.00  0.00     0.000 A 
ATOM     11  C   UNL     1       5.333   1.455   0.789  1.00  0.00     0.000 A 
ATOM     12  C   UNL     1       5.451   0.447   1.721  1.00  0.00     0.000 A 
ENDBRANCH   6   7
ENDBRANCH   1   6
TORSDOF 4
ENDMDL
MODEL 2
REMARK VINA RESULT:      -7.2      0.211      1.447
REMARK SMILES O=C(O)CCc1ccccc1
REMARK SMILES IDX 4 1 2 2 1 3 3 4 5 6 6 7 7 8 11 9 8 10 10 11 9 12
REMARK H PARENT 3 5
REMARK Flexibility Score: inf
ROOT
ATOM      1  C   UNL     1       8.410  -0.516  -2.156  1.00  0.00     0.127 C 
ENDROOT
BRANCH   1   2
ATOM      2  C   UNL     1       8.419  -1.821  -2.858  1.00  0.00     0.303 C 
ATOM      3  O   UNL     1       9.479  -2.482  -2.991  1.00  0.00    -0.252 OA
BRANCH   2   4
ATOM      4  O   UNL     1       7.254  -2.350  -3.390  1.00  0.00    -0.481 OA
ATOM      5  H   UNL     1       6.786  -1.859  -4.157  1.00  0.00     0.296 HD
ENDBRANCH   2   4
ENDBRANCH   1   2
BRANCH   1   6
ATOM      6  C   UNL     1       6.991  -0.047  -2.053  1.00  0.00     0.047 C 
BRANCH   6   7
ATOM      7  C   UNL     1       6.510   0.095  -0.679  1.00  0.00    -0.047 A 
ATOM      8  C   UNL     1       5.801   1.208  -0.294  1.00  0.00     0.004 A 
ATOM      9  C   UNL     1       6.774  -0.903   0.231  1.00  0.00     0.004 A 
ATOM     10  C   UNL     1       5.372   1.277   1.033  1.00  0.00     0.000 A 
ATOM     11  C   UNL     1       6.350  -0.833   1.543  1.00  0.00     0.000 A 
ATOM     12  C   UNL     1       5.639   0.279   1.937  1.00  0.00     0.000 A 
ENDBRANCH   6   7
ENDBRANCH   1   6
TORSDOF 4
ENDMDL
MODEL 3
REMARK VINA RESULT:      -7.1      0.627      1.453
REMARK SMILES O=C(O)CCc1ccccc1
REMARK SMILES IDX 4 1 2 2 1 3 3 4 5 6 6 7 7 8 11 9 8 10 10 11 9 12
REMARK H PARENT 3 5
REMARK Flexibility Score: inf
ROOT
ATOM      1  C   UNL     1       8.258  -0.871  -1.887  1.00  0.00     0.127 C 
ENDROOT
BRANCH   1   2
ATOM      2  C   UNL     1       8.317  -1.985  -2.862  1.00  0.00     0.303 C 
ATOM      3  O   UNL     1       7.272  -2.463  -3.370  1.00  0.00    -0.252 OA
BRANCH   2   4
ATOM      4  O   UNL     1       9.532  -2.533  -3.242  1.00  0.00    -0.481 OA
ATOM      5  H   UNL     1      10.390  -2.216  -2.782  1.00  0.00     0.296 HD
ENDBRANCH   2   4
ENDBRANCH   1   2
BRANCH   1   6
ATOM      6  C   UNL     1       7.514  -1.345  -0.676  1.00  0.00     0.047 C 
BRANCH   6   7
ATOM      7  C   UNL     1       6.638  -0.335  -0.084  1.00  0.00    -0.047 A 
ATOM      8  C   UNL     1       6.160  -0.482   1.197  1.00  0.00     0.004 A 
ATOM      9  C   UNL     1       6.294   0.773  -0.824  1.00  0.00     0.004 A 
ATOM     10  C   UNL     1       5.328   0.522   1.698  1.00  0.00     0.000 A 
ATOM     11  C   UNL     1       5.472   1.764  -0.327  1.00  0.00     0.000 A 
ATOM     12  C   UNL     1       4.988   1.624   0.955  1.00  0.00     0.000 A 
ENDBRANCH   6   7
ENDBRANCH   1   6
TORSDOF 4
ENDMDL
MODEL 4
REMARK VINA RESULT:      -6.8      3.375      5.039
REMARK SMILES O=C(O)CCc1ccccc1
REMARK SMILES IDX 4 1 2 2 1 3 3 4 5 6 6 7 7 8 11 9 8 10 10 11 9 12
REMARK H PARENT 3 5
REMARK Flexibility Score: inf
ROOT
ATOM      1  C   UNL     1       4.995   1.774   0.712  1.00  0.00     0.127 C 
ENDROOT
BRANCH   1   2
ATOM      2  C   UNL     1       4.482   1.097   1.926  1.00  0.00     0.303 C 
ATOM      3  O   UNL     1       5.141   0.193   2.495  1.00  0.00    -0.252 OA
BRANCH   2   4
ATOM      4  O   UNL     1       3.255   1.445   2.467  1.00  0.00    -0.481 OA
ATOM      5  H   UNL     1       2.768   0.780   3.073  1.00  0.00     0.296 HD
ENDBRANCH   2   4
ENDBRANCH   1   2
BRANCH   1   6
ATOM      6  C   UNL     1       6.493   1.747   0.756  1.00  0.00     0.047 C 
BRANCH   6   7
ATOM      7  C   UNL     1       7.106   0.980  -0.327  1.00  0.00    -0.047 A 
ATOM      8  C   UNL     1       6.390   0.017  -0.999  1.00  0.00     0.004 A 
ATOM      9  C   UNL     1       8.414   1.232  -0.672  1.00  0.00     0.004 A 
ATOM     10  C   UNL     1       7.039  -0.677  -2.023  1.00  0.00     0.000 A 
ATOM     11  C   UNL     1       9.054   0.546  -1.684  1.00  0.00     0.000 A 
ATOM     12  C   UNL     1       8.344  -0.422  -2.362  1.00  0.00     0.000 A 
ENDBRANCH   6   7
ENDBRANCH   1   6
TORSDOF 4
ENDMDL
MODEL 5
REMARK VINA RESULT:      -6.7      3.819      4.995
REMARK SMILES O=C(O)CCc1ccccc1
REMARK SMILES IDX 4 1 2 2 1 3 3 4 5 6 6 7 7 8 11 9 8 10 10 11 9 12
REMARK H PARENT 3 5
REMARK Flexibility Score: inf
ROOT
ATOM      1  C   UNL     1       5.401   2.906   0.007  1.00  0.00     0.127 C 
ENDROOT
BRANCH   1   2
ATOM      2  C   UNL     1       6.205   3.872   0.791  1.00  0.00     0.303 C 
ATOM      3  O   UNL     1       6.870   4.775   0.226  1.00  0.00    -0.252 OA
BRANCH   2   4
ATOM      4  O   UNL     1       6.244   3.805   2.175  1.00  0.00    -0.481 OA
ATOM      5  H   UNL     1       7.126   3.572   2.640  1.00  0.00     0.296 HD
ENDBRANCH   2   4
ENDBRANCH   1   2
BRANCH   1   6
ATOM      6  C   UNL     1       4.917   1.833   0.935  1.00  0.00     0.047 C 
BRANCH   6   7
ATOM      7  C   UNL     1       5.722   0.614   0.906  1.00  0.00    -0.047 A 
ATOM      8  C   UNL     1       6.397   0.243  -0.234  1.00  0.00     0.004 A 
ATOM      9  C   UNL     1       5.803  -0.164   2.038  1.00  0.00     0.004 A 
ATOM     10  C   UNL     1       7.148  -0.933  -0.189  1.00  0.00     0.000 A 
ATOM     11  C   UNL     1       6.546  -1.327   2.081  1.00  0.00     0.000 A 
ATOM     12  C   UNL     1       7.224  -1.706   0.942  1.00  0.00     0.000 A 
ENDBRANCH   6   7
ENDBRANCH   1   6
TORSDOF 4
ENDMDL
