@<TRIPOS>MOLECULE
/home/cewinharhar/GITHUB/reincatalyze/data/processed/docking_pred/2023-Apr-26-1657_maxeplen10_maxtrainstep1000_exh32_gamma099_lrac9e-4_lrcr1e-3/3dd20a82ca316ee4e9168eadca9f8684e5881f32_ligand_2.pdbqt
 12 12 0 0 0
SMALL
GASTEIGER

@<TRIPOS>ATOM
      1  C          5.4010    2.9060    0.0070 C.3     1  UNL1        0.1270
      2  C          6.2050    3.8720    0.7910 C.2     1  UNL1        0.3030
      3  O          6.8700    4.7750    0.2260 O.2     1  UNL1       -0.2520
      4  O          6.2440    3.8050    2.1750 O.3     1  UNL1       -0.4810
      5  H          7.1260    3.5720    2.6400 H       1  UNL1        0.2960
      6  C          4.9170    1.8330    0.9350 C.3     1  UNL1        0.0470
      7  C          5.7220    0.6140    0.9060 C.2     1  UNL1       -0.0470
      8  C          6.3970    0.2430   -0.2340 C.2     1  UNL1        0.0040
      9  C          5.8030   -0.1640    2.0380 C.2     1  UNL1        0.0040
     10  C          7.1480   -0.9330   -0.1890 C.2     1  UNL1        0.0000
     11  C          6.5460   -1.3270    2.0810 C.2     1  UNL1        0.0000
     12  C          7.2240   -1.7060    0.9420 C.2     1  UNL1        0.0000
@<TRIPOS>BOND
     1     8    10    1
     2     8     7    2
     3    10    12    2
     4     1     2    1
     5     1     6    1
     6     3     2    2
     7     2     4    1
     8     7     6    1
     9     7     9    1
    10    12    11    1
    11     9    11    2
    12     4     5    1
