@<TRIPOS>MOLECULE
/home/cewinharhar/GITHUB/reincatalyze/data/processed/docking_pred/2023-Apr-26-1657_maxeplen10_maxtrainstep1000_exh32_gamma099_lrac9e-4_lrcr1e-3/3dd20a82ca316ee4e9168eadca9f8684e5881f32_ligand_2.pdbqt
 12 12 0 0 0
SMALL
GASTEIGER

@<TRIPOS>ATOM
      1  C          8.2580   -0.8710   -1.8870 C.3     1  UNL1        0.1270
      2  C          8.3170   -1.9850   -2.8620 C.2     1  UNL1        0.3030
      3  O          7.2720   -2.4630   -3.3700 O.2     1  UNL1       -0.2520
      4  O          9.5320   -2.5330   -3.2420 O.3     1  UNL1       -0.4810
      5  H         10.3900   -2.2160   -2.7820 H       1  UNL1        0.2960
      6  C          7.5140   -1.3450   -0.6760 C.3     1  UNL1        0.0470
      7  C          6.6380   -0.3350   -0.0840 C.2     1  UNL1       -0.0470
      8  C          6.1600   -0.4820    1.1970 C.2     1  UNL1        0.0040
      9  C          6.2940    0.7730   -0.8240 C.2     1  UNL1        0.0040
     10  C          5.3280    0.5220    1.6980 C.2     1  UNL1        0.0000
     11  C          5.4720    1.7640   -0.3270 C.2     1  UNL1        0.0000
     12  C          4.9880    1.6240    0.9550 C.2     1  UNL1        0.0000
@<TRIPOS>BOND
     1     3     2    2
     2     4     2    1
     3     4     5    1
     4     2     1    1
     5     1     6    1
     6     9    11    1
     7     9     7    2
     8     6     7    1
     9    11    12    2
    10     7     8    1
    11    12    10    1
    12     8    10    2
