@<TRIPOS>MOLECULE
/home/cewinharhar/GITHUB/reincatalyze/data/processed/docking_pred/2023-Apr-26-1657_maxeplen10_maxtrainstep1000_exh32_gamma099_lrac9e-4_lrcr1e-3/3dd20a82ca316ee4e9168eadca9f8684e5881f32_ligand_2.pdbqt
 12 12 0 0 0
SMALL
GASTEIGER

@<TRIPOS>ATOM
      1  C          8.4120   -0.5540   -2.2320 C.3     1  UNL1        0.1270
      2  C          8.4610   -1.8670   -2.9180 C.2     1  UNL1        0.3030
      3  O          9.5430   -2.4910   -3.0530 O.2     1  UNL1       -0.2520
      4  O          7.3100   -2.4420   -3.4320 O.3     1  UNL1       -0.4810
      5  H          6.9580   -2.1320   -4.3420 H       1  UNL1        0.2960
      6  C          6.9840   -0.1040   -2.1770 C.3     1  UNL1        0.0470
      7  C          6.4630    0.0560   -0.8210 C.2     1  UNL1       -0.0470
      8  C          6.5850   -0.9550    0.1040 C.2     1  UNL1        0.0040
      9  C          5.8470    1.2360   -0.4740 C.2     1  UNL1        0.0040
     10  C          6.0650   -0.7320    1.3810 C.2     1  UNL1        0.0000
     11  C          5.3330    1.4550    0.7890 C.2     1  UNL1        0.0000
     12  C          5.4510    0.4470    1.7210 C.2     1  UNL1        0.0000
@<TRIPOS>BOND
     1     5     4    1
     2     4     2    1
     3     3     2    2
     4     2     1    1
     5     1     6    1
     6     6     7    1
     7     7     9    2
     8     7     8    1
     9     9    11    1
    10     8    10    2
    11    11    12    2
    12    10    12    1
