MODEL 1
REMARK VINA RESULT:      -7.4      0.000      0.000
REMARK SMILES O=C(O)CCc1ccccc1
REMARK SMILES IDX 4 1 2 2 1 3 3 4 5 6 6 7 7 8 11 9 8 10 10 11 9 12
REMARK H PARENT 3 5
REMARK Flexibility Score: inf
ROOT
ATOM      1  C   UNL     1       8.471  -0.660  -2.091  1.00  0.00     0.127 C 
ENDROOT
BRANCH   1   2
ATOM      2  C   UNL     1       8.484  -1.916  -2.876  1.00  0.00     0.303 C 
ATOM      3  O   UNL     1       9.550  -2.551  -3.071  1.00  0.00    -0.252 OA
BRANCH   2   4
ATOM      4  O   UNL     1       7.316  -2.426  -3.419  1.00  0.00    -0.481 OA
ATOM      5  H   UNL     1       6.981  -2.064  -4.316  1.00  0.00     0.296 HD
ENDBRANCH   2   4
ENDBRANCH   1   2
BRANCH   1   6
ATOM      6  C   UNL     1       7.079  -0.107  -2.110  1.00  0.00     0.047 C 
BRANCH   6   7
ATOM      7  C   UNL     1       6.493   0.075  -0.783  1.00  0.00    -0.047 A 
ATOM      8  C   UNL     1       6.620  -0.897   0.182  1.00  0.00     0.004 A 
ATOM      9  C   UNL     1       5.811   1.237  -0.504  1.00  0.00     0.004 A 
ATOM     10  C   UNL     1       6.036  -0.655   1.427  1.00  0.00     0.000 A 
ATOM     11  C   UNL     1       5.234   1.475   0.728  1.00  0.00     0.000 A 
ATOM     12  C   UNL     1       5.356   0.505   1.700  1.00  0.00     0.000 A 
ENDBRANCH   6   7
ENDBRANCH   1   6
TORSDOF 4
ENDMDL
MODEL 2
REMARK VINA RESULT:      -7.4      0.181      1.445
REMARK SMILES O=C(O)CCc1ccccc1
REMARK SMILES IDX 4 1 2 2 1 3 3 4 5 6 6 7 7 8 11 9 8 10 10 11 9 12
REMARK H PARENT 3 5
REMARK Flexibility Score: inf
ROOT
ATOM      1  C   UNL     1       8.416  -0.569  -2.244  1.00  0.00     0.127 C 
ENDROOT
BRANCH   1   2
ATOM      2  C   UNL     1       8.471  -1.880  -2.933  1.00  0.00     0.303 C 
ATOM      3  O   UNL     1       9.561  -2.479  -3.106  1.00  0.00    -0.252 OA
BRANCH   2   4
ATOM      4  O   UNL     1       7.316  -2.482  -3.407  1.00  0.00    -0.481 OA
ATOM      5  H   UNL     1       6.497  -2.545  -2.796  1.00  0.00     0.296 HD
ENDBRANCH   2   4
ENDBRANCH   1   2
BRANCH   1   6
ATOM      6  C   UNL     1       6.984  -0.132  -2.178  1.00  0.00     0.047 C 
BRANCH   6   7
ATOM      7  C   UNL     1       6.476   0.035  -0.818  1.00  0.00    -0.047 A 
ATOM      8  C   UNL     1       5.868   1.208  -0.433  1.00  0.00     0.004 A 
ATOM      9  C   UNL     1       6.608  -0.999   0.080  1.00  0.00     0.004 A 
ATOM     10  C   UNL     1       5.405   1.297   0.882  1.00  0.00     0.000 A 
ATOM     11  C   UNL     1       6.150  -0.909   1.379  1.00  0.00     0.000 A 
ATOM     12  C   UNL     1       5.541   0.263   1.773  1.00  0.00     0.000 A 
ENDBRANCH   6   7
ENDBRANCH   1   6
TORSDOF 4
ENDMDL
MODEL 3
REMARK VINA RESULT:      -7.2      0.837      1.033
REMARK SMILES O=C(O)CCc1ccccc1
REMARK SMILES IDX 4 1 2 2 1 3 3 4 5 6 6 7 7 8 11 9 8 10 10 11 9 12
REMARK H PARENT 3 5
REMARK Flexibility Score: inf
ROOT
ATOM      1  C   UNL     1       7.239  -1.228  -2.333  1.00  0.00     0.127 C 
ENDROOT
BRANCH   1   2
ATOM      2  C   UNL     1       8.699  -1.370  -2.548  1.00  0.00     0.303 C 
ATOM      3  O   UNL     1       9.509  -0.525  -2.092  1.00  0.00    -0.252 OA
BRANCH   2   4
ATOM      4  O   UNL     1       9.210  -2.442  -3.260  1.00  0.00    -0.481 OA
ATOM      5  H   UNL     1       9.641  -2.277  -4.174  1.00  0.00     0.296 HD
ENDBRANCH   2   4
ENDBRANCH   1   2
BRANCH   1   6
ATOM      6  C   UNL     1       6.960   0.184  -1.915  1.00  0.00     0.047 C 
BRANCH   6   7
ATOM      7  C   UNL     1       6.349   0.302  -0.592  1.00  0.00    -0.047 A 
ATOM      8  C   UNL     1       6.474  -0.708   0.333  1.00  0.00     0.004 A 
ATOM      9  C   UNL     1       5.645   1.441  -0.277  1.00  0.00     0.004 A 
ATOM     10  C   UNL     1       5.865  -0.527   1.577  1.00  0.00     0.000 A 
ATOM     11  C   UNL     1       5.043   1.619   0.953  1.00  0.00     0.000 A 
ATOM     12  C   UNL     1       5.163   0.611   1.885  1.00  0.00     0.000 A 
ENDBRANCH   6   7
ENDBRANCH   1   6
TORSDOF 4
ENDMDL
MODEL 4
REMARK VINA RESULT:      -6.9      1.016      1.940
REMARK SMILES O=C(O)CCc1ccccc1
REMARK SMILES IDX 4 1 2 2 1 3 3 4 5 6 6 7 7 8 11 9 8 10 10 11 9 12
REMARK H PARENT 3 5
REMARK Flexibility Score: inf
ROOT
ATOM      1  C   UNL     1       7.253  -1.328  -2.185  1.00  0.00     0.127 C 
ENDROOT
BRANCH   1   2
ATOM      2  C   UNL     1       8.701  -1.367  -2.501  1.00  0.00     0.303 C 
ATOM      3  O   UNL     1       9.204  -2.333  -3.126  1.00  0.00    -0.252 OA
BRANCH   2   4
ATOM      4  O   UNL     1       9.540  -0.336  -2.112  1.00  0.00    -0.481 OA
ATOM      5  H   UNL     1      10.473  -0.557  -1.754  1.00  0.00     0.296 HD
ENDBRANCH   2   4
ENDBRANCH   1   2
BRANCH   1   6
ATOM      6  C   UNL     1       7.093  -1.400  -0.697  1.00  0.00     0.047 C 
BRANCH   6   7
ATOM      7  C   UNL     1       6.361  -0.273  -0.122  1.00  0.00    -0.047 A 
ATOM      8  C   UNL     1       6.128   0.864  -0.860  1.00  0.00     0.004 A 
ATOM      9  C   UNL     1       5.901  -0.361   1.171  1.00  0.00     0.004 A 
ATOM     10  C   UNL     1       5.421   1.901  -0.248  1.00  0.00     0.000 A 
ATOM     11  C   UNL     1       5.203   0.665   1.776  1.00  0.00     0.000 A 
ATOM     12  C   UNL     1       4.966   1.809   1.043  1.00  0.00     0.000 A 
ENDBRANCH   6   7
ENDBRANCH   1   6
TORSDOF 4
ENDMDL
MODEL 5
REMARK VINA RESULT:      -6.8      3.366      5.067
REMARK SMILES O=C(O)CCc1ccccc1
REMARK SMILES IDX 4 1 2 2 1 3 3 4 5 6 6 7 7 8 11 9 8 10 10 11 9 12
REMARK H PARENT 3 5
REMARK Flexibility Score: inf
ROOT
ATOM      1  C   UNL     1       4.998   1.802   0.708  1.00  0.00     0.127 C 
ENDROOT
BRANCH   1   2
ATOM      2  C   UNL     1       4.487   1.112   1.916  1.00  0.00     0.303 C 
ATOM      3  O   UNL     1       5.150   0.205   2.478  1.00  0.00    -0.252 OA
BRANCH   2   4
ATOM      4  O   UNL     1       3.258   1.449   2.459  1.00  0.00    -0.481 OA
ATOM      5  H   UNL     1       2.484   0.782   2.401  1.00  0.00     0.296 HD
ENDBRANCH   2   4
ENDBRANCH   1   2
BRANCH   1   6
ATOM      6  C   UNL     1       6.496   1.778   0.752  1.00  0.00     0.047 C 
BRANCH   6   7
ATOM      7  C   UNL     1       7.111   1.026  -0.340  1.00  0.00    -0.047 A 
ATOM      8  C   UNL     1       6.372   0.136  -1.085  1.00  0.00     0.004 A 
ATOM      9  C   UNL     1       8.444   1.218  -0.621  1.00  0.00     0.004 A 
ATOM     10  C   UNL     1       7.024  -0.547  -2.114  1.00  0.00     0.000 A 
ATOM     11  C   UNL     1       9.087   0.541  -1.638  1.00  0.00     0.000 A 
ATOM     12  C   UNL     1       8.354  -0.352  -2.388  1.00  0.00     0.000 A 
ENDBRANCH   6   7
ENDBRANCH   1   6
TORSDOF 4
ENDMDL
