@<TRIPOS>MOLECULE
/home/cewinharhar/GITHUB/reincatalyze/data/processed/docking_pred/2023-Apr-26-1657_maxeplen10_maxtrainstep1000_exh32_gamma099_lrac9e-4_lrcr1e-3/3e742204aaadd08b2af2eabe2bac092cf241077d_ligand_2.pdbqt
 12 12 0 0 0
SMALL
GASTEIGER

@<TRIPOS>ATOM
      1  C          7.2530   -1.3280   -2.1850 C.3     1  UNL1        0.1270
      2  C          8.7010   -1.3670   -2.5010 C.2     1  UNL1        0.3030
      3  O          9.2040   -2.3330   -3.1260 O.2     1  UNL1       -0.2520
      4  O          9.5400   -0.3360   -2.1120 O.3     1  UNL1       -0.4810
      5  H         10.4730   -0.5570   -1.7540 H       1  UNL1        0.2960
      6  C          7.0930   -1.4000   -0.6970 C.3     1  UNL1        0.0470
      7  C          6.3610   -0.2730   -0.1220 C.2     1  UNL1       -0.0470
      8  C          6.1280    0.8640   -0.8600 C.2     1  UNL1        0.0040
      9  C          5.9010   -0.3610    1.1710 C.2     1  UNL1        0.0040
     10  C          5.4210    1.9010   -0.2480 C.2     1  UNL1        0.0000
     11  C          5.2030    0.6650    1.7760 C.2     1  UNL1        0.0000
     12  C          4.9660    1.8090    1.0430 C.2     1  UNL1        0.0000
@<TRIPOS>BOND
     1     3     2    2
     2     2     1    1
     3     2     4    1
     4     1     6    1
     5     4     5    1
     6     8    10    1
     7     8     7    2
     8     6     7    1
     9    10    12    2
    10     7     9    1
    11    12    11    1
    12     9    11    2
