@<TRIPOS>MOLECULE
/home/cewinharhar/GITHUB/reincatalyze/data/processed/docking_pred/2023-Apr-26-1657_maxeplen10_maxtrainstep1000_exh32_gamma099_lrac9e-4_lrcr1e-3/3e742204aaadd08b2af2eabe2bac092cf241077d_ligand_2.pdbqt
 12 12 0 0 0
SMALL
GASTEIGER

@<TRIPOS>ATOM
      1  C          4.9980    1.8020    0.7080 C.3     1  UNL1        0.1270
      2  C          4.4870    1.1120    1.9160 C.2     1  UNL1        0.3030
      3  O          5.1500    0.2050    2.4780 O.2     1  UNL1       -0.2520
      4  O          3.2580    1.4490    2.4590 O.3     1  UNL1       -0.4810
      5  H          2.4840    0.7820    2.4010 H       1  UNL1        0.2960
      6  C          6.4960    1.7780    0.7520 C.3     1  UNL1        0.0470
      7  C          7.1110    1.0260   -0.3400 C.2     1  UNL1       -0.0470
      8  C          6.3720    0.1360   -1.0850 C.2     1  UNL1        0.0040
      9  C          8.4440    1.2180   -0.6210 C.2     1  UNL1        0.0040
     10  C          7.0240   -0.5470   -2.1140 C.2     1  UNL1        0.0000
     11  C          9.0870    0.5410   -1.6380 C.2     1  UNL1        0.0000
     12  C          8.3540   -0.3520   -2.3880 C.2     1  UNL1        0.0000
@<TRIPOS>BOND
     1    12    10    2
     2    12    11    1
     3    10     8    1
     4    11     9    2
     5     8     7    2
     6     9     7    1
     7     7     6    1
     8     1     6    1
     9     1     2    1
    10     2     4    1
    11     2     3    2
    12     5     4    1
