@<TRIPOS>MOLECULE
/home/cewinharhar/GITHUB/reincatalyze/data/processed/docking_pred/2023-Apr-26-1657_maxeplen10_maxtrainstep1000_exh32_gamma099_lrac9e-4_lrcr1e-3/3e742204aaadd08b2af2eabe2bac092cf241077d_ligand_2.pdbqt
 12 12 0 0 0
SMALL
GASTEIGER

@<TRIPOS>ATOM
      1  C          7.2390   -1.2280   -2.3330 C.3     1  UNL1        0.1270
      2  C          8.6990   -1.3700   -2.5480 C.2     1  UNL1        0.3030
      3  O          9.5090   -0.5250   -2.0920 O.2     1  UNL1       -0.2520
      4  O          9.2100   -2.4420   -3.2600 O.3     1  UNL1       -0.4810
      5  H          9.6410   -2.2770   -4.1740 H       1  UNL1        0.2960
      6  C          6.9600    0.1840   -1.9150 C.3     1  UNL1        0.0470
      7  C          6.3490    0.3020   -0.5920 C.2     1  UNL1       -0.0470
      8  C          6.4740   -0.7080    0.3330 C.2     1  UNL1        0.0040
      9  C          5.6450    1.4410   -0.2770 C.2     1  UNL1        0.0040
     10  C          5.8650   -0.5270    1.5770 C.2     1  UNL1        0.0000
     11  C          5.0430    1.6190    0.9530 C.2     1  UNL1        0.0000
     12  C          5.1630    0.6110    1.8850 C.2     1  UNL1        0.0000
@<TRIPOS>BOND
     1     5     4    1
     2     4     2    1
     3     2     1    1
     4     2     3    2
     5     1     6    1
     6     6     7    1
     7     7     9    2
     8     7     8    1
     9     9    11    1
    10     8    10    2
    11    11    12    2
    12    10    12    1
