@<TRIPOS>MOLECULE
/home/cewinharhar/GITHUB/reincatalyze/data/processed/docking_pred/2023-Apr-26-1657_maxeplen10_maxtrainstep1000_exh32_gamma099_lrac9e-4_lrcr1e-3/3e742204aaadd08b2af2eabe2bac092cf241077d_ligand_2.pdbqt
 12 12 0 0 0
SMALL
GASTEIGER

@<TRIPOS>ATOM
      1  C          8.4710   -0.6600   -2.0910 C.3     1  UNL1        0.1270
      2  C          8.4840   -1.9160   -2.8760 C.2     1  UNL1        0.3030
      3  O          9.5500   -2.5510   -3.0710 O.2     1  UNL1       -0.2520
      4  O          7.3160   -2.4260   -3.4190 O.3     1  UNL1       -0.4810
      5  H          6.9810   -2.0640   -4.3160 H       1  UNL1        0.2960
      6  C          7.0790   -0.1070   -2.1100 C.3     1  UNL1        0.0470
      7  C          6.4930    0.0750   -0.7830 C.2     1  UNL1       -0.0470
      8  C          6.6200   -0.8970    0.1820 C.2     1  UNL1        0.0040
      9  C          5.8110    1.2370   -0.5040 C.2     1  UNL1        0.0040
     10  C          6.0360   -0.6550    1.4270 C.2     1  UNL1        0.0000
     11  C          5.2340    1.4750    0.7280 C.2     1  UNL1        0.0000
     12  C          5.3560    0.5050    1.7000 C.2     1  UNL1        0.0000
@<TRIPOS>BOND
     1     5     4    1
     2     4     2    1
     3     3     2    2
     4     2     1    1
     5     6     1    1
     6     6     7    1
     7     7     9    2
     8     7     8    1
     9     9    11    1
    10     8    10    2
    11    11    12    2
    12    10    12    1
