@<TRIPOS>MOLECULE
/home/cewinharhar/GITHUB/reincatalyze/data/processed/docking_pred/2023-Apr-26-1657_maxeplen10_maxtrainstep1000_exh32_gamma099_lrac9e-4_lrcr1e-3/3ef00b253c4480de2280c2f95d83164b82996574_ligand_2.pdbqt
 12 12 0 0 0
SMALL
GASTEIGER

@<TRIPOS>ATOM
      1  C          8.2050   -0.9070   -1.8710 C.3     1  UNL1        0.1270
      2  C          8.4040   -2.0100   -2.8390 C.2     1  UNL1        0.3030
      3  O          9.5500   -2.4640   -3.0820 O.2     1  UNL1       -0.2520
      4  O          7.3280   -2.5730   -3.5060 O.3     1  UNL1       -0.4810
      5  H          7.2430   -2.4450   -4.5180 H       1  UNL1        0.2960
      6  C          7.2600   -1.3790   -0.8080 C.3     1  UNL1        0.0470
      7  C          6.4940   -0.3060   -0.1750 C.2     1  UNL1       -0.0470
      8  C          6.0990   -0.4050    1.1390 C.2     1  UNL1        0.0040
      9  C          6.1710    0.8110   -0.9090 C.2     1  UNL1        0.0040
     10  C          5.3710    0.6570    1.6790 C.2     1  UNL1        0.0000
     11  C          5.4500    1.8610   -0.3740 C.2     1  UNL1        0.0000
     12  C          5.0500    1.7690    0.9420 C.2     1  UNL1        0.0000
@<TRIPOS>BOND
     1     5     4    1
     2     4     2    1
     3     3     2    2
     4     2     1    1
     5     1     6    1
     6     9    11    1
     7     9     7    2
     8     6     7    1
     9    11    12    2
    10     7     8    1
    11    12    10    1
    12     8    10    2
