@<TRIPOS>MOLECULE
/home/cewinharhar/GITHUB/reincatalyze/data/processed/docking_pred/2023-Apr-26-1657_maxeplen10_maxtrainstep1000_exh32_gamma099_lrac9e-4_lrcr1e-3/3ef00b253c4480de2280c2f95d83164b82996574_ligand_2.pdbqt
 12 12 0 0 0
SMALL
GASTEIGER

@<TRIPOS>ATOM
      1  C          8.4520   -0.6560   -2.0850 C.3     1  UNL1        0.1270
      2  C          8.4750   -1.9030   -2.8850 C.2     1  UNL1        0.3030
      3  O          9.5460   -2.5270   -3.0870 O.2     1  UNL1       -0.2520
      4  O          7.3110   -2.4160   -3.4340 O.3     1  UNL1       -0.4810
      5  H          6.9410   -3.3040   -3.0850 H       1  UNL1        0.2960
      6  C          7.0520   -0.1230   -2.0840 C.3     1  UNL1        0.0470
      7  C          6.4840    0.0540   -0.7490 C.2     1  UNL1       -0.0470
      8  C          5.8470    1.2240   -0.4040 C.2     1  UNL1        0.0040
      9  C          6.5900   -0.9670    0.1670 C.2     1  UNL1        0.0040
     10  C          5.3280    1.3230    0.8880 C.2     1  UNL1        0.0000
     11  C          6.0760   -0.8670    1.4450 C.2     1  UNL1        0.0000
     12  C          5.4380    0.3010    1.7980 C.2     1  UNL1        0.0000
@<TRIPOS>BOND
     1     4     5    1
     2     4     2    1
     3     3     2    2
     4     2     1    1
     5     1     6    1
     6     6     7    1
     7     7     8    2
     8     7     9    1
     9     8    10    1
    10     9    11    2
    11    10    12    2
    12    11    12    1
