@<TRIPOS>MOLECULE
/home/cewinharhar/GITHUB/reincatalyze/data/processed/docking_pred/2023-Apr-26-1657_maxeplen10_maxtrainstep1000_exh32_gamma099_lrac9e-4_lrcr1e-3/3ef00b253c4480de2280c2f95d83164b82996574_ligand_2.pdbqt
 12 12 0 0 0
SMALL
GASTEIGER

@<TRIPOS>ATOM
      1  C          5.3310    2.9630    0.0160 C.3     1  UNL1        0.1270
      2  C          6.1960    3.8740    0.8020 C.2     1  UNL1        0.3030
      3  O          6.8720    4.7730    0.2430 O.2     1  UNL1       -0.2520
      4  O          6.2840    3.7570    2.1800 O.3     1  UNL1       -0.4810
      5  H          7.1300    4.0800    2.6570 H       1  UNL1        0.2960
      6  C          5.1970    1.6740    0.7700 C.3     1  UNL1        0.0470
      7  C          5.9960    0.5800    0.2210 C.2     1  UNL1       -0.0470
      8  C          6.3220    0.5470   -1.1150 C.2     1  UNL1        0.0040
      9  C          6.4240   -0.4240    1.0590 C.2     1  UNL1        0.0040
     10  C          7.0890   -0.5280   -1.5690 C.2     1  UNL1        0.0000
     11  C          7.1820   -1.4870    0.6080 C.2     1  UNL1        0.0000
     12  C          7.5120   -1.5270   -0.7290 C.2     1  UNL1        0.0000
@<TRIPOS>BOND
     1    10     8    1
     2    10    12    2
     3     8     7    2
     4    12    11    1
     5     1     6    1
     6     1     2    1
     7     7     6    1
     8     7     9    1
     9     3     2    2
    10    11     9    2
    11     2     4    1
    12     4     5    1
