@<TRIPOS>MOLECULE
/home/cewinharhar/GITHUB/reincatalyze/data/processed/docking_pred/2023-Apr-26-1657_maxeplen10_maxtrainstep1000_exh32_gamma099_lrac9e-4_lrcr1e-3/3ef00b253c4480de2280c2f95d83164b82996574_ligand_2.pdbqt
 12 12 0 0 0
SMALL
GASTEIGER

@<TRIPOS>ATOM
      1  C          4.9850    1.7800    0.6960 C.3     1  UNL1        0.1270
      2  C          4.4700    1.1100    1.9130 C.2     1  UNL1        0.3030
      3  O          5.1260    0.2030    2.4830 O.2     1  UNL1       -0.2520
      4  O          3.2470    1.4680    2.4580 O.3     1  UNL1       -0.4810
      5  H          3.1070    2.4270    2.7880 H       1  UNL1        0.2960
      6  C          6.4820    1.7690    0.7490 C.3     1  UNL1        0.0470
      7  C          7.1090    1.0160   -0.3360 C.2     1  UNL1       -0.0470
      8  C          6.3920    0.0880   -1.0550 C.2     1  UNL1        0.0040
      9  C          8.4320    1.2450   -0.6350 C.2     1  UNL1        0.0040
     10  C          7.0550   -0.5930   -2.0780 C.2     1  UNL1        0.0000
     11  C          9.0870    0.5700   -1.6460 C.2     1  UNL1        0.0000
     12  C          8.3750   -0.3610   -2.3710 C.2     1  UNL1        0.0000
@<TRIPOS>BOND
     1    12    10    2
     2    12    11    1
     3    10     8    1
     4    11     9    2
     5     8     7    2
     6     9     7    1
     7     7     6    1
     8     1     6    1
     9     1     2    1
    10     2     4    1
    11     2     3    2
    12     4     5    1
