MODEL 1
REMARK VINA RESULT:      -7.3      0.000      0.000
REMARK SMILES O=C(O)CCc1ccccc1
REMARK SMILES IDX 4 1 2 2 1 3 3 4 5 6 6 7 7 8 11 9 8 10 10 11 9 12
REMARK H PARENT 3 5
REMARK Flexibility Score: inf
ROOT
ATOM      1  C   UNL     1       8.452  -0.656  -2.085  1.00  0.00     0.127 C 
ENDROOT
BRANCH   1   2
ATOM      2  C   UNL     1       8.475  -1.903  -2.885  1.00  0.00     0.303 C 
ATOM      3  O   UNL     1       9.546  -2.527  -3.087  1.00  0.00    -0.252 OA
BRANCH   2   4
ATOM      4  O   UNL     1       7.311  -2.416  -3.434  1.00  0.00    -0.481 OA
ATOM      5  H   UNL     1       6.941  -3.304  -3.085  1.00  0.00     0.296 HD
ENDBRANCH   2   4
ENDBRANCH   1   2
BRANCH   1   6
ATOM      6  C   UNL     1       7.052  -0.123  -2.084  1.00  0.00     0.047 C 
BRANCH   6   7
ATOM      7  C   UNL     1       6.484   0.054  -0.749  1.00  0.00    -0.047 A 
ATOM      8  C   UNL     1       5.847   1.224  -0.404  1.00  0.00     0.004 A 
ATOM      9  C   UNL     1       6.590  -0.967   0.167  1.00  0.00     0.004 A 
ATOM     10  C   UNL     1       5.328   1.323   0.888  1.00  0.00     0.000 A 
ATOM     11  C   UNL     1       6.076  -0.867   1.445  1.00  0.00     0.000 A 
ATOM     12  C   UNL     1       5.438   0.301   1.798  1.00  0.00     0.000 A 
ENDBRANCH   6   7
ENDBRANCH   1   6
TORSDOF 4
ENDMDL
MODEL 2
REMARK VINA RESULT:      -7.3      0.072      1.438
REMARK SMILES O=C(O)CCc1ccccc1
REMARK SMILES IDX 4 1 2 2 1 3 3 4 5 6 6 7 7 8 11 9 8 10 10 11 9 12
REMARK H PARENT 3 5
REMARK Flexibility Score: inf
ROOT
ATOM      1  C   UNL     1       8.436  -0.562  -2.202  1.00  0.00     0.127 C 
ENDROOT
BRANCH   1   2
ATOM      2  C   UNL     1       8.472  -1.863  -2.910  1.00  0.00     0.303 C 
ATOM      3  O   UNL     1       9.555  -2.471  -3.099  1.00  0.00    -0.252 OA
BRANCH   2   4
ATOM      4  O   UNL     1       7.308  -2.446  -3.385  1.00  0.00    -0.481 OA
ATOM      5  H   UNL     1       7.102  -2.408  -4.387  1.00  0.00     0.296 HD
ENDBRANCH   2   4
ENDBRANCH   1   2
BRANCH   1   6
ATOM      6  C   UNL     1       7.011  -0.103  -2.134  1.00  0.00     0.047 C 
BRANCH   6   7
ATOM      7  C   UNL     1       6.492   0.025  -0.773  1.00  0.00    -0.047 A 
ATOM      8  C   UNL     1       6.626  -1.003   0.131  1.00  0.00     0.004 A 
ATOM      9  C   UNL     1       5.866   1.192  -0.401  1.00  0.00     0.004 A 
ATOM     10  C   UNL     1       6.108  -0.811   1.413  1.00  0.00     0.000 A 
ATOM     11  C   UNL     1       5.353   1.380   0.868  1.00  0.00     0.000 A 
ATOM     12  C   UNL     1       5.483   0.355   1.779  1.00  0.00     0.000 A 
ENDBRANCH   6   7
ENDBRANCH   1   6
TORSDOF 4
ENDMDL
MODEL 3
REMARK VINA RESULT:      -7.2      0.639      1.617
REMARK SMILES O=C(O)CCc1ccccc1
REMARK SMILES IDX 4 1 2 2 1 3 3 4 5 6 6 7 7 8 11 9 8 10 10 11 9 12
REMARK H PARENT 3 5
REMARK Flexibility Score: inf
ROOT
ATOM      1  C   UNL     1       8.205  -0.907  -1.871  1.00  0.00     0.127 C 
ENDROOT
BRANCH   1   2
ATOM      2  C   UNL     1       8.404  -2.010  -2.839  1.00  0.00     0.303 C 
ATOM      3  O   UNL     1       9.550  -2.464  -3.082  1.00  0.00    -0.252 OA
BRANCH   2   4
ATOM      4  O   UNL     1       7.328  -2.573  -3.506  1.00  0.00    -0.481 OA
ATOM      5  H   UNL     1       7.243  -2.445  -4.518  1.00  0.00     0.296 HD
ENDBRANCH   2   4
ENDBRANCH   1   2
BRANCH   1   6
ATOM      6  C   UNL     1       7.260  -1.379  -0.808  1.00  0.00     0.047 C 
BRANCH   6   7
ATOM      7  C   UNL     1       6.494  -0.306  -0.175  1.00  0.00    -0.047 A 
ATOM      8  C   UNL     1       6.099  -0.405   1.139  1.00  0.00     0.004 A 
ATOM      9  C   UNL     1       6.171   0.811  -0.909  1.00  0.00     0.004 A 
ATOM     10  C   UNL     1       5.371   0.657   1.679  1.00  0.00     0.000 A 
ATOM     11  C   UNL     1       5.450   1.861  -0.374  1.00  0.00     0.000 A 
ATOM     12  C   UNL     1       5.050   1.769   0.942  1.00  0.00     0.000 A 
ENDBRANCH   6   7
ENDBRANCH   1   6
TORSDOF 4
ENDMDL
MODEL 4
REMARK VINA RESULT:      -6.8      3.382      5.091
REMARK SMILES O=C(O)CCc1ccccc1
REMARK SMILES IDX 4 1 2 2 1 3 3 4 5 6 6 7 7 8 11 9 8 10 10 11 9 12
REMARK H PARENT 3 5
REMARK Flexibility Score: inf
ROOT
ATOM      1  C   UNL     1       4.985   1.780   0.696  1.00  0.00     0.127 C 
ENDROOT
BRANCH   1   2
ATOM      2  C   UNL     1       4.470   1.110   1.913  1.00  0.00     0.303 C 
ATOM      3  O   UNL     1       5.126   0.203   2.483  1.00  0.00    -0.252 OA
BRANCH   2   4
ATOM      4  O   UNL     1       3.247   1.468   2.458  1.00  0.00    -0.481 OA
ATOM      5  H   UNL     1       3.107   2.427   2.788  1.00  0.00     0.296 HD
ENDBRANCH   2   4
ENDBRANCH   1   2
BRANCH   1   6
ATOM      6  C   UNL     1       6.482   1.769   0.749  1.00  0.00     0.047 C 
BRANCH   6   7
ATOM      7  C   UNL     1       7.109   1.016  -0.336  1.00  0.00    -0.047 A 
ATOM      8  C   UNL     1       6.392   0.088  -1.055  1.00  0.00     0.004 A 
ATOM      9  C   UNL     1       8.432   1.245  -0.635  1.00  0.00     0.004 A 
ATOM     10  C   UNL     1       7.055  -0.593  -2.078  1.00  0.00     0.000 A 
ATOM     11  C   UNL     1       9.087   0.570  -1.646  1.00  0.00     0.000 A 
ATOM     12  C   UNL     1       8.375  -0.361  -2.371  1.00  0.00     0.000 A 
ENDBRANCH   6   7
ENDBRANCH   1   6
TORSDOF 4
ENDMDL
MODEL 5
REMARK VINA RESULT:      -6.6      3.716      4.946
REMARK SMILES O=C(O)CCc1ccccc1
REMARK SMILES IDX 4 1 2 2 1 3 3 4 5 6 6 7 7 8 11 9 8 10 10 11 9 12
REMARK H PARENT 3 5
REMARK Flexibility Score: inf
ROOT
ATOM      1  C   UNL     1       5.331   2.963   0.016  1.00  0.00     0.127 C 
ENDROOT
BRANCH   1   2
ATOM      2  C   UNL     1       6.196   3.874   0.802  1.00  0.00     0.303 C 
ATOM      3  O   UNL     1       6.872   4.773   0.243  1.00  0.00    -0.252 OA
BRANCH   2   4
ATOM      4  O   UNL     1       6.284   3.757   2.180  1.00  0.00    -0.481 OA
ATOM      5  H   UNL     1       7.130   4.080   2.657  1.00  0.00     0.296 HD
ENDBRANCH   2   4
ENDBRANCH   1   2
BRANCH   1   6
ATOM      6  C   UNL     1       5.197   1.674   0.770  1.00  0.00     0.047 C 
BRANCH   6   7
ATOM      7  C   UNL     1       5.996   0.580   0.221  1.00  0.00    -0.047 A 
ATOM      8  C   UNL     1       6.322   0.547  -1.115  1.00  0.00     0.004 A 
ATOM      9  C   UNL     1       6.424  -0.424   1.059  1.00  0.00     0.004 A 
ATOM     10  C   UNL     1       7.089  -0.528  -1.569  1.00  0.00     0.000 A 
ATOM     11  C   UNL     1       7.182  -1.487   0.608  1.00  0.00     0.000 A 
ATOM     12  C   UNL     1       7.512  -1.527  -0.729  1.00  0.00     0.000 A 
ENDBRANCH   6   7
ENDBRANCH   1   6
TORSDOF 4
ENDMDL
