@<TRIPOS>MOLECULE
/home/cewinharhar/GITHUB/reincatalyze/data/processed/docking_pred/2023-Apr-26-1657_maxeplen10_maxtrainstep1000_exh32_gamma099_lrac9e-4_lrcr1e-3/3ef00b253c4480de2280c2f95d83164b82996574_ligand_2.pdbqt
 12 12 0 0 0
SMALL
GASTEIGER

@<TRIPOS>ATOM
      1  C          8.4360   -0.5620   -2.2020 C.3     1  UNL1        0.1270
      2  C          8.4720   -1.8630   -2.9100 C.2     1  UNL1        0.3030
      3  O          9.5550   -2.4710   -3.0990 O.2     1  UNL1       -0.2520
      4  O          7.3080   -2.4460   -3.3850 O.3     1  UNL1       -0.4810
      5  H          7.1020   -2.4080   -4.3870 H       1  UNL1        0.2960
      6  C          7.0110   -0.1030   -2.1340 C.3     1  UNL1        0.0470
      7  C          6.4920    0.0250   -0.7730 C.2     1  UNL1       -0.0470
      8  C          6.6260   -1.0030    0.1310 C.2     1  UNL1        0.0040
      9  C          5.8660    1.1920   -0.4010 C.2     1  UNL1        0.0040
     10  C          6.1080   -0.8110    1.4130 C.2     1  UNL1        0.0000
     11  C          5.3530    1.3800    0.8680 C.2     1  UNL1        0.0000
     12  C          5.4830    0.3550    1.7790 C.2     1  UNL1        0.0000
@<TRIPOS>BOND
     1     5     4    1
     2     4     2    1
     3     3     2    2
     4     2     1    1
     5     1     6    1
     6     6     7    1
     7     7     9    2
     8     7     8    1
     9     9    11    1
    10     8    10    2
    11    11    12    2
    12    10    12    1
