@<TRIPOS>MOLECULE
/home/cewinharhar/GITHUB/reincatalyze/data/processed/docking_pred/2023-Apr-26-1657_maxeplen10_maxtrainstep1000_exh32_gamma099_lrac9e-4_lrcr1e-3/40246e00fe273733fff606c0d5025fbb5a6aafa7_ligand_2.pdbqt
 12 12 0 0 0
SMALL
GASTEIGER

@<TRIPOS>ATOM
      1  C          7.8600   -2.2780    0.8330 C.3     1  UNL1        0.1270
      2  C          8.7410   -3.3580    0.3300 C.2     1  UNL1        0.3030
      3  O          9.6460   -3.8480    1.0490 O.2     1  UNL1       -0.2520
      4  O          8.5880   -3.8580   -0.9540 O.3     1  UNL1       -0.4810
      5  H          7.7200   -3.6720   -1.4640 H       1  UNL1        0.2960
      6  C          7.4720   -1.4090   -0.3240 C.3     1  UNL1        0.0470
      7  C          6.6050   -0.2890    0.0380 C.2     1  UNL1       -0.0470
      8  C          6.3330    0.7110   -0.8670 C.2     1  UNL1        0.0040
      9  C          6.0580   -0.2430    1.2990 C.2     1  UNL1        0.0040
     10  C          5.4970    1.7500   -0.4530 C.2     1  UNL1        0.0000
     11  C          5.2310    0.7850    1.7070 C.2     1  UNL1        0.0000
     12  C          4.9550    1.7910    0.8070 C.2     1  UNL1        0.0000
@<TRIPOS>BOND
     1     5     4    1
     2     4     2    1
     3     8    10    1
     4     8     7    2
     5    10    12    2
     6     6     7    1
     7     6     1    1
     8     7     9    1
     9     2     1    1
    10     2     3    2
    11    12    11    1
    12     9    11    2
