@<TRIPOS>MOLECULE
/home/cewinharhar/GITHUB/reincatalyze/data/processed/docking_pred/2023-Apr-26-1657_maxeplen10_maxtrainstep1000_exh32_gamma099_lrac9e-4_lrcr1e-3/40246e00fe273733fff606c0d5025fbb5a6aafa7_ligand_2.pdbqt
 12 12 0 0 0
SMALL
GASTEIGER

@<TRIPOS>ATOM
      1  C          8.1590    0.2770   -2.0770 C.3     1  UNL1        0.1270
      2  C          9.3530    0.3660   -1.2040 C.2     1  UNL1        0.3030
      3  O          9.4820   -0.3780   -0.2010 O.2     1  UNL1       -0.2520
      4  O         10.3630    1.2760   -1.4730 O.3     1  UNL1       -0.4810
      5  H         10.9650    1.1300   -2.2880 H       1  UNL1        0.2960
      6  C          7.1400   -0.5840   -1.3950 C.3     1  UNL1        0.0470
      7  C          6.3480    0.1180   -0.3860 C.2     1  UNL1       -0.0470
      8  C          6.1490   -0.4320    0.8590 C.2     1  UNL1        0.0040
      9  C          5.8010    1.3420   -0.6940 C.2     1  UNL1        0.0040
     10  C          5.3830    0.2950    1.7730 C.2     1  UNL1        0.0000
     11  C          5.0430    2.0580    0.2110 C.2     1  UNL1        0.0000
     12  C          4.8390    1.5150    1.4600 C.2     1  UNL1        0.0000
@<TRIPOS>BOND
     1     5     4    1
     2     1     6    1
     3     1     2    1
     4     4     2    1
     5     6     7    1
     6     2     3    2
     7     9     7    2
     8     9    11    1
     9     7     8    1
    10    11    12    2
    11     8    10    2
    12    12    10    1
