@<TRIPOS>MOLECULE
/home/cewinharhar/GITHUB/reincatalyze/data/processed/docking_pred/2023-Apr-26-1657_maxeplen10_maxtrainstep1000_exh32_gamma099_lrac9e-4_lrcr1e-3/40246e00fe273733fff606c0d5025fbb5a6aafa7_ligand_2.pdbqt
 12 12 0 0 0
SMALL
GASTEIGER

@<TRIPOS>ATOM
      1  C          4.9970    1.7840    0.6690 C.3     1  UNL1        0.1270
      2  C          4.4970    1.1150    1.8930 C.2     1  UNL1        0.3030
      3  O          5.1660    0.2200    2.4660 O.2     1  UNL1       -0.2520
      4  O          3.2720    1.4620    2.4410 O.3     1  UNL1       -0.4810
      5  H          3.1900    2.3320    2.9740 H       1  UNL1        0.2960
      6  C          6.4940    1.8100    0.7250 C.3     1  UNL1        0.0470
      7  C          7.1430    1.0540   -0.3450 C.2     1  UNL1       -0.0470
      8  C          8.4760    1.2370   -0.6280 C.2     1  UNL1        0.0040
      9  C          6.4030    0.1490   -1.0710 C.2     1  UNL1        0.0040
     10  C          9.0300    0.4800   -1.6620 C.2     1  UNL1        0.0000
     11  C          6.9520   -0.5990   -2.0940 C.2     1  UNL1        0.0000
     12  C          8.2870   -0.4210   -2.3840 C.2     1  UNL1        0.0000
@<TRIPOS>BOND
     1    12    11    2
     2    12    10    1
     3    11     9    1
     4    10     8    2
     5     9     7    2
     6     8     7    1
     7     7     6    1
     8     1     6    1
     9     1     2    1
    10     2     4    1
    11     2     3    2
    12     4     5    1
