@<TRIPOS>MOLECULE
/home/cewinharhar/GITHUB/reincatalyze/data/processed/docking_pred/2023-Apr-26-1657_maxeplen10_maxtrainstep1000_exh32_gamma099_lrac9e-4_lrcr1e-3/40246e00fe273733fff606c0d5025fbb5a6aafa7_ligand_2.pdbqt
 12 12 0 0 0
SMALL
GASTEIGER

@<TRIPOS>ATOM
      1  C          8.4370   -0.6480   -2.0940 C.3     1  UNL1        0.1270
      2  C          8.3930   -1.9010   -2.8850 C.2     1  UNL1        0.3030
      3  O          7.3010   -2.4170   -3.2270 O.2     1  UNL1       -0.2520
      4  O          9.5620   -2.5380   -3.2700 O.3     1  UNL1       -0.4810
      5  H          9.5480   -3.5460   -3.4470 H       1  UNL1        0.2960
      6  C          7.0640   -0.0470   -2.0890 C.3     1  UNL1        0.0470
      7  C          6.4850    0.1030   -0.7550 C.2     1  UNL1       -0.0470
      8  C          6.6220   -0.8910    0.1860 C.2     1  UNL1        0.0040
      9  C          5.7990    1.2540   -0.4460 C.2     1  UNL1        0.0040
     10  C          6.0440   -0.6800    1.4400 C.2     1  UNL1        0.0000
     11  C          5.2280    1.4610    0.7940 C.2     1  UNL1        0.0000
     12  C          5.3600    0.4710    1.7420 C.2     1  UNL1        0.0000
@<TRIPOS>BOND
     1     5     4    1
     2     4     2    1
     3     3     2    2
     4     2     1    1
     5     1     6    1
     6     6     7    1
     7     7     9    2
     8     7     8    1
     9     9    11    1
    10     8    10    2
    11    11    12    2
    12    10    12    1
