@<TRIPOS>MOLECULE
/home/cewinharhar/GITHUB/reincatalyze/data/processed/docking_pred/2023-Apr-26-1657_maxeplen10_maxtrainstep1000_exh32_gamma099_lrac9e-4_lrcr1e-3/40246e00fe273733fff606c0d5025fbb5a6aafa7_ligand_2.pdbqt
 12 12 0 0 0
SMALL
GASTEIGER

@<TRIPOS>ATOM
      1  C          8.4370   -0.5920   -2.1700 C.3     1  UNL1        0.1270
      2  C          8.4790   -1.8750   -2.9100 C.2     1  UNL1        0.3030
      3  O          9.5590   -2.4950   -3.0760 O.2     1  UNL1       -0.2520
      4  O          7.3240   -2.4280   -3.4400 O.3     1  UNL1       -0.4810
      5  H          6.6340   -2.8470   -2.8090 H       1  UNL1        0.2960
      6  C          7.0190   -0.1090   -2.1460 C.3     1  UNL1        0.0470
      7  C          6.4770    0.0780   -0.8010 C.2     1  UNL1       -0.0470
      8  C          5.8320    1.2430   -0.4580 C.2     1  UNL1        0.0040
      9  C          6.6180   -0.9300    0.1260 C.2     1  UNL1        0.0040
     10  C          5.3390    1.3530    0.8440 C.2     1  UNL1        0.0000
     11  C          6.1300   -0.8200    1.4130 C.2     1  UNL1        0.0000
     12  C          5.4830    0.3450    1.7640 C.2     1  UNL1        0.0000
@<TRIPOS>BOND
     1     4     2    1
     2     4     5    1
     3     3     2    2
     4     2     1    1
     5     1     6    1
     6     6     7    1
     7     7     8    2
     8     7     9    1
     9     8    10    1
    10     9    11    2
    11    10    12    2
    12    11    12    1
