MODEL 1
REMARK VINA RESULT:      -7.3      0.000      0.000
REMARK SMILES O=C(O)CCc1ccccc1
REMARK SMILES IDX 4 1 2 2 1 3 3 4 5 6 6 7 7 8 11 9 8 10 10 11 9 12
REMARK H PARENT 3 5
REMARK Flexibility Score: inf
ROOT
ATOM      1  C   UNL     1       8.437  -0.592  -2.170  1.00  0.00     0.127 C 
ENDROOT
BRANCH   1   2
ATOM      2  C   UNL     1       8.479  -1.875  -2.910  1.00  0.00     0.303 C 
ATOM      3  O   UNL     1       9.559  -2.495  -3.076  1.00  0.00    -0.252 OA
BRANCH   2   4
ATOM      4  O   UNL     1       7.324  -2.428  -3.440  1.00  0.00    -0.481 OA
ATOM      5  H   UNL     1       6.634  -2.847  -2.809  1.00  0.00     0.296 HD
ENDBRANCH   2   4
ENDBRANCH   1   2
BRANCH   1   6
ATOM      6  C   UNL     1       7.019  -0.109  -2.146  1.00  0.00     0.047 C 
BRANCH   6   7
ATOM      7  C   UNL     1       6.477   0.078  -0.801  1.00  0.00    -0.047 A 
ATOM      8  C   UNL     1       5.832   1.243  -0.458  1.00  0.00     0.004 A 
ATOM      9  C   UNL     1       6.618  -0.930   0.126  1.00  0.00     0.004 A 
ATOM     10  C   UNL     1       5.339   1.353   0.844  1.00  0.00     0.000 A 
ATOM     11  C   UNL     1       6.130  -0.820   1.413  1.00  0.00     0.000 A 
ATOM     12  C   UNL     1       5.483   0.345   1.764  1.00  0.00     0.000 A 
ENDBRANCH   6   7
ENDBRANCH   1   6
TORSDOF 4
ENDMDL
MODEL 2
REMARK VINA RESULT:      -7.3      0.137      1.732
REMARK SMILES O=C(O)CCc1ccccc1
REMARK SMILES IDX 4 1 2 2 1 3 3 4 5 6 6 7 7 8 11 9 8 10 10 11 9 12
REMARK H PARENT 3 5
REMARK Flexibility Score: inf
ROOT
ATOM      1  C   UNL     1       8.437  -0.648  -2.094  1.00  0.00     0.127 C 
ENDROOT
BRANCH   1   2
ATOM      2  C   UNL     1       8.393  -1.901  -2.885  1.00  0.00     0.303 C 
ATOM      3  O   UNL     1       7.301  -2.417  -3.227  1.00  0.00    -0.252 OA
BRANCH   2   4
ATOM      4  O   UNL     1       9.562  -2.538  -3.270  1.00  0.00    -0.481 OA
ATOM      5  H   UNL     1       9.548  -3.546  -3.447  1.00  0.00     0.296 HD
ENDBRANCH   2   4
ENDBRANCH   1   2
BRANCH   1   6
ATOM      6  C   UNL     1       7.064  -0.047  -2.089  1.00  0.00     0.047 C 
BRANCH   6   7
ATOM      7  C   UNL     1       6.485   0.103  -0.755  1.00  0.00    -0.047 A 
ATOM      8  C   UNL     1       6.622  -0.891   0.186  1.00  0.00     0.004 A 
ATOM      9  C   UNL     1       5.799   1.254  -0.446  1.00  0.00     0.004 A 
ATOM     10  C   UNL     1       6.044  -0.680   1.440  1.00  0.00     0.000 A 
ATOM     11  C   UNL     1       5.228   1.461   0.794  1.00  0.00     0.000 A 
ATOM     12  C   UNL     1       5.360   0.471   1.742  1.00  0.00     0.000 A 
ENDBRANCH   6   7
ENDBRANCH   1   6
TORSDOF 4
ENDMDL
MODEL 3
REMARK VINA RESULT:      -6.8      3.375      5.043
REMARK SMILES O=C(O)CCc1ccccc1
REMARK SMILES IDX 4 1 2 2 1 3 3 4 5 6 6 7 7 8 11 9 8 10 10 11 9 12
REMARK H PARENT 3 5
REMARK Flexibility Score: inf
ROOT
ATOM      1  C   UNL     1       4.997   1.784   0.669  1.00  0.00     0.127 C 
ENDROOT
BRANCH   1   2
ATOM      2  C   UNL     1       4.497   1.115   1.893  1.00  0.00     0.303 C 
ATOM      3  O   UNL     1       5.166   0.220   2.466  1.00  0.00    -0.252 OA
BRANCH   2   4
ATOM      4  O   UNL     1       3.272   1.462   2.441  1.00  0.00    -0.481 OA
ATOM      5  H   UNL     1       3.190   2.332   2.974  1.00  0.00     0.296 HD
ENDBRANCH   2   4
ENDBRANCH   1   2
BRANCH   1   6
ATOM      6  C   UNL     1       6.494   1.810   0.725  1.00  0.00     0.047 C 
BRANCH   6   7
ATOM      7  C   UNL     1       7.143   1.054  -0.345  1.00  0.00    -0.047 A 
ATOM      8  C   UNL     1       8.476   1.237  -0.628  1.00  0.00     0.004 A 
ATOM      9  C   UNL     1       6.403   0.149  -1.071  1.00  0.00     0.004 A 
ATOM     10  C   UNL     1       9.030   0.480  -1.662  1.00  0.00     0.000 A 
ATOM     11  C   UNL     1       6.952  -0.599  -2.094  1.00  0.00     0.000 A 
ATOM     12  C   UNL     1       8.287  -0.421  -2.384  1.00  0.00     0.000 A 
ENDBRANCH   6   7
ENDBRANCH   1   6
TORSDOF 4
ENDMDL
MODEL 4
REMARK VINA RESULT:      -6.7      1.944      2.629
REMARK SMILES O=C(O)CCc1ccccc1
REMARK SMILES IDX 4 1 2 2 1 3 3 4 5 6 6 7 7 8 11 9 8 10 10 11 9 12
REMARK H PARENT 3 5
REMARK Flexibility Score: inf
ROOT
ATOM      1  C   UNL     1       8.159   0.277  -2.077  1.00  0.00     0.127 C 
ENDROOT
BRANCH   1   2
ATOM      2  C   UNL     1       9.353   0.366  -1.204  1.00  0.00     0.303 C 
ATOM      3  O   UNL     1       9.482  -0.378  -0.201  1.00  0.00    -0.252 OA
BRANCH   2   4
ATOM      4  O   UNL     1      10.363   1.276  -1.473  1.00  0.00    -0.481 OA
ATOM      5  H   UNL     1      10.965   1.130  -2.288  1.00  0.00     0.296 HD
ENDBRANCH   2   4
ENDBRANCH   1   2
BRANCH   1   6
ATOM      6  C   UNL     1       7.140  -0.584  -1.395  1.00  0.00     0.047 C 
BRANCH   6   7
ATOM      7  C   UNL     1       6.348   0.118  -0.386  1.00  0.00    -0.047 A 
ATOM      8  C   UNL     1       6.149  -0.432   0.859  1.00  0.00     0.004 A 
ATOM      9  C   UNL     1       5.801   1.342  -0.694  1.00  0.00     0.004 A 
ATOM     10  C   UNL     1       5.383   0.295   1.773  1.00  0.00     0.000 A 
ATOM     11  C   UNL     1       5.043   2.058   0.211  1.00  0.00     0.000 A 
ATOM     12  C   UNL     1       4.839   1.515   1.460  1.00  0.00     0.000 A 
ENDBRANCH   6   7
ENDBRANCH   1   6
TORSDOF 4
ENDMDL
MODEL 5
REMARK VINA RESULT:      -6.6      1.995      2.544
REMARK SMILES O=C(O)CCc1ccccc1
REMARK SMILES IDX 4 1 2 2 1 3 3 4 5 6 6 7 7 8 11 9 8 10 10 11 9 12
REMARK H PARENT 3 5
REMARK Flexibility Score: inf
ROOT
ATOM      1  C   UNL     1       7.860  -2.278   0.833  1.00  0.00     0.127 C 
ENDROOT
BRANCH   1   2
ATOM      2  C   UNL     1       8.741  -3.358   0.330  1.00  0.00     0.303 C 
ATOM      3  O   UNL     1       9.646  -3.848   1.049  1.00  0.00    -0.252 OA
BRANCH   2   4
ATOM      4  O   UNL     1       8.588  -3.858  -0.954  1.00  0.00    -0.481 OA
ATOM      5  H   UNL     1       7.720  -3.672  -1.464  1.00  0.00     0.296 HD
ENDBRANCH   2   4
ENDBRANCH   1   2
BRANCH   1   6
ATOM      6  C   UNL     1       7.472  -1.409  -0.324  1.00  0.00     0.047 C 
BRANCH   6   7
ATOM      7  C   UNL     1       6.605  -0.289   0.038  1.00  0.00    -0.047 A 
ATOM      8  C   UNL     1       6.333   0.711  -0.867  1.00  0.00     0.004 A 
ATOM      9  C   UNL     1       6.058  -0.243   1.299  1.00  0.00     0.004 A 
ATOM     10  C   UNL     1       5.497   1.750  -0.453  1.00  0.00     0.000 A 
ATOM     11  C   UNL     1       5.231   0.785   1.707  1.00  0.00     0.000 A 
ATOM     12  C   UNL     1       4.955   1.791   0.807  1.00  0.00     0.000 A 
ENDBRANCH   6   7
ENDBRANCH   1   6
TORSDOF 4
ENDMDL
