@<TRIPOS>MOLECULE
/home/cewinharhar/GITHUB/reincatalyze/data/processed/docking_pred/2023-Apr-26-1657_maxeplen10_maxtrainstep1000_exh32_gamma099_lrac9e-4_lrcr1e-3/404021d27c656f8fbd9408a440432f577c9906d0_ligand_2.pdbqt
 12 12 0 0 0
SMALL
GASTEIGER

@<TRIPOS>ATOM
      1  C          7.2350   -1.2080   -2.4050 C.3     1  UNL1        0.1270
      2  C          8.6990   -1.3470   -2.5870 C.2     1  UNL1        0.3030
      3  O          9.4970   -0.5020   -2.1110 O.2     1  UNL1       -0.2520
      4  O          9.2290   -2.4170   -3.2890 O.3     1  UNL1       -0.4810
      5  H          9.4560   -3.2810   -2.7900 H       1  UNL1        0.2960
      6  C          6.9660    0.1060   -1.7370 C.3     1  UNL1        0.0470
      7  C          6.4490   -0.0140   -0.3750 C.2     1  UNL1       -0.0470
      8  C          6.7010   -1.1390    0.3760 C.2     1  UNL1        0.0040
      9  C          5.7060    1.0160    0.1540 C.2     1  UNL1        0.0040
     10  C          6.1770   -1.1850    1.6700 C.2     1  UNL1        0.0000
     11  C          5.1880    0.9680    1.4330 C.2     1  UNL1        0.0000
     12  C          5.4350   -0.1550    2.1920 C.2     1  UNL1        0.0000
@<TRIPOS>BOND
     1     4     5    1
     2     4     2    1
     3     2     1    1
     4     2     3    2
     5     1     6    1
     6     6     7    1
     7     7     9    2
     8     7     8    1
     9     9    11    1
    10     8    10    2
    11    11    12    2
    12    10    12    1
