@<TRIPOS>MOLECULE
/home/cewinharhar/GITHUB/reincatalyze/data/processed/docking_pred/2023-Apr-26-1657_maxeplen10_maxtrainstep1000_exh32_gamma099_lrac9e-4_lrcr1e-3/404021d27c656f8fbd9408a440432f577c9906d0_ligand_2.pdbqt
 12 12 0 0 0
SMALL
GASTEIGER

@<TRIPOS>ATOM
      1  C          7.2700   -1.3720   -2.3530 C.3     1  UNL1        0.1270
      2  C          8.7320   -1.4350   -2.5860 C.2     1  UNL1        0.3030
      3  O          9.4990   -0.5370   -2.1580 O.2     1  UNL1       -0.2520
      4  O          9.2950   -2.4900   -3.2860 O.3     1  UNL1       -0.4810
      5  H          8.7050   -3.2830   -3.5560 H       1  UNL1        0.2960
      6  C          6.9370   -0.0130   -1.8160 C.3     1  UNL1        0.0470
      7  C          6.4230   -0.0240   -0.4480 C.2     1  UNL1       -0.0470
      8  C          5.7030    1.0410    0.0420 C.2     1  UNL1        0.0040
      9  C          6.6640   -1.1180    0.3510 C.2     1  UNL1        0.0040
     10  C          5.2410    0.9610    1.3580 C.2     1  UNL1        0.0000
     11  C          6.2070   -1.1950    1.6520 C.2     1  UNL1        0.0000
     12  C          5.4860   -0.1320    2.1500 C.2     1  UNL1        0.0000
@<TRIPOS>BOND
     1     5     4    1
     2     4     2    1
     3     2     1    1
     4     2     3    2
     5     1     6    1
     6     6     7    1
     7     7     8    2
     8     7     9    1
     9     8    10    1
    10     9    11    2
    11    10    12    2
    12    11    12    1
