@<TRIPOS>MOLECULE
/home/cewinharhar/GITHUB/reincatalyze/data/processed/docking_pred/2023-Apr-26-1657_maxeplen10_maxtrainstep1000_exh32_gamma099_lrac9e-4_lrcr1e-3/404021d27c656f8fbd9408a440432f577c9906d0_ligand_2.pdbqt
 12 12 0 0 0
SMALL
GASTEIGER

@<TRIPOS>ATOM
      1  C          8.4810   -0.6130   -2.1740 C.3     1  UNL1        0.1270
      2  C          8.5010   -1.8930   -2.9200 C.2     1  UNL1        0.3030
      3  O          9.5740   -2.5160   -3.1140 O.2     1  UNL1       -0.2520
      4  O          7.3320   -2.4390   -3.4250 O.3     1  UNL1       -0.4810
      5  H          6.4370   -1.9880   -3.2160 H       1  UNL1        0.2960
      6  C          7.0550   -0.1780   -2.0230 C.3     1  UNL1        0.0470
      7  C          6.5790   -0.1680   -0.6410 C.2     1  UNL1       -0.0470
      8  C          6.8090   -1.2400    0.1900 C.2     1  UNL1        0.0040
      9  C          5.8970    0.9320   -0.1740 C.2     1  UNL1        0.0040
     10  C          6.3260   -1.1610    1.4980 C.2     1  UNL1        0.0000
     11  C          5.4200    1.0080    1.1190 C.2     1  UNL1        0.0000
     12  C          5.6450   -0.0620    1.9580 C.2     1  UNL1        0.0000
@<TRIPOS>BOND
     1     4     5    1
     2     4     2    1
     3     3     2    2
     4     2     1    1
     5     1     6    1
     6     6     7    1
     7     7     9    2
     8     7     8    1
     9     9    11    1
    10     8    10    2
    11    11    12    2
    12    10    12    1
