@<TRIPOS>MOLECULE
/home/cewinharhar/GITHUB/reincatalyze/data/processed/docking_pred/2023-Apr-26-1657_maxeplen10_maxtrainstep1000_exh32_gamma099_lrac9e-4_lrcr1e-3/404021d27c656f8fbd9408a440432f577c9906d0_ligand_2.pdbqt
 12 12 0 0 0
SMALL
GASTEIGER

@<TRIPOS>ATOM
      1  C          5.9540   -0.7360    1.7190 C.3     1  UNL1        0.1270
      2  C          5.2660    0.5530    1.9660 C.2     1  UNL1        0.3030
      3  O          4.1200    0.5910    2.4790 O.2     1  UNL1       -0.2520
      4  O          5.8700    1.7550    1.6360 O.3     1  UNL1       -0.4810
      5  H          5.2900    2.5370    1.3190 H       1  UNL1        0.2960
      6  C          7.3900   -0.4500    1.4000 C.3     1  UNL1        0.0470
      7  C          7.6760   -0.3750   -0.0320 C.2     1  UNL1       -0.0470
      8  C          8.6120    0.5090   -0.5160 C.2     1  UNL1        0.0040
      9  C          7.0000   -1.2040   -0.8960 C.2     1  UNL1        0.0040
     10  C          8.8360    0.5260   -1.8950 C.2     1  UNL1        0.0000
     11  C          7.2220   -1.1860   -2.2590 C.2     1  UNL1        0.0000
     12  C          8.1570   -0.3020   -2.7530 C.2     1  UNL1        0.0000
@<TRIPOS>BOND
     1    12    11    2
     2    12    10    1
     3    11     9    1
     4    10     8    2
     5     9     7    2
     6     8     7    1
     7     7     6    1
     8     5     4    1
     9     6     1    1
    10     4     2    1
    11     1     2    1
    12     2     3    2
