MODEL 1
REMARK VINA RESULT:      -7.3      0.000      0.000
REMARK SMILES O=C(O)CCc1ccccc1
REMARK SMILES IDX 4 1 2 2 1 3 3 4 5 6 6 7 7 8 11 9 8 10 10 11 9 12
REMARK H PARENT 3 5
REMARK Flexibility Score: inf
ROOT
ATOM      1  C   UNL     1       8.484  -0.604  -2.183  1.00  0.00     0.127 C 
ENDROOT
BRANCH   1   2
ATOM      2  C   UNL     1       8.517  -1.895  -2.911  1.00  0.00     0.303 C 
ATOM      3  O   UNL     1       9.595  -2.514  -3.088  1.00  0.00    -0.252 OA
BRANCH   2   4
ATOM      4  O   UNL     1       7.355  -2.455  -3.417  1.00  0.00    -0.481 OA
ATOM      5  H   UNL     1       7.089  -2.266  -4.387  1.00  0.00     0.296 HD
ENDBRANCH   2   4
ENDBRANCH   1   2
BRANCH   1   6
ATOM      6  C   UNL     1       7.053  -0.183  -2.037  1.00  0.00     0.047 C 
BRANCH   6   7
ATOM      7  C   UNL     1       6.586  -0.135  -0.653  1.00  0.00    -0.047 A 
ATOM      8  C   UNL     1       5.871   0.945  -0.189  1.00  0.00     0.004 A 
ATOM      9  C   UNL     1       6.867  -1.187   0.188  1.00  0.00     0.004 A 
ATOM     10  C   UNL     1       5.456   0.924   1.144  1.00  0.00     0.000 A 
ATOM     11  C   UNL     1       6.456  -1.206   1.506  1.00  0.00     0.000 A 
ATOM     12  C   UNL     1       5.740  -0.128   1.978  1.00  0.00     0.000 A 
ENDBRANCH   6   7
ENDBRANCH   1   6
TORSDOF 4
ENDMDL
MODEL 2
REMARK VINA RESULT:      -7.3      0.070      1.437
REMARK SMILES O=C(O)CCc1ccccc1
REMARK SMILES IDX 4 1 2 2 1 3 3 4 5 6 6 7 7 8 11 9 8 10 10 11 9 12
REMARK H PARENT 3 5
REMARK Flexibility Score: inf
ROOT
ATOM      1  C   UNL     1       8.481  -0.613  -2.174  1.00  0.00     0.127 C 
ENDROOT
BRANCH   1   2
ATOM      2  C   UNL     1       8.501  -1.893  -2.920  1.00  0.00     0.303 C 
ATOM      3  O   UNL     1       9.574  -2.516  -3.114  1.00  0.00    -0.252 OA
BRANCH   2   4
ATOM      4  O   UNL     1       7.332  -2.439  -3.425  1.00  0.00    -0.481 OA
ATOM      5  H   UNL     1       6.437  -1.988  -3.216  1.00  0.00     0.296 HD
ENDBRANCH   2   4
ENDBRANCH   1   2
BRANCH   1   6
ATOM      6  C   UNL     1       7.055  -0.178  -2.023  1.00  0.00     0.047 C 
BRANCH   6   7
ATOM      7  C   UNL     1       6.579  -0.168  -0.641  1.00  0.00    -0.047 A 
ATOM      8  C   UNL     1       6.809  -1.240   0.190  1.00  0.00     0.004 A 
ATOM      9  C   UNL     1       5.897   0.932  -0.174  1.00  0.00     0.004 A 
ATOM     10  C   UNL     1       6.326  -1.161   1.498  1.00  0.00     0.000 A 
ATOM     11  C   UNL     1       5.420   1.008   1.119  1.00  0.00     0.000 A 
ATOM     12  C   UNL     1       5.645  -0.062   1.958  1.00  0.00     0.000 A 
ENDBRANCH   6   7
ENDBRANCH   1   6
TORSDOF 4
ENDMDL
MODEL 3
REMARK VINA RESULT:      -7.0      0.823      1.028
REMARK SMILES O=C(O)CCc1ccccc1
REMARK SMILES IDX 4 1 2 2 1 3 3 4 5 6 6 7 7 8 11 9 8 10 10 11 9 12
REMARK H PARENT 3 5
REMARK Flexibility Score: inf
ROOT
ATOM      1  C   UNL     1       7.270  -1.372  -2.353  1.00  0.00     0.127 C 
ENDROOT
BRANCH   1   2
ATOM      2  C   UNL     1       8.732  -1.435  -2.586  1.00  0.00     0.303 C 
ATOM      3  O   UNL     1       9.499  -0.537  -2.158  1.00  0.00    -0.252 OA
BRANCH   2   4
ATOM      4  O   UNL     1       9.295  -2.490  -3.286  1.00  0.00    -0.481 OA
ATOM      5  H   UNL     1       8.705  -3.283  -3.556  1.00  0.00     0.296 HD
ENDBRANCH   2   4
ENDBRANCH   1   2
BRANCH   1   6
ATOM      6  C   UNL     1       6.937  -0.013  -1.816  1.00  0.00     0.047 C 
BRANCH   6   7
ATOM      7  C   UNL     1       6.423  -0.024  -0.448  1.00  0.00    -0.047 A 
ATOM      8  C   UNL     1       5.703   1.041   0.042  1.00  0.00     0.004 A 
ATOM      9  C   UNL     1       6.664  -1.118   0.351  1.00  0.00     0.004 A 
ATOM     10  C   UNL     1       5.241   0.961   1.358  1.00  0.00     0.000 A 
ATOM     11  C   UNL     1       6.207  -1.195   1.652  1.00  0.00     0.000 A 
ATOM     12  C   UNL     1       5.486  -0.132   2.150  1.00  0.00     0.000 A 
ENDBRANCH   6   7
ENDBRANCH   1   6
TORSDOF 4
ENDMDL
MODEL 4
REMARK VINA RESULT:      -6.9      0.840      1.771
REMARK SMILES O=C(O)CCc1ccccc1
REMARK SMILES IDX 4 1 2 2 1 3 3 4 5 6 6 7 7 8 11 9 8 10 10 11 9 12
REMARK H PARENT 3 5
REMARK Flexibility Score: inf
ROOT
ATOM      1  C   UNL     1       7.235  -1.208  -2.405  1.00  0.00     0.127 C 
ENDROOT
BRANCH   1   2
ATOM      2  C   UNL     1       8.699  -1.347  -2.587  1.00  0.00     0.303 C 
ATOM      3  O   UNL     1       9.497  -0.502  -2.111  1.00  0.00    -0.252 OA
BRANCH   2   4
ATOM      4  O   UNL     1       9.229  -2.417  -3.289  1.00  0.00    -0.481 OA
ATOM      5  H   UNL     1       9.456  -3.281  -2.790  1.00  0.00     0.296 HD
ENDBRANCH   2   4
ENDBRANCH   1   2
BRANCH   1   6
ATOM      6  C   UNL     1       6.966   0.106  -1.737  1.00  0.00     0.047 C 
BRANCH   6   7
ATOM      7  C   UNL     1       6.449  -0.014  -0.375  1.00  0.00    -0.047 A 
ATOM      8  C   UNL     1       6.701  -1.139   0.376  1.00  0.00     0.004 A 
ATOM      9  C   UNL     1       5.706   1.016   0.154  1.00  0.00     0.004 A 
ATOM     10  C   UNL     1       6.177  -1.185   1.670  1.00  0.00     0.000 A 
ATOM     11  C   UNL     1       5.188   0.968   1.433  1.00  0.00     0.000 A 
ATOM     12  C   UNL     1       5.435  -0.155   2.192  1.00  0.00     0.000 A 
ENDBRANCH   6   7
ENDBRANCH   1   6
TORSDOF 4
ENDMDL
MODEL 5
REMARK VINA RESULT:      -6.6      3.213      4.904
REMARK SMILES O=C(O)CCc1ccccc1
REMARK SMILES IDX 4 1 2 2 1 3 3 4 5 6 6 7 7 8 11 9 8 10 10 11 9 12
REMARK H PARENT 3 5
REMARK Flexibility Score: inf
ROOT
ATOM      1  C   UNL     1       5.954  -0.736   1.719  1.00  0.00     0.127 C 
ENDROOT
BRANCH   1   2
ATOM      2  C   UNL     1       5.266   0.553   1.966  1.00  0.00     0.303 C 
ATOM      3  O   UNL     1       4.120   0.591   2.479  1.00  0.00    -0.252 OA
BRANCH   2   4
ATOM      4  O   UNL     1       5.870   1.755   1.636  1.00  0.00    -0.481 OA
ATOM      5  H   UNL     1       5.290   2.537   1.319  1.00  0.00     0.296 HD
ENDBRANCH   2   4
ENDBRANCH   1   2
BRANCH   1   6
ATOM      6  C   UNL     1       7.390  -0.450   1.400  1.00  0.00     0.047 C 
BRANCH   6   7
ATOM      7  C   UNL     1       7.676  -0.375  -0.032  1.00  0.00    -0.047 A 
ATOM      8  C   UNL     1       8.612   0.509  -0.516  1.00  0.00     0.004 A 
ATOM      9  C   UNL     1       7.000  -1.204  -0.896  1.00  0.00     0.004 A 
ATOM     10  C   UNL     1       8.836   0.526  -1.895  1.00  0.00     0.000 A 
ATOM     11  C   UNL     1       7.222  -1.186  -2.259  1.00  0.00     0.000 A 
ATOM     12  C   UNL     1       8.157  -0.302  -2.753  1.00  0.00     0.000 A 
ENDBRANCH   6   7
ENDBRANCH   1   6
TORSDOF 4
ENDMDL
