@<TRIPOS>MOLECULE
/home/cewinharhar/GITHUB/reincatalyze/data/processed/docking_pred/2023-Apr-26-1657_maxeplen10_maxtrainstep1000_exh32_gamma099_lrac9e-4_lrcr1e-3/404021d27c656f8fbd9408a440432f577c9906d0_ligand_2.pdbqt
 12 12 0 0 0
SMALL
GASTEIGER

@<TRIPOS>ATOM
      1  C          8.4840   -0.6040   -2.1830 C.3     1  UNL1        0.1270
      2  C          8.5170   -1.8950   -2.9110 C.2     1  UNL1        0.3030
      3  O          9.5950   -2.5140   -3.0880 O.2     1  UNL1       -0.2520
      4  O          7.3550   -2.4550   -3.4170 O.3     1  UNL1       -0.4810
      5  H          7.0890   -2.2660   -4.3870 H       1  UNL1        0.2960
      6  C          7.0530   -0.1830   -2.0370 C.3     1  UNL1        0.0470
      7  C          6.5860   -0.1350   -0.6530 C.2     1  UNL1       -0.0470
      8  C          5.8710    0.9450   -0.1890 C.2     1  UNL1        0.0040
      9  C          6.8670   -1.1870    0.1880 C.2     1  UNL1        0.0040
     10  C          5.4560    0.9240    1.1440 C.2     1  UNL1        0.0000
     11  C          6.4560   -1.2060    1.5060 C.2     1  UNL1        0.0000
     12  C          5.7400   -0.1280    1.9780 C.2     1  UNL1        0.0000
@<TRIPOS>BOND
     1     5     4    1
     2     4     2    1
     3     3     2    2
     4     2     1    1
     5     1     6    1
     6     6     7    1
     7     7     8    2
     8     7     9    1
     9     8    10    1
    10     9    11    2
    11    10    12    2
    12    11    12    1
