@<TRIPOS>MOLECULE
/home/cewinharhar/GITHUB/reincatalyze/data/processed/docking_pred/2023-Apr-26-1657_maxeplen10_maxtrainstep1000_exh32_gamma099_lrac9e-4_lrcr1e-3/41d0b72e0d67d5e9a3b384f9954b5fa92cfe5642_ligand_2.pdbqt
 12 12 0 0 0
SMALL
GASTEIGER

@<TRIPOS>ATOM
      1  C          8.3220    0.3840   -1.8930 C.3     1  UNL1        0.1270
      2  C          9.4750    0.2210   -0.9770 C.2     1  UNL1        0.3030
      3  O          9.4080   -0.5330    0.0250 O.2     1  UNL1       -0.2520
      4  O         10.6620    0.8990   -1.2010 O.3     1  UNL1       -0.4810
      5  H         10.8570    1.7550   -0.6750 H       1  UNL1        0.2960
      6  C          7.1870   -0.4470   -1.3760 C.3     1  UNL1        0.0470
      7  C          6.3540    0.2350   -0.3860 C.2     1  UNL1       -0.0470
      8  C          5.7910    1.4590   -0.6650 C.2     1  UNL1        0.0040
      9  C          6.1350   -0.3630    0.8330 C.2     1  UNL1        0.0040
     10  C          5.0060    2.0510    0.3270 C.2     1  UNL1        0.0000
     11  C          5.3590    0.2250    1.8120 C.2     1  UNL1        0.0000
     12  C          4.7910    1.4510    1.5420 C.2     1  UNL1        0.0000
@<TRIPOS>BOND
     1     1     6    1
     2     1     2    1
     3     6     7    1
     4     4     2    1
     5     4     5    1
     6     2     3    2
     7     8     7    2
     8     8    10    1
     9     7     9    1
    10    10    12    2
    11     9    11    2
    12    12    11    1
