@<TRIPOS>MOLECULE
/home/cewinharhar/GITHUB/reincatalyze/data/processed/docking_pred/2023-Apr-26-1657_maxeplen10_maxtrainstep1000_exh32_gamma099_lrac9e-4_lrcr1e-3/41d0b72e0d67d5e9a3b384f9954b5fa92cfe5642_ligand_2.pdbqt
 12 12 0 0 0
SMALL
GASTEIGER

@<TRIPOS>ATOM
      1  C          5.5980    2.7020   -0.0310 C.3     1  UNL1        0.1270
      2  C          6.2340    3.7450    0.8090 C.2     1  UNL1        0.3030
      3  O          6.1310    3.7250    2.0600 O.2     1  UNL1       -0.2520
      4  O          6.9630    4.7730    0.2330 O.3     1  UNL1       -0.4810
      5  H          7.6560    5.2730    0.7970 H       1  UNL1        0.2960
      6  C          5.0010    1.6680    0.8750 C.3     1  UNL1        0.0470
      7  C          5.7900    0.4410    0.9770 C.2     1  UNL1       -0.0470
      8  C          5.7560   -0.3230    2.1200 C.2     1  UNL1        0.0040
      9  C          6.5700    0.0540   -0.0880 C.2     1  UNL1        0.0040
     10  C          6.5340   -1.4830    2.1470 C.2     1  UNL1        0.0000
     11  C          7.3380   -1.0930   -0.0600 C.2     1  UNL1        0.0000
     12  C          7.3110   -1.8640    1.0820 C.2     1  UNL1        0.0000
@<TRIPOS>BOND
     1     9    11    1
     2     9     7    2
     3    11    12    2
     4     1     2    1
     5     1     6    1
     6     4     5    1
     7     4     2    1
     8     2     3    2
     9     6     7    1
    10     7     8    1
    11    12    10    1
    12     8    10    2
