@<TRIPOS>MOLECULE
/home/cewinharhar/GITHUB/reincatalyze/data/processed/docking_pred/2023-Apr-26-1657_maxeplen10_maxtrainstep1000_exh32_gamma099_lrac9e-4_lrcr1e-3/41d0b72e0d67d5e9a3b384f9954b5fa92cfe5642_ligand_2.pdbqt
 12 12 0 0 0
SMALL
GASTEIGER

@<TRIPOS>ATOM
      1  C          5.0280    1.6960    0.6780 C.3     1  UNL1        0.1270
      2  C          4.6080    1.0250    1.9310 C.2     1  UNL1        0.3030
      3  O          5.3540    0.1940    2.5060 O.2     1  UNL1       -0.2520
      4  O          3.3760    1.2970    2.5040 O.3     1  UNL1       -0.4810
      5  H          3.2230    2.2020    2.9560 H       1  UNL1        0.2960
      6  C          6.5230    1.7980    0.6770 C.3     1  UNL1        0.0470
      7  C          7.1690    1.0390   -0.3920 C.2     1  UNL1       -0.0470
      8  C          8.5180    1.1690   -0.6310 C.2     1  UNL1        0.0040
      9  C          6.4130    0.1850   -1.1610 C.2     1  UNL1        0.0040
     10  C          9.0680    0.4120   -1.6680 C.2     1  UNL1        0.0000
     11  C          6.9590   -0.5620   -2.1860 C.2     1  UNL1        0.0000
     12  C          8.3090   -0.4370   -2.4330 C.2     1  UNL1        0.0000
@<TRIPOS>BOND
     1    12    11    2
     2    12    10    1
     3    11     9    1
     4    10     8    2
     5     9     7    2
     6     8     7    1
     7     7     6    1
     8     6     1    1
     9     1     2    1
    10     2     4    1
    11     2     3    2
    12     4     5    1
