@<TRIPOS>MOLECULE
/home/cewinharhar/GITHUB/reincatalyze/data/processed/docking_pred/2023-Apr-26-1657_maxeplen10_maxtrainstep1000_exh32_gamma099_lrac9e-4_lrcr1e-3/41d0b72e0d67d5e9a3b384f9954b5fa92cfe5642_ligand_2.pdbqt
 12 12 0 0 0
SMALL
GASTEIGER

@<TRIPOS>ATOM
      1  C          8.4130   -0.6050   -2.1590 C.3     1  UNL1        0.1270
      2  C          8.3870   -1.8850   -2.9060 C.2     1  UNL1        0.3030
      3  O          7.3010   -2.4200   -3.2410 O.2     1  UNL1       -0.2520
      4  O          9.5640   -2.5270   -3.2560 O.3     1  UNL1       -0.4810
      5  H          9.6120   -3.0360   -4.1430 H       1  UNL1        0.2960
      6  C          7.0210   -0.0540   -2.1190 C.3     1  UNL1        0.0470
      7  C          6.4740    0.0860   -0.7700 C.2     1  UNL1       -0.0470
      8  C          6.6040   -0.9290    0.1500 C.2     1  UNL1        0.0040
      9  C          5.8270    1.2500   -0.4250 C.2     1  UNL1        0.0040
     10  C          6.0590   -0.7260    1.4190 C.2     1  UNL1        0.0000
     11  C          5.2890    1.4480    0.8300 C.2     1  UNL1        0.0000
     12  C          5.4130    0.4370    1.7570 C.2     1  UNL1        0.0000
@<TRIPOS>BOND
     1     5     4    1
     2     4     2    1
     3     3     2    2
     4     2     1    1
     5     1     6    1
     6     6     7    1
     7     7     9    2
     8     7     8    1
     9     9    11    1
    10     8    10    2
    11    11    12    2
    12    10    12    1
