MODEL 1
REMARK VINA RESULT:      -7.4      0.000      0.000
REMARK SMILES O=C(O)CCc1ccccc1
REMARK SMILES IDX 4 1 2 2 1 3 3 4 5 6 6 7 7 8 11 9 8 10 10 11 9 12
REMARK H PARENT 3 5
REMARK Flexibility Score: inf
ROOT
ATOM      1  C   UNL     1       8.439  -0.670  -2.079  1.00  0.00     0.127 C 
ENDROOT
BRANCH   1   2
ATOM      2  C   UNL     1       8.470  -1.924  -2.870  1.00  0.00     0.303 C 
ATOM      3  O   UNL     1       9.546  -2.540  -3.071  1.00  0.00    -0.252 OA
BRANCH   2   4
ATOM      4  O   UNL     1       7.309  -2.450  -3.411  1.00  0.00    -0.481 OA
ATOM      5  H   UNL     1       7.120  -3.452  -3.315  1.00  0.00     0.296 HD
ENDBRANCH   2   4
ENDBRANCH   1   2
BRANCH   1   6
ATOM      6  C   UNL     1       7.039  -0.139  -2.094  1.00  0.00     0.047 C 
BRANCH   6   7
ATOM      7  C   UNL     1       6.470   0.075  -0.764  1.00  0.00    -0.047 A 
ATOM      8  C   UNL     1       5.830   1.253  -0.455  1.00  0.00     0.004 A 
ATOM      9  C   UNL     1       6.580  -0.918   0.181  1.00  0.00     0.004 A 
ATOM     10  C   UNL     1       5.310   1.388   0.835  1.00  0.00     0.000 A 
ATOM     11  C   UNL     1       6.066  -0.782   1.455  1.00  0.00     0.000 A 
ATOM     12  C   UNL     1       5.424   0.394   1.774  1.00  0.00     0.000 A 
ENDBRANCH   6   7
ENDBRANCH   1   6
TORSDOF 4
ENDMDL
MODEL 2
REMARK VINA RESULT:      -7.3      0.099      1.730
REMARK SMILES O=C(O)CCc1ccccc1
REMARK SMILES IDX 4 1 2 2 1 3 3 4 5 6 6 7 7 8 11 9 8 10 10 11 9 12
REMARK H PARENT 3 5
REMARK Flexibility Score: inf
ROOT
ATOM      1  C   UNL     1       8.413  -0.605  -2.159  1.00  0.00     0.127 C 
ENDROOT
BRANCH   1   2
ATOM      2  C   UNL     1       8.387  -1.885  -2.906  1.00  0.00     0.303 C 
ATOM      3  O   UNL     1       7.301  -2.420  -3.241  1.00  0.00    -0.252 OA
BRANCH   2   4
ATOM      4  O   UNL     1       9.564  -2.527  -3.256  1.00  0.00    -0.481 OA
ATOM      5  H   UNL     1       9.612  -3.036  -4.143  1.00  0.00     0.296 HD
ENDBRANCH   2   4
ENDBRANCH   1   2
BRANCH   1   6
ATOM      6  C   UNL     1       7.021  -0.054  -2.119  1.00  0.00     0.047 C 
BRANCH   6   7
ATOM      7  C   UNL     1       6.474   0.086  -0.770  1.00  0.00    -0.047 A 
ATOM      8  C   UNL     1       6.604  -0.929   0.150  1.00  0.00     0.004 A 
ATOM      9  C   UNL     1       5.827   1.250  -0.425  1.00  0.00     0.004 A 
ATOM     10  C   UNL     1       6.059  -0.726   1.419  1.00  0.00     0.000 A 
ATOM     11  C   UNL     1       5.289   1.448   0.830  1.00  0.00     0.000 A 
ATOM     12  C   UNL     1       5.413   0.437   1.757  1.00  0.00     0.000 A 
ENDBRANCH   6   7
ENDBRANCH   1   6
TORSDOF 4
ENDMDL
MODEL 3
REMARK VINA RESULT:      -6.7      3.338      5.026
REMARK SMILES O=C(O)CCc1ccccc1
REMARK SMILES IDX 4 1 2 2 1 3 3 4 5 6 6 7 7 8 11 9 8 10 10 11 9 12
REMARK H PARENT 3 5
REMARK Flexibility Score: inf
ROOT
ATOM      1  C   UNL     1       5.028   1.696   0.678  1.00  0.00     0.127 C 
ENDROOT
BRANCH   1   2
ATOM      2  C   UNL     1       4.608   1.025   1.931  1.00  0.00     0.303 C 
ATOM      3  O   UNL     1       5.354   0.194   2.506  1.00  0.00    -0.252 OA
BRANCH   2   4
ATOM      4  O   UNL     1       3.376   1.297   2.504  1.00  0.00    -0.481 OA
ATOM      5  H   UNL     1       3.223   2.202   2.956  1.00  0.00     0.296 HD
ENDBRANCH   2   4
ENDBRANCH   1   2
BRANCH   1   6
ATOM      6  C   UNL     1       6.523   1.798   0.677  1.00  0.00     0.047 C 
BRANCH   6   7
ATOM      7  C   UNL     1       7.169   1.039  -0.392  1.00  0.00    -0.047 A 
ATOM      8  C   UNL     1       8.518   1.169  -0.631  1.00  0.00     0.004 A 
ATOM      9  C   UNL     1       6.413   0.185  -1.161  1.00  0.00     0.004 A 
ATOM     10  C   UNL     1       9.068   0.412  -1.668  1.00  0.00     0.000 A 
ATOM     11  C   UNL     1       6.959  -0.562  -2.186  1.00  0.00     0.000 A 
ATOM     12  C   UNL     1       8.309  -0.437  -2.433  1.00  0.00     0.000 A 
ENDBRANCH   6   7
ENDBRANCH   1   6
TORSDOF 4
ENDMDL
MODEL 4
REMARK VINA RESULT:      -6.6      3.828      4.970
REMARK SMILES O=C(O)CCc1ccccc1
REMARK SMILES IDX 4 1 2 2 1 3 3 4 5 6 6 7 7 8 11 9 8 10 10 11 9 12
REMARK H PARENT 3 5
REMARK Flexibility Score: inf
ROOT
ATOM      1  C   UNL     1       5.598   2.702  -0.031  1.00  0.00     0.127 C 
ENDROOT
BRANCH   1   2
ATOM      2  C   UNL     1       6.234   3.745   0.809  1.00  0.00     0.303 C 
ATOM      3  O   UNL     1       6.131   3.725   2.060  1.00  0.00    -0.252 OA
BRANCH   2   4
ATOM      4  O   UNL     1       6.963   4.773   0.233  1.00  0.00    -0.481 OA
ATOM      5  H   UNL     1       7.656   5.273   0.797  1.00  0.00     0.296 HD
ENDBRANCH   2   4
ENDBRANCH   1   2
BRANCH   1   6
ATOM      6  C   UNL     1       5.001   1.668   0.875  1.00  0.00     0.047 C 
BRANCH   6   7
ATOM      7  C   UNL     1       5.790   0.441   0.977  1.00  0.00    -0.047 A 
ATOM      8  C   UNL     1       5.756  -0.323   2.120  1.00  0.00     0.004 A 
ATOM      9  C   UNL     1       6.570   0.054  -0.088  1.00  0.00     0.004 A 
ATOM     10  C   UNL     1       6.534  -1.483   2.147  1.00  0.00     0.000 A 
ATOM     11  C   UNL     1       7.338  -1.093  -0.060  1.00  0.00     0.000 A 
ATOM     12  C   UNL     1       7.311  -1.864   1.082  1.00  0.00     0.000 A 
ENDBRANCH   6   7
ENDBRANCH   1   6
TORSDOF 4
ENDMDL
MODEL 5
REMARK VINA RESULT:      -6.6      1.999      2.280
REMARK SMILES O=C(O)CCc1ccccc1
REMARK SMILES IDX 4 1 2 2 1 3 3 4 5 6 6 7 7 8 11 9 8 10 10 11 9 12
REMARK H PARENT 3 5
REMARK Flexibility Score: inf
ROOT
ATOM      1  C   UNL     1       8.322   0.384  -1.893  1.00  0.00     0.127 C 
ENDROOT
BRANCH   1   2
ATOM      2  C   UNL     1       9.475   0.221  -0.977  1.00  0.00     0.303 C 
ATOM      3  O   UNL     1       9.408  -0.533   0.025  1.00  0.00    -0.252 OA
BRANCH   2   4
ATOM      4  O   UNL     1      10.662   0.899  -1.201  1.00  0.00    -0.481 OA
ATOM      5  H   UNL     1      10.857   1.755  -0.675  1.00  0.00     0.296 HD
ENDBRANCH   2   4
ENDBRANCH   1   2
BRANCH   1   6
ATOM      6  C   UNL     1       7.187  -0.447  -1.376  1.00  0.00     0.047 C 
BRANCH   6   7
ATOM      7  C   UNL     1       6.354   0.235  -0.386  1.00  0.00    -0.047 A 
ATOM      8  C   UNL     1       5.791   1.459  -0.665  1.00  0.00     0.004 A 
ATOM      9  C   UNL     1       6.135  -0.363   0.833  1.00  0.00     0.004 A 
ATOM     10  C   UNL     1       5.006   2.051   0.327  1.00  0.00     0.000 A 
ATOM     11  C   UNL     1       5.359   0.225   1.812  1.00  0.00     0.000 A 
ATOM     12  C   UNL     1       4.791   1.451   1.542  1.00  0.00     0.000 A 
ENDBRANCH   6   7
ENDBRANCH   1   6
TORSDOF 4
ENDMDL
