@<TRIPOS>MOLECULE
/home/cewinharhar/GITHUB/reincatalyze/data/processed/docking_pred/2023-Apr-26-1657_maxeplen10_maxtrainstep1000_exh32_gamma099_lrac9e-4_lrcr1e-3/41d0b72e0d67d5e9a3b384f9954b5fa92cfe5642_ligand_2.pdbqt
 12 12 0 0 0
SMALL
GASTEIGER

@<TRIPOS>ATOM
      1  C          8.4390   -0.6700   -2.0790 C.3     1  UNL1        0.1270
      2  C          8.4700   -1.9240   -2.8700 C.2     1  UNL1        0.3030
      3  O          9.5460   -2.5400   -3.0710 O.2     1  UNL1       -0.2520
      4  O          7.3090   -2.4500   -3.4110 O.3     1  UNL1       -0.4810
      5  H          7.1200   -3.4520   -3.3150 H       1  UNL1        0.2960
      6  C          7.0390   -0.1390   -2.0940 C.3     1  UNL1        0.0470
      7  C          6.4700    0.0750   -0.7640 C.2     1  UNL1       -0.0470
      8  C          5.8300    1.2530   -0.4550 C.2     1  UNL1        0.0040
      9  C          6.5800   -0.9180    0.1810 C.2     1  UNL1        0.0040
     10  C          5.3100    1.3880    0.8350 C.2     1  UNL1        0.0000
     11  C          6.0660   -0.7820    1.4550 C.2     1  UNL1        0.0000
     12  C          5.4240    0.3940    1.7740 C.2     1  UNL1        0.0000
@<TRIPOS>BOND
     1     4     5    1
     2     4     2    1
     3     3     2    2
     4     2     1    1
     5     6     1    1
     6     6     7    1
     7     7     8    2
     8     7     9    1
     9     8    10    1
    10     9    11    2
    11    10    12    2
    12    11    12    1
