MODEL 1
REMARK VINA RESULT:      -7.2      0.000      0.000
REMARK SMILES O=C(O)CCc1ccccc1
REMARK SMILES IDX 4 1 2 2 1 3 3 4 5 6 6 7 7 8 11 9 8 10 10 11 9 12
REMARK H PARENT 3 5
REMARK Flexibility Score: inf
ROOT
ATOM      1  C   UNL     1       8.374  -0.649  -2.043  1.00  0.00     0.127 C 
ENDROOT
BRANCH   1   2
ATOM      2  C   UNL     1       8.356  -1.882  -2.865  1.00  0.00     0.303 C 
ATOM      3  O   UNL     1       7.274  -2.400  -3.238  1.00  0.00    -0.252 OA
BRANCH   2   4
ATOM      4  O   UNL     1       9.537  -2.499  -3.245  1.00  0.00    -0.481 OA
ATOM      5  H   UNL     1      10.030  -3.094  -2.574  1.00  0.00     0.296 HD
ENDBRANCH   2   4
ENDBRANCH   1   2
BRANCH   1   6
ATOM      6  C   UNL     1       6.998  -0.057  -2.053  1.00  0.00     0.047 C 
BRANCH   6   7
ATOM      7  C   UNL     1       6.428   0.148  -0.722  1.00  0.00    -0.047 A 
ATOM      8  C   UNL     1       5.776   1.317  -0.408  1.00  0.00     0.004 A 
ATOM      9  C   UNL     1       6.550  -0.848   0.220  1.00  0.00     0.004 A 
ATOM     10  C   UNL     1       5.256   1.443   0.882  1.00  0.00     0.000 A 
ATOM     11  C   UNL     1       6.036  -0.721   1.495  1.00  0.00     0.000 A 
ATOM     12  C   UNL     1       5.381   0.448   1.818  1.00  0.00     0.000 A 
ENDBRANCH   6   7
ENDBRANCH   1   6
TORSDOF 4
ENDMDL
MODEL 2
REMARK VINA RESULT:      -7.2      0.911      1.822
REMARK SMILES O=C(O)CCc1ccccc1
REMARK SMILES IDX 4 1 2 2 1 3 3 4 5 6 6 7 7 8 11 9 8 10 10 11 9 12
REMARK H PARENT 3 5
REMARK Flexibility Score: inf
ROOT
ATOM      1  C   UNL     1       7.187  -1.212  -2.143  1.00  0.00     0.127 C 
ENDROOT
BRANCH   1   2
ATOM      2  C   UNL     1       8.630  -1.341  -2.454  1.00  0.00     0.303 C 
ATOM      3  O   UNL     1       9.463  -0.498  -2.041  1.00  0.00    -0.252 OA
BRANCH   2   4
ATOM      4  O   UNL     1       9.100  -2.400  -3.214  1.00  0.00    -0.481 OA
ATOM      5  H   UNL     1      10.025  -2.790  -3.013  1.00  0.00     0.296 HD
ENDBRANCH   2   4
ENDBRANCH   1   2
BRANCH   1   6
ATOM      6  C   UNL     1       6.900   0.225  -1.830  1.00  0.00     0.047 C 
BRANCH   6   7
ATOM      7  C   UNL     1       6.276   0.436  -0.524  1.00  0.00    -0.047 A 
ATOM      8  C   UNL     1       6.387  -0.508   0.469  1.00  0.00     0.004 A 
ATOM      9  C   UNL     1       5.573   1.597  -0.296  1.00  0.00     0.004 A 
ATOM     10  C   UNL     1       5.767  -0.240   1.692  1.00  0.00     0.000 A 
ATOM     11  C   UNL     1       4.960   1.860   0.912  1.00  0.00     0.000 A 
ATOM     12  C   UNL     1       5.066   0.919   1.913  1.00  0.00     0.000 A 
ENDBRANCH   6   7
ENDBRANCH   1   6
TORSDOF 4
ENDMDL
MODEL 3
REMARK VINA RESULT:      -6.9      3.310      5.135
REMARK SMILES O=C(O)CCc1ccccc1
REMARK SMILES IDX 4 1 2 2 1 3 3 4 5 6 6 7 7 8 11 9 8 10 10 11 9 12
REMARK H PARENT 3 5
REMARK Flexibility Score: inf
ROOT
ATOM      1  C   UNL     1       5.067   1.807   0.713  1.00  0.00     0.127 C 
ENDROOT
BRANCH   1   2
ATOM      2  C   UNL     1       4.673   1.165   1.989  1.00  0.00     0.303 C 
ATOM      3  O   UNL     1       5.391   0.284   2.523  1.00  0.00    -0.252 OA
BRANCH   2   4
ATOM      4  O   UNL     1       3.496   1.521   2.629  1.00  0.00    -0.481 OA
ATOM      5  H   UNL     1       3.498   2.315   3.275  1.00  0.00     0.296 HD
ENDBRANCH   2   4
ENDBRANCH   1   2
BRANCH   1   6
ATOM      6  C   UNL     1       6.563   1.877   0.663  1.00  0.00     0.047 C 
BRANCH   6   7
ATOM      7  C   UNL     1       7.161   1.061  -0.392  1.00  0.00    -0.047 A 
ATOM      8  C   UNL     1       6.397   0.176  -1.116  1.00  0.00     0.004 A 
ATOM      9  C   UNL     1       8.505   1.188  -0.658  1.00  0.00     0.004 A 
ATOM     10  C   UNL     1       7.035  -0.570  -2.109  1.00  0.00     0.000 A 
ATOM     11  C   UNL     1       9.134   0.449  -1.640  1.00  0.00     0.000 A 
ATOM     12  C   UNL     1       8.376  -0.440  -2.369  1.00  0.00     0.000 A 
ENDBRANCH   6   7
ENDBRANCH   1   6
TORSDOF 4
ENDMDL
MODEL 4
REMARK VINA RESULT:      -6.8      1.928      2.546
REMARK SMILES O=C(O)CCc1ccccc1
REMARK SMILES IDX 4 1 2 2 1 3 3 4 5 6 6 7 7 8 11 9 8 10 10 11 9 12
REMARK H PARENT 3 5
REMARK Flexibility Score: inf
ROOT
ATOM      1  C   UNL     1       8.068   0.276  -1.999  1.00  0.00     0.127 C 
ENDROOT
BRANCH   1   2
ATOM      2  C   UNL     1       9.282   0.326  -1.150  1.00  0.00     0.303 C 
ATOM      3  O   UNL     1       9.424  -0.449  -0.172  1.00  0.00    -0.252 OA
BRANCH   2   4
ATOM      4  O   UNL     1      10.295   1.234  -1.412  1.00  0.00    -0.481 OA
ATOM      5  H   UNL     1      10.471   1.522  -2.379  1.00  0.00     0.296 HD
ENDBRANCH   2   4
ENDBRANCH   1   2
BRANCH   1   6
ATOM      6  C   UNL     1       7.049  -0.582  -1.313  1.00  0.00     0.047 C 
BRANCH   6   7
ATOM      7  C   UNL     1       6.302   0.107  -0.262  1.00  0.00    -0.047 A 
ATOM      8  C   UNL     1       6.142  -0.467   0.978  1.00  0.00     0.004 A 
ATOM      9  C   UNL     1       5.759   1.343  -0.524  1.00  0.00     0.004 A 
ATOM     10  C   UNL     1       5.418   0.248   1.934  1.00  0.00     0.000 A 
ATOM     11  C   UNL     1       5.043   2.049   0.422  1.00  0.00     0.000 A 
ATOM     12  C   UNL     1       4.877   1.481   1.667  1.00  0.00     0.000 A 
ENDBRANCH   6   7
ENDBRANCH   1   6
TORSDOF 4
ENDMDL
MODEL 5
REMARK VINA RESULT:      -6.7      2.251      2.812
REMARK SMILES O=C(O)CCc1ccccc1
REMARK SMILES IDX 4 1 2 2 1 3 3 4 5 6 6 7 7 8 11 9 8 10 10 11 9 12
REMARK H PARENT 3 5
REMARK Flexibility Score: inf
ROOT
ATOM      1  C   UNL     1       8.169  -1.178   0.185  1.00  0.00     0.127 C 
ENDROOT
BRANCH   1   2
ATOM      2  C   UNL     1       8.041  -2.522   0.795  1.00  0.00     0.303 C 
ATOM      3  O   UNL     1       8.971  -3.363   0.718  1.00  0.00    -0.252 OA
BRANCH   2   4
ATOM      4  O   UNL     1       6.888  -2.889   1.470  1.00  0.00    -0.481 OA
ATOM      5  H   UNL     1       6.566  -2.319   2.258  1.00  0.00     0.296 HD
ENDBRANCH   2   4
ENDBRANCH   1   2
BRANCH   1   6
ATOM      6  C   UNL     1       6.914  -0.887  -0.580  1.00  0.00     0.047 C 
BRANCH   6   7
ATOM      7  C   UNL     1       6.157   0.255  -0.069  1.00  0.00    -0.047 A 
ATOM      8  C   UNL     1       5.867   1.326  -0.882  1.00  0.00     0.004 A 
ATOM      9  C   UNL     1       5.733   0.248   1.239  1.00  0.00     0.004 A 
ATOM     10  C   UNL     1       5.140   2.382  -0.327  1.00  0.00     0.000 A 
ATOM     11  C   UNL     1       5.014   1.293   1.786  1.00  0.00     0.000 A 
ATOM     12  C   UNL     1       4.720   2.370   0.979  1.00  0.00     0.000 A 
ENDBRANCH   6   7
ENDBRANCH   1   6
TORSDOF 4
ENDMDL
