@<TRIPOS>MOLECULE
/home/cewinharhar/GITHUB/reincatalyze/data/processed/docking_pred/2023-Apr-26-1657_maxeplen10_maxtrainstep1000_exh32_gamma099_lrac9e-4_lrcr1e-3/42234a6127519c7502e2f6bf4b16ee47cf11c698_ligand_2.pdbqt
 12 12 0 0 0
SMALL
GASTEIGER

@<TRIPOS>ATOM
      1  C          8.0680    0.2760   -1.9990 C.3     1  UNL1        0.1270
      2  C          9.2820    0.3260   -1.1500 C.2     1  UNL1        0.3030
      3  O          9.4240   -0.4490   -0.1720 O.2     1  UNL1       -0.2520
      4  O         10.2950    1.2340   -1.4120 O.3     1  UNL1       -0.4810
      5  H         10.4710    1.5220   -2.3790 H       1  UNL1        0.2960
      6  C          7.0490   -0.5820   -1.3130 C.3     1  UNL1        0.0470
      7  C          6.3020    0.1070   -0.2620 C.2     1  UNL1       -0.0470
      8  C          6.1420   -0.4670    0.9780 C.2     1  UNL1        0.0040
      9  C          5.7590    1.3430   -0.5240 C.2     1  UNL1        0.0040
     10  C          5.4180    0.2480    1.9340 C.2     1  UNL1        0.0000
     11  C          5.0430    2.0490    0.4220 C.2     1  UNL1        0.0000
     12  C          4.8770    1.4810    1.6670 C.2     1  UNL1        0.0000
@<TRIPOS>BOND
     1     5     4    1
     2     1     6    1
     3     1     2    1
     4     4     2    1
     5     6     7    1
     6     2     3    2
     7     9     7    2
     8     9    11    1
     9     7     8    1
    10    11    12    2
    11     8    10    2
    12    12    10    1
