@<TRIPOS>MOLECULE
/home/cewinharhar/GITHUB/reincatalyze/data/processed/docking_pred/2023-Apr-26-1657_maxeplen10_maxtrainstep1000_exh32_gamma099_lrac9e-4_lrcr1e-3/42234a6127519c7502e2f6bf4b16ee47cf11c698_ligand_2.pdbqt
 12 12 0 0 0
SMALL
GASTEIGER

@<TRIPOS>ATOM
      1  C          8.3740   -0.6490   -2.0430 C.3     1  UNL1        0.1270
      2  C          8.3560   -1.8820   -2.8650 C.2     1  UNL1        0.3030
      3  O          7.2740   -2.4000   -3.2380 O.2     1  UNL1       -0.2520
      4  O          9.5370   -2.4990   -3.2450 O.3     1  UNL1       -0.4810
      5  H         10.0300   -3.0940   -2.5740 H       1  UNL1        0.2960
      6  C          6.9980   -0.0570   -2.0530 C.3     1  UNL1        0.0470
      7  C          6.4280    0.1480   -0.7220 C.2     1  UNL1       -0.0470
      8  C          5.7760    1.3170   -0.4080 C.2     1  UNL1        0.0040
      9  C          6.5500   -0.8480    0.2200 C.2     1  UNL1        0.0040
     10  C          5.2560    1.4430    0.8820 C.2     1  UNL1        0.0000
     11  C          6.0360   -0.7210    1.4950 C.2     1  UNL1        0.0000
     12  C          5.3810    0.4480    1.8180 C.2     1  UNL1        0.0000
@<TRIPOS>BOND
     1     4     2    1
     2     4     5    1
     3     3     2    2
     4     2     1    1
     5     6     1    1
     6     6     7    1
     7     7     8    2
     8     7     9    1
     9     8    10    1
    10     9    11    2
    11    10    12    2
    12    11    12    1
