@<TRIPOS>MOLECULE
/home/cewinharhar/GITHUB/reincatalyze/data/processed/docking_pred/2023-Apr-26-1657_maxeplen10_maxtrainstep1000_exh32_gamma099_lrac9e-4_lrcr1e-3/42234a6127519c7502e2f6bf4b16ee47cf11c698_ligand_2.pdbqt
 12 12 0 0 0
SMALL
GASTEIGER

@<TRIPOS>ATOM
      1  C          8.1690   -1.1780    0.1850 C.3     1  UNL1        0.1270
      2  C          8.0410   -2.5220    0.7950 C.2     1  UNL1        0.3030
      3  O          8.9710   -3.3630    0.7180 O.2     1  UNL1       -0.2520
      4  O          6.8880   -2.8890    1.4700 O.3     1  UNL1       -0.4810
      5  H          6.5660   -2.3190    2.2580 H       1  UNL1        0.2960
      6  C          6.9140   -0.8870   -0.5800 C.3     1  UNL1        0.0470
      7  C          6.1570    0.2550   -0.0690 C.2     1  UNL1       -0.0470
      8  C          5.8670    1.3260   -0.8820 C.2     1  UNL1        0.0040
      9  C          5.7330    0.2480    1.2390 C.2     1  UNL1        0.0040
     10  C          5.1400    2.3820   -0.3270 C.2     1  UNL1        0.0000
     11  C          5.0140    1.2930    1.7860 C.2     1  UNL1        0.0000
     12  C          4.7200    2.3700    0.9790 C.2     1  UNL1        0.0000
@<TRIPOS>BOND
     1     8    10    1
     2     8     7    2
     3     6     7    1
     4     6     1    1
     5    10    12    2
     6     7     9    1
     7     1     2    1
     8     3     2    2
     9     2     4    1
    10    12    11    1
    11     9    11    2
    12     4     5    1
