@<TRIPOS>MOLECULE
/home/cewinharhar/GITHUB/reincatalyze/data/processed/docking_pred/2023-Apr-26-1657_maxeplen10_maxtrainstep1000_exh32_gamma099_lrac9e-4_lrcr1e-3/42234a6127519c7502e2f6bf4b16ee47cf11c698_ligand_2.pdbqt
 12 12 0 0 0
SMALL
GASTEIGER

@<TRIPOS>ATOM
      1  C          5.0670    1.8070    0.7130 C.3     1  UNL1        0.1270
      2  C          4.6730    1.1650    1.9890 C.2     1  UNL1        0.3030
      3  O          5.3910    0.2840    2.5230 O.2     1  UNL1       -0.2520
      4  O          3.4960    1.5210    2.6290 O.3     1  UNL1       -0.4810
      5  H          3.4980    2.3150    3.2750 H       1  UNL1        0.2960
      6  C          6.5630    1.8770    0.6630 C.3     1  UNL1        0.0470
      7  C          7.1610    1.0610   -0.3920 C.2     1  UNL1       -0.0470
      8  C          6.3970    0.1760   -1.1160 C.2     1  UNL1        0.0040
      9  C          8.5050    1.1880   -0.6580 C.2     1  UNL1        0.0040
     10  C          7.0350   -0.5700   -2.1090 C.2     1  UNL1        0.0000
     11  C          9.1340    0.4490   -1.6400 C.2     1  UNL1        0.0000
     12  C          8.3760   -0.4400   -2.3690 C.2     1  UNL1        0.0000
@<TRIPOS>BOND
     1    12    10    2
     2    12    11    1
     3    10     8    1
     4    11     9    2
     5     8     7    2
     6     9     7    1
     7     7     6    1
     8     6     1    1
     9     1     2    1
    10     2     3    2
    11     2     4    1
    12     4     5    1
