@<TRIPOS>MOLECULE
/home/cewinharhar/GITHUB/reincatalyze/data/processed/docking_pred/2023-Apr-26-1657_maxeplen10_maxtrainstep1000_exh32_gamma099_lrac9e-4_lrcr1e-3/42234a6127519c7502e2f6bf4b16ee47cf11c698_ligand_2.pdbqt
 12 12 0 0 0
SMALL
GASTEIGER

@<TRIPOS>ATOM
      1  C          7.1870   -1.2120   -2.1430 C.3     1  UNL1        0.1270
      2  C          8.6300   -1.3410   -2.4540 C.2     1  UNL1        0.3030
      3  O          9.4630   -0.4980   -2.0410 O.2     1  UNL1       -0.2520
      4  O          9.1000   -2.4000   -3.2140 O.3     1  UNL1       -0.4810
      5  H         10.0250   -2.7900   -3.0130 H       1  UNL1        0.2960
      6  C          6.9000    0.2250   -1.8300 C.3     1  UNL1        0.0470
      7  C          6.2760    0.4360   -0.5240 C.2     1  UNL1       -0.0470
      8  C          6.3870   -0.5080    0.4690 C.2     1  UNL1        0.0040
      9  C          5.5730    1.5970   -0.2960 C.2     1  UNL1        0.0040
     10  C          5.7670   -0.2400    1.6920 C.2     1  UNL1        0.0000
     11  C          4.9600    1.8600    0.9120 C.2     1  UNL1        0.0000
     12  C          5.0660    0.9190    1.9130 C.2     1  UNL1        0.0000
@<TRIPOS>BOND
     1     4     5    1
     2     4     2    1
     3     2     1    1
     4     2     3    2
     5     1     6    1
     6     6     7    1
     7     7     9    2
     8     7     8    1
     9     9    11    1
    10     8    10    2
    11    11    12    2
    12    10    12    1
