MODEL 1
REMARK VINA RESULT:      -7.3      0.000      0.000
REMARK SMILES O=C(O)CCc1ccccc1
REMARK SMILES IDX 4 1 2 2 1 3 3 4 5 6 6 7 7 8 11 9 8 10 10 11 9 12
REMARK H PARENT 3 5
REMARK Flexibility Score: inf
ROOT
ATOM      1  C   UNL     1       8.424  -0.613  -2.171  1.00  0.00     0.127 C 
ENDROOT
BRANCH   1   2
ATOM      2  C   UNL     1       8.469  -1.902  -2.902  1.00  0.00     0.303 C 
ATOM      3  O   UNL     1       9.554  -2.505  -3.092  1.00  0.00    -0.252 OA
BRANCH   2   4
ATOM      4  O   UNL     1       7.310  -2.477  -3.397  1.00  0.00    -0.481 OA
ATOM      5  H   UNL     1       6.928  -2.148  -4.288  1.00  0.00     0.296 HD
ENDBRANCH   2   4
ENDBRANCH   1   2
BRANCH   1   6
ATOM      6  C   UNL     1       7.002  -0.145  -2.127  1.00  0.00     0.047 C 
BRANCH   6   7
ATOM      7  C   UNL     1       6.471   0.019  -0.775  1.00  0.00    -0.047 A 
ATOM      8  C   UNL     1       6.586  -0.989   0.153  1.00  0.00     0.004 A 
ATOM      9  C   UNL     1       5.852   1.200  -0.436  1.00  0.00     0.004 A 
ATOM     10  C   UNL     1       6.057  -0.763   1.426  1.00  0.00     0.000 A 
ATOM     11  C   UNL     1       5.329   1.422   0.822  1.00  0.00     0.000 A 
ATOM     12  C   UNL     1       5.440   0.417   1.758  1.00  0.00     0.000 A 
ENDBRANCH   6   7
ENDBRANCH   1   6
TORSDOF 4
ENDMDL
MODEL 2
REMARK VINA RESULT:      -7.3      0.105      1.440
REMARK SMILES O=C(O)CCc1ccccc1
REMARK SMILES IDX 4 1 2 2 1 3 3 4 5 6 6 7 7 8 11 9 8 10 10 11 9 12
REMARK H PARENT 3 5
REMARK Flexibility Score: inf
ROOT
ATOM      1  C   UNL     1       8.504  -0.669  -2.118  1.00  0.00     0.127 C 
ENDROOT
BRANCH   1   2
ATOM      2  C   UNL     1       8.570  -1.916  -2.915  1.00  0.00     0.303 C 
ATOM      3  O   UNL     1       9.666  -2.485  -3.143  1.00  0.00    -0.252 OA
BRANCH   2   4
ATOM      4  O   UNL     1       7.420  -2.489  -3.434  1.00  0.00    -0.481 OA
ATOM      5  H   UNL     1       7.011  -2.105  -4.290  1.00  0.00     0.296 HD
ENDBRANCH   2   4
ENDBRANCH   1   2
BRANCH   1   6
ATOM      6  C   UNL     1       7.096  -0.156  -2.162  1.00  0.00     0.047 C 
BRANCH   6   7
ATOM      7  C   UNL     1       6.504   0.069  -0.844  1.00  0.00    -0.047 A 
ATOM      8  C   UNL     1       5.840   1.240  -0.562  1.00  0.00     0.004 A 
ATOM      9  C   UNL     1       6.616  -0.908   0.118  1.00  0.00     0.004 A 
ATOM     10  C   UNL     1       5.298   1.386   0.717  1.00  0.00     0.000 A 
ATOM     11  C   UNL     1       6.080  -0.762   1.382  1.00  0.00     0.000 A 
ATOM     12  C   UNL     1       5.414   0.409   1.673  1.00  0.00     0.000 A 
ENDBRANCH   6   7
ENDBRANCH   1   6
TORSDOF 4
ENDMDL
MODEL 3
REMARK VINA RESULT:      -6.8      3.376      5.057
REMARK SMILES O=C(O)CCc1ccccc1
REMARK SMILES IDX 4 1 2 2 1 3 3 4 5 6 6 7 7 8 11 9 8 10 10 11 9 12
REMARK H PARENT 3 5
REMARK Flexibility Score: inf
ROOT
ATOM      1  C   UNL     1       5.017   1.770   0.726  1.00  0.00     0.127 C 
ENDROOT
BRANCH   1   2
ATOM      2  C   UNL     1       4.476   1.097   1.930  1.00  0.00     0.303 C 
ATOM      3  O   UNL     1       5.113   0.179   2.504  1.00  0.00    -0.252 OA
BRANCH   2   4
ATOM      4  O   UNL     1       3.248   1.464   2.457  1.00  0.00    -0.481 OA
ATOM      5  H   UNL     1       2.415   0.924   2.209  1.00  0.00     0.296 HD
ENDBRANCH   2   4
ENDBRANCH   1   2
BRANCH   1   6
ATOM      6  C   UNL     1       6.513   1.706   0.783  1.00  0.00     0.047 C 
BRANCH   6   7
ATOM      7  C   UNL     1       7.119   0.959  -0.319  1.00  0.00    -0.047 A 
ATOM      8  C   UNL     1       6.406  -0.008  -0.989  1.00  0.00     0.004 A 
ATOM      9  C   UNL     1       8.416   1.236  -0.684  1.00  0.00     0.004 A 
ATOM     10  C   UNL     1       7.048  -0.680  -2.031  1.00  0.00     0.000 A 
ATOM     11  C   UNL     1       9.049   0.571  -1.715  1.00  0.00     0.000 A 
ATOM     12  C   UNL     1       8.342  -0.401  -2.391  1.00  0.00     0.000 A 
ENDBRANCH   6   7
ENDBRANCH   1   6
TORSDOF 4
ENDMDL
MODEL 4
REMARK VINA RESULT:      -6.6      1.875      2.853
REMARK SMILES O=C(O)CCc1ccccc1
REMARK SMILES IDX 4 1 2 2 1 3 3 4 5 6 6 7 7 8 11 9 8 10 10 11 9 12
REMARK H PARENT 3 5
REMARK Flexibility Score: inf
ROOT
ATOM      1  C   UNL     1       8.174  -1.576   1.144  1.00  0.00     0.127 C 
ENDROOT
BRANCH   1   2
ATOM      2  C   UNL     1       8.485  -2.788   0.350  1.00  0.00     0.303 C 
ATOM      3  O   UNL     1       9.140  -3.739   0.844  1.00  0.00    -0.252 OA
BRANCH   2   4
ATOM      4  O   UNL     1       8.060  -2.906  -0.964  1.00  0.00    -0.481 OA
ATOM      5  H   UNL     1       7.496  -2.158  -1.376  1.00  0.00     0.296 HD
ENDBRANCH   2   4
ENDBRANCH   1   2
BRANCH   1   6
ATOM      6  C   UNL     1       6.684  -1.464   1.267  1.00  0.00     0.047 C 
BRANCH   6   7
ATOM      7  C   UNL     1       6.141  -0.197   0.781  1.00  0.00    -0.047 A 
ATOM      8  C   UNL     1       5.391   0.609   1.606  1.00  0.00     0.004 A 
ATOM      9  C   UNL     1       6.390   0.187  -0.516  1.00  0.00     0.004 A 
ATOM     10  C   UNL     1       4.905   1.806   1.075  1.00  0.00     0.000 A 
ATOM     11  C   UNL     1       5.909   1.371  -1.039  1.00  0.00     0.000 A 
ATOM     12  C   UNL     1       5.156   2.183  -0.220  1.00  0.00     0.000 A 
ENDBRANCH   6   7
ENDBRANCH   1   6
TORSDOF 4
ENDMDL
MODEL 5
REMARK VINA RESULT:      -6.6      3.716      4.971
REMARK SMILES O=C(O)CCc1ccccc1
REMARK SMILES IDX 4 1 2 2 1 3 3 4 5 6 6 7 7 8 11 9 8 10 10 11 9 12
REMARK H PARENT 3 5
REMARK Flexibility Score: inf
ROOT
ATOM      1  C   UNL     1       5.348   2.964   0.104  1.00  0.00     0.127 C 
ENDROOT
BRANCH   1   2
ATOM      2  C   UNL     1       6.245   3.856   0.876  1.00  0.00     0.303 C 
ATOM      3  O   UNL     1       6.891   4.775   0.313  1.00  0.00    -0.252 OA
BRANCH   2   4
ATOM      4  O   UNL     1       6.396   3.700   2.244  1.00  0.00    -0.481 OA
ATOM      5  H   UNL     1       5.797   4.235   2.879  1.00  0.00     0.296 HD
ENDBRANCH   2   4
ENDBRANCH   1   2
BRANCH   1   6
ATOM      6  C   UNL     1       5.247   1.657   0.829  1.00  0.00     0.047 C 
BRANCH   6   7
ATOM      7  C   UNL     1       5.975   0.563   0.188  1.00  0.00    -0.047 A 
ATOM      8  C   UNL     1       6.335  -0.556   0.902  1.00  0.00     0.004 A 
ATOM      9  C   UNL     1       6.297   0.663  -1.146  1.00  0.00     0.004 A 
ATOM     10  C   UNL     1       7.028  -1.562   0.224  1.00  0.00     0.000 A 
ATOM     11  C   UNL     1       6.982  -0.333  -1.814  1.00  0.00     0.000 A 
ATOM     12  C   UNL     1       7.347  -1.457  -1.106  1.00  0.00     0.000 A 
ENDBRANCH   6   7
ENDBRANCH   1   6
TORSDOF 4
ENDMDL
