@<TRIPOS>MOLECULE
/home/cewinharhar/GITHUB/reincatalyze/data/processed/docking_pred/2023-Apr-26-1657_maxeplen10_maxtrainstep1000_exh32_gamma099_lrac9e-4_lrcr1e-3/4295960a5818388fac6ce93a10a8a6662c8ec52f_ligand_2.pdbqt
 12 12 0 0 0
SMALL
GASTEIGER

@<TRIPOS>ATOM
      1  C          5.0170    1.7700    0.7260 C.3     1  UNL1        0.1270
      2  C          4.4760    1.0970    1.9300 C.2     1  UNL1        0.3030
      3  O          5.1130    0.1790    2.5040 O.2     1  UNL1       -0.2520
      4  O          3.2480    1.4640    2.4570 O.3     1  UNL1       -0.4810
      5  H          2.4150    0.9240    2.2090 H       1  UNL1        0.2960
      6  C          6.5130    1.7060    0.7830 C.3     1  UNL1        0.0470
      7  C          7.1190    0.9590   -0.3190 C.2     1  UNL1       -0.0470
      8  C          6.4060   -0.0080   -0.9890 C.2     1  UNL1        0.0040
      9  C          8.4160    1.2360   -0.6840 C.2     1  UNL1        0.0040
     10  C          7.0480   -0.6800   -2.0310 C.2     1  UNL1        0.0000
     11  C          9.0490    0.5710   -1.7150 C.2     1  UNL1        0.0000
     12  C          8.3420   -0.4010   -2.3910 C.2     1  UNL1        0.0000
@<TRIPOS>BOND
     1    12    10    2
     2    12    11    1
     3    10     8    1
     4    11     9    2
     5     8     7    2
     6     9     7    1
     7     7     6    1
     8     1     6    1
     9     1     2    1
    10     2     4    1
    11     2     3    2
    12     5     4    1
