@<TRIPOS>MOLECULE
/home/cewinharhar/GITHUB/reincatalyze/data/processed/docking_pred/2023-Apr-26-1657_maxeplen10_maxtrainstep1000_exh32_gamma099_lrac9e-4_lrcr1e-3/4295960a5818388fac6ce93a10a8a6662c8ec52f_ligand_2.pdbqt
 12 12 0 0 0
SMALL
GASTEIGER

@<TRIPOS>ATOM
      1  C          8.1740   -1.5760    1.1440 C.3     1  UNL1        0.1270
      2  C          8.4850   -2.7880    0.3500 C.2     1  UNL1        0.3030
      3  O          9.1400   -3.7390    0.8440 O.2     1  UNL1       -0.2520
      4  O          8.0600   -2.9060   -0.9640 O.3     1  UNL1       -0.4810
      5  H          7.4960   -2.1580   -1.3760 H       1  UNL1        0.2960
      6  C          6.6840   -1.4640    1.2670 C.3     1  UNL1        0.0470
      7  C          6.1410   -0.1970    0.7810 C.2     1  UNL1       -0.0470
      8  C          5.3910    0.6090    1.6060 C.2     1  UNL1        0.0040
      9  C          6.3900    0.1870   -0.5160 C.2     1  UNL1        0.0040
     10  C          4.9050    1.8060    1.0750 C.2     1  UNL1        0.0000
     11  C          5.9090    1.3710   -1.0390 C.2     1  UNL1        0.0000
     12  C          5.1560    2.1830   -0.2200 C.2     1  UNL1        0.0000
@<TRIPOS>BOND
     1     5     4    1
     2    11     9    1
     3    11    12    2
     4     4     2    1
     5     9     7    2
     6    12    10    1
     7     2     3    2
     8     2     1    1
     9     7     6    1
    10     7     8    1
    11    10     8    2
    12     1     6    1
