@<TRIPOS>MOLECULE
/home/cewinharhar/GITHUB/reincatalyze/data/processed/docking_pred/2023-Apr-26-1657_maxeplen10_maxtrainstep1000_exh32_gamma099_lrac9e-4_lrcr1e-3/4295960a5818388fac6ce93a10a8a6662c8ec52f_ligand_2.pdbqt
 12 12 0 0 0
SMALL
GASTEIGER

@<TRIPOS>ATOM
      1  C          5.3480    2.9640    0.1040 C.3     1  UNL1        0.1270
      2  C          6.2450    3.8560    0.8760 C.2     1  UNL1        0.3030
      3  O          6.8910    4.7750    0.3130 O.2     1  UNL1       -0.2520
      4  O          6.3960    3.7000    2.2440 O.3     1  UNL1       -0.4810
      5  H          5.7970    4.2350    2.8790 H       1  UNL1        0.2960
      6  C          5.2470    1.6570    0.8290 C.3     1  UNL1        0.0470
      7  C          5.9750    0.5630    0.1880 C.2     1  UNL1       -0.0470
      8  C          6.3350   -0.5560    0.9020 C.2     1  UNL1        0.0040
      9  C          6.2970    0.6630   -1.1460 C.2     1  UNL1        0.0040
     10  C          7.0280   -1.5620    0.2240 C.2     1  UNL1        0.0000
     11  C          6.9820   -0.3330   -1.8140 C.2     1  UNL1        0.0000
     12  C          7.3470   -1.4570   -1.1060 C.2     1  UNL1        0.0000
@<TRIPOS>BOND
     1    11     9    1
     2    11    12    2
     3     9     7    2
     4    12    10    1
     5     1     6    1
     6     1     2    1
     7     7     6    1
     8     7     8    1
     9    10     8    2
    10     3     2    2
    11     2     4    1
    12     4     5    1
