@<TRIPOS>MOLECULE
/home/cewinharhar/GITHUB/reincatalyze/data/processed/docking_pred/2023-Apr-26-1657_maxeplen10_maxtrainstep1000_exh32_gamma099_lrac9e-4_lrcr1e-3/4295960a5818388fac6ce93a10a8a6662c8ec52f_ligand_2.pdbqt
 12 12 0 0 0
SMALL
GASTEIGER

@<TRIPOS>ATOM
      1  C          8.4240   -0.6130   -2.1710 C.3     1  UNL1        0.1270
      2  C          8.4690   -1.9020   -2.9020 C.2     1  UNL1        0.3030
      3  O          9.5540   -2.5050   -3.0920 O.2     1  UNL1       -0.2520
      4  O          7.3100   -2.4770   -3.3970 O.3     1  UNL1       -0.4810
      5  H          6.9280   -2.1480   -4.2880 H       1  UNL1        0.2960
      6  C          7.0020   -0.1450   -2.1270 C.3     1  UNL1        0.0470
      7  C          6.4710    0.0190   -0.7750 C.2     1  UNL1       -0.0470
      8  C          6.5860   -0.9890    0.1530 C.2     1  UNL1        0.0040
      9  C          5.8520    1.2000   -0.4360 C.2     1  UNL1        0.0040
     10  C          6.0570   -0.7630    1.4260 C.2     1  UNL1        0.0000
     11  C          5.3290    1.4220    0.8220 C.2     1  UNL1        0.0000
     12  C          5.4400    0.4170    1.7580 C.2     1  UNL1        0.0000
@<TRIPOS>BOND
     1     5     4    1
     2     4     2    1
     3     3     2    2
     4     2     1    1
     5     1     6    1
     6     6     7    1
     7     7     9    2
     8     7     8    1
     9     9    11    1
    10     8    10    2
    11    11    12    2
    12    10    12    1
