@<TRIPOS>MOLECULE
/home/cewinharhar/GITHUB/reincatalyze/data/processed/docking_pred/2023-Apr-26-1657_maxeplen10_maxtrainstep1000_exh32_gamma099_lrac9e-4_lrcr1e-3/437598aa9d4ddbb457dda5082e5f4820e6dbe55d_ligand_2.pdbqt
 12 12 0 0 0
SMALL
GASTEIGER

@<TRIPOS>ATOM
      1  C          5.4470    2.8780    0.0170 C.3     1  UNL1        0.1270
      2  C          6.2400    3.8470    0.8110 C.2     1  UNL1        0.3030
      3  O          6.8780    4.7750    0.2560 O.2     1  UNL1       -0.2520
      4  O          6.2980    3.7540    2.1920 O.3     1  UNL1       -0.4810
      5  H          6.5820    4.5720    2.7380 H       1  UNL1        0.2960
      6  C          4.9100    1.8350    0.9490 C.3     1  UNL1        0.0470
      7  C          5.7000    0.6050    0.9840 C.2     1  UNL1       -0.0470
      8  C          5.7590   -0.1600    2.1250 C.2     1  UNL1        0.0040
      9  C          6.3860    0.2160   -0.1430 C.2     1  UNL1        0.0040
     10  C          6.5320   -1.3230    2.0870 C.2     1  UNL1        0.0000
     11  C          7.1500   -0.9330   -0.1790 C.2     1  UNL1        0.0000
     12  C          7.2160   -1.7060    0.9600 C.2     1  UNL1        0.0000
@<TRIPOS>BOND
     1    11     9    1
     2    11    12    2
     3     9     7    2
     4     1     2    1
     5     1     6    1
     6     3     2    2
     7     2     4    1
     8     6     7    1
     9    12    10    1
    10     7     8    1
    11    10     8    2
    12     4     5    1
