@<TRIPOS>MOLECULE
/home/cewinharhar/GITHUB/reincatalyze/data/processed/docking_pred/2023-Apr-26-1657_maxeplen10_maxtrainstep1000_exh32_gamma099_lrac9e-4_lrcr1e-3/437598aa9d4ddbb457dda5082e5f4820e6dbe55d_ligand_2.pdbqt
 12 12 0 0 0
SMALL
GASTEIGER

@<TRIPOS>ATOM
      1  C          4.9840    1.7990    0.7040 C.3     1  UNL1        0.1270
      2  C          4.4790    1.1150    1.9180 C.2     1  UNL1        0.3030
      3  O          5.1470    0.2130    2.4820 O.2     1  UNL1       -0.2520
      4  O          3.2530    1.4530    2.4650 O.3     1  UNL1       -0.4810
      5  H          3.2240    2.0140    3.3220 H       1  UNL1        0.2960
      6  C          6.4810    1.7950    0.7490 C.3     1  UNL1        0.0470
      7  C          7.1080    1.0450   -0.3380 C.2     1  UNL1       -0.0470
      8  C          6.3750    0.1600   -1.0940 C.2     1  UNL1        0.0040
      9  C          8.4450    1.2340   -0.6010 C.2     1  UNL1        0.0040
     10  C          7.0380   -0.5220   -2.1170 C.2     1  UNL1        0.0000
     11  C          9.0980    0.5580   -1.6120 C.2     1  UNL1        0.0000
     12  C          8.3720   -0.3310   -2.3750 C.2     1  UNL1        0.0000
@<TRIPOS>BOND
     1    12    10    2
     2    12    11    1
     3    10     8    1
     4    11     9    2
     5     8     7    2
     6     9     7    1
     7     7     6    1
     8     1     6    1
     9     1     2    1
    10     2     4    1
    11     2     3    2
    12     4     5    1
