@<TRIPOS>MOLECULE
/home/cewinharhar/GITHUB/reincatalyze/data/processed/docking_pred/2023-Apr-26-1657_maxeplen10_maxtrainstep1000_exh32_gamma099_lrac9e-4_lrcr1e-3/437598aa9d4ddbb457dda5082e5f4820e6dbe55d_ligand_2.pdbqt
 12 12 0 0 0
SMALL
GASTEIGER

@<TRIPOS>ATOM
      1  C          8.4200   -0.6430   -2.1010 C.3     1  UNL1        0.1270
      2  C          8.3810   -1.9040   -2.8790 C.2     1  UNL1        0.3030
      3  O          7.2910   -2.4100   -3.2430 O.2     1  UNL1       -0.2520
      4  O          9.5500   -2.5600   -3.2270 O.3     1  UNL1       -0.4810
      5  H          9.7540   -2.7300   -4.2160 H       1  UNL1        0.2960
      6  C          7.0420   -0.0570   -2.0840 C.3     1  UNL1        0.0470
      7  C          6.4740    0.0900   -0.7450 C.2     1  UNL1       -0.0470
      8  C          6.6010   -0.9150    0.1870 C.2     1  UNL1        0.0040
      9  C          5.8080    1.2490   -0.4210 C.2     1  UNL1        0.0040
     10  C          6.0350   -0.7060    1.4460 C.2     1  UNL1        0.0000
     11  C          5.2490    1.4540    0.8240 C.2     1  UNL1        0.0000
     12  C          5.3710    0.4530    1.7630 C.2     1  UNL1        0.0000
@<TRIPOS>BOND
     1     5     4    1
     2     3     2    2
     3     4     2    1
     4     2     1    1
     5     1     6    1
     6     6     7    1
     7     7     9    2
     8     7     8    1
     9     9    11    1
    10     8    10    2
    11    11    12    2
    12    10    12    1
