MODEL 1
REMARK VINA RESULT:      -7.3      0.000      0.000
REMARK SMILES O=C(O)CCc1ccccc1
REMARK SMILES IDX 4 1 2 2 1 3 3 4 5 6 6 7 7 8 11 9 8 10 10 11 9 12
REMARK H PARENT 3 5
REMARK Flexibility Score: inf
ROOT
ATOM      1  C   UNL     1       8.426  -0.601  -2.165  1.00  0.00     0.127 C 
ENDROOT
BRANCH   1   2
ATOM      2  C   UNL     1       8.476  -1.881  -2.910  1.00  0.00     0.303 C 
ATOM      3  O   UNL     1       9.561  -2.487  -3.090  1.00  0.00    -0.252 OA
BRANCH   2   4
ATOM      4  O   UNL     1       7.322  -2.445  -3.430  1.00  0.00    -0.481 OA
ATOM      5  H   UNL     1       7.281  -2.672  -4.428  1.00  0.00     0.296 HD
ENDBRANCH   2   4
ENDBRANCH   1   2
BRANCH   1   6
ATOM      6  C   UNL     1       7.003  -0.135  -2.123  1.00  0.00     0.047 C 
BRANCH   6   7
ATOM      7  C   UNL     1       6.474   0.041  -0.772  1.00  0.00    -0.047 A 
ATOM      8  C   UNL     1       5.861   1.216  -0.404  1.00  0.00     0.004 A 
ATOM      9  C   UNL     1       6.594  -0.986   0.135  1.00  0.00     0.004 A 
ATOM     10  C   UNL     1       5.379   1.315   0.903  1.00  0.00     0.000 A 
ATOM     11  C   UNL     1       6.117  -0.887   1.427  1.00  0.00     0.000 A 
ATOM     12  C   UNL     1       5.502   0.287   1.804  1.00  0.00     0.000 A 
ENDBRANCH   6   7
ENDBRANCH   1   6
TORSDOF 4
ENDMDL
MODEL 2
REMARK VINA RESULT:      -7.3      0.145      1.733
REMARK SMILES O=C(O)CCc1ccccc1
REMARK SMILES IDX 4 1 2 2 1 3 3 4 5 6 6 7 7 8 11 9 8 10 10 11 9 12
REMARK H PARENT 3 5
REMARK Flexibility Score: inf
ROOT
ATOM      1  C   UNL     1       8.420  -0.643  -2.101  1.00  0.00     0.127 C 
ENDROOT
BRANCH   1   2
ATOM      2  C   UNL     1       8.381  -1.904  -2.879  1.00  0.00     0.303 C 
ATOM      3  O   UNL     1       7.291  -2.410  -3.243  1.00  0.00    -0.252 OA
BRANCH   2   4
ATOM      4  O   UNL     1       9.550  -2.560  -3.227  1.00  0.00    -0.481 OA
ATOM      5  H   UNL     1       9.754  -2.730  -4.216  1.00  0.00     0.296 HD
ENDBRANCH   2   4
ENDBRANCH   1   2
BRANCH   1   6
ATOM      6  C   UNL     1       7.042  -0.057  -2.084  1.00  0.00     0.047 C 
BRANCH   6   7
ATOM      7  C   UNL     1       6.474   0.090  -0.745  1.00  0.00    -0.047 A 
ATOM      8  C   UNL     1       6.601  -0.915   0.187  1.00  0.00     0.004 A 
ATOM      9  C   UNL     1       5.808   1.249  -0.421  1.00  0.00     0.004 A 
ATOM     10  C   UNL     1       6.035  -0.706   1.446  1.00  0.00     0.000 A 
ATOM     11  C   UNL     1       5.249   1.454   0.824  1.00  0.00     0.000 A 
ATOM     12  C   UNL     1       5.371   0.453   1.763  1.00  0.00     0.000 A 
ENDBRANCH   6   7
ENDBRANCH   1   6
TORSDOF 4
ENDMDL
MODEL 3
REMARK VINA RESULT:      -6.8      3.389      5.086
REMARK SMILES O=C(O)CCc1ccccc1
REMARK SMILES IDX 4 1 2 2 1 3 3 4 5 6 6 7 7 8 11 9 8 10 10 11 9 12
REMARK H PARENT 3 5
REMARK Flexibility Score: inf
ROOT
ATOM      1  C   UNL     1       4.984   1.799   0.704  1.00  0.00     0.127 C 
ENDROOT
BRANCH   1   2
ATOM      2  C   UNL     1       4.479   1.115   1.918  1.00  0.00     0.303 C 
ATOM      3  O   UNL     1       5.147   0.213   2.482  1.00  0.00    -0.252 OA
BRANCH   2   4
ATOM      4  O   UNL     1       3.253   1.453   2.465  1.00  0.00    -0.481 OA
ATOM      5  H   UNL     1       3.224   2.014   3.322  1.00  0.00     0.296 HD
ENDBRANCH   2   4
ENDBRANCH   1   2
BRANCH   1   6
ATOM      6  C   UNL     1       6.481   1.795   0.749  1.00  0.00     0.047 C 
BRANCH   6   7
ATOM      7  C   UNL     1       7.108   1.045  -0.338  1.00  0.00    -0.047 A 
ATOM      8  C   UNL     1       6.375   0.160  -1.094  1.00  0.00     0.004 A 
ATOM      9  C   UNL     1       8.445   1.234  -0.601  1.00  0.00     0.004 A 
ATOM     10  C   UNL     1       7.038  -0.522  -2.117  1.00  0.00     0.000 A 
ATOM     11  C   UNL     1       9.098   0.558  -1.612  1.00  0.00     0.000 A 
ATOM     12  C   UNL     1       8.372  -0.331  -2.375  1.00  0.00     0.000 A 
ENDBRANCH   6   7
ENDBRANCH   1   6
TORSDOF 4
ENDMDL
MODEL 4
REMARK VINA RESULT:      -6.7      3.827      4.974
REMARK SMILES O=C(O)CCc1ccccc1
REMARK SMILES IDX 4 1 2 2 1 3 3 4 5 6 6 7 7 8 11 9 8 10 10 11 9 12
REMARK H PARENT 3 5
REMARK Flexibility Score: inf
ROOT
ATOM      1  C   UNL     1       5.447   2.878   0.017  1.00  0.00     0.127 C 
ENDROOT
BRANCH   1   2
ATOM      2  C   UNL     1       6.240   3.847   0.811  1.00  0.00     0.303 C 
ATOM      3  O   UNL     1       6.878   4.775   0.256  1.00  0.00    -0.252 OA
BRANCH   2   4
ATOM      4  O   UNL     1       6.298   3.754   2.192  1.00  0.00    -0.481 OA
ATOM      5  H   UNL     1       6.582   4.572   2.738  1.00  0.00     0.296 HD
ENDBRANCH   2   4
ENDBRANCH   1   2
BRANCH   1   6
ATOM      6  C   UNL     1       4.910   1.835   0.949  1.00  0.00     0.047 C 
BRANCH   6   7
ATOM      7  C   UNL     1       5.700   0.605   0.984  1.00  0.00    -0.047 A 
ATOM      8  C   UNL     1       5.759  -0.160   2.125  1.00  0.00     0.004 A 
ATOM      9  C   UNL     1       6.386   0.216  -0.143  1.00  0.00     0.004 A 
ATOM     10  C   UNL     1       6.532  -1.323   2.087  1.00  0.00     0.000 A 
ATOM     11  C   UNL     1       7.150  -0.933  -0.179  1.00  0.00     0.000 A 
ATOM     12  C   UNL     1       7.216  -1.706   0.960  1.00  0.00     0.000 A 
ENDBRANCH   6   7
ENDBRANCH   1   6
TORSDOF 4
ENDMDL
MODEL 5
REMARK VINA RESULT:      -6.7      1.940      2.664
REMARK SMILES O=C(O)CCc1ccccc1
REMARK SMILES IDX 4 1 2 2 1 3 3 4 5 6 6 7 7 8 11 9 8 10 10 11 9 12
REMARK H PARENT 3 5
REMARK Flexibility Score: inf
ROOT
ATOM      1  C   UNL     1       8.235   0.178  -2.174  1.00  0.00     0.127 C 
ENDROOT
BRANCH   1   2
ATOM      2  C   UNL     1       9.368   0.343  -1.234  1.00  0.00     0.303 C 
ATOM      3  O   UNL     1       9.479  -0.381  -0.214  1.00  0.00    -0.252 OA
BRANCH   2   4
ATOM      4  O   UNL     1      10.340   1.306  -1.456  1.00  0.00    -0.481 OA
ATOM      5  H   UNL     1      10.524   2.008  -0.734  1.00  0.00     0.296 HD
ENDBRANCH   2   4
ENDBRANCH   1   2
BRANCH   1   6
ATOM      6  C   UNL     1       7.151  -0.584  -1.475  1.00  0.00     0.047 C 
BRANCH   6   7
ATOM      7  C   UNL     1       6.364   0.222  -0.543  1.00  0.00    -0.047 A 
ATOM      8  C   UNL     1       6.144  -0.207   0.745  1.00  0.00     0.004 A 
ATOM      9  C   UNL     1       5.844   1.423  -0.968  1.00  0.00     0.004 A 
ATOM     10  C   UNL     1       5.384   0.615   1.581  1.00  0.00     0.000 A 
ATOM     11  C   UNL     1       5.093   2.234  -0.140  1.00  0.00     0.000 A 
ATOM     12  C   UNL     1       4.867   1.811   1.152  1.00  0.00     0.000 A 
ENDBRANCH   6   7
ENDBRANCH   1   6
TORSDOF 4
ENDMDL
