@<TRIPOS>MOLECULE
/home/cewinharhar/GITHUB/reincatalyze/data/processed/docking_pred/2023-Apr-26-1657_maxeplen10_maxtrainstep1000_exh32_gamma099_lrac9e-4_lrcr1e-3/437598aa9d4ddbb457dda5082e5f4820e6dbe55d_ligand_2.pdbqt
 12 12 0 0 0
SMALL
GASTEIGER

@<TRIPOS>ATOM
      1  C          8.2350    0.1780   -2.1740 C.3     1  UNL1        0.1270
      2  C          9.3680    0.3430   -1.2340 C.2     1  UNL1        0.3030
      3  O          9.4790   -0.3810   -0.2140 O.2     1  UNL1       -0.2520
      4  O         10.3400    1.3060   -1.4560 O.3     1  UNL1       -0.4810
      5  H         10.5240    2.0080   -0.7340 H       1  UNL1        0.2960
      6  C          7.1510   -0.5840   -1.4750 C.3     1  UNL1        0.0470
      7  C          6.3640    0.2220   -0.5430 C.2     1  UNL1       -0.0470
      8  C          6.1440   -0.2070    0.7450 C.2     1  UNL1        0.0040
      9  C          5.8440    1.4230   -0.9680 C.2     1  UNL1        0.0040
     10  C          5.3840    0.6150    1.5810 C.2     1  UNL1        0.0000
     11  C          5.0930    2.2340   -0.1400 C.2     1  UNL1        0.0000
     12  C          4.8670    1.8110    1.1520 C.2     1  UNL1        0.0000
@<TRIPOS>BOND
     1     1     6    1
     2     1     2    1
     3     6     7    1
     4     4     2    1
     5     4     5    1
     6     2     3    2
     7     9     7    2
     8     9    11    1
     9     7     8    1
    10    11    12    2
    11     8    10    2
    12    12    10    1
