@<TRIPOS>MOLECULE
/home/cewinharhar/GITHUB/reincatalyze/data/processed/docking_pred/2023-Apr-26-1657_maxeplen10_maxtrainstep1000_exh32_gamma099_lrac9e-4_lrcr1e-3/43f74fb3996e866f8c2ebaeff785616509de483e_ligand_2.pdbqt
 12 12 0 0 0
SMALL
GASTEIGER

@<TRIPOS>ATOM
      1  C          8.2690   -0.9690   -1.7610 C.3     1  UNL1        0.1270
      2  C          8.3270   -2.0010   -2.8230 C.2     1  UNL1        0.3030
      3  O          7.2800   -2.4580   -3.3440 O.2     1  UNL1       -0.2520
      4  O          9.5430   -2.4910   -3.2710 O.3     1  UNL1       -0.4810
      5  H          9.8900   -3.3810   -2.9040 H       1  UNL1        0.2960
      6  C          7.3020   -1.4270   -0.7120 C.3     1  UNL1        0.0470
      7  C          6.5130   -0.3490   -0.1190 C.2     1  UNL1       -0.0470
      8  C          6.0760   -0.4300    1.1820 C.2     1  UNL1        0.0040
      9  C          6.2100    0.7580   -0.8790 C.2     1  UNL1        0.0040
     10  C          5.3270    0.6370    1.6830 C.2     1  UNL1        0.0000
     11  C          5.4700    1.8120   -0.3830 C.2     1  UNL1        0.0000
     12  C          5.0280    1.7380    0.9200 C.2     1  UNL1        0.0000
@<TRIPOS>BOND
     1     3     2    2
     2     4     5    1
     3     4     2    1
     4     2     1    1
     5     1     6    1
     6     9    11    1
     7     9     7    2
     8     6     7    1
     9    11    12    2
    10     7     8    1
    11    12    10    1
    12     8    10    2
