@<TRIPOS>MOLECULE
/home/cewinharhar/GITHUB/reincatalyze/data/processed/docking_pred/2023-Apr-26-1657_maxeplen10_maxtrainstep1000_exh32_gamma099_lrac9e-4_lrcr1e-3/43f74fb3996e866f8c2ebaeff785616509de483e_ligand_2.pdbqt
 12 12 0 0 0
SMALL
GASTEIGER

@<TRIPOS>ATOM
      1  C          8.4710   -0.6040   -2.1690 C.3     1  UNL1        0.1270
      2  C          8.4840   -1.8900   -2.9060 C.2     1  UNL1        0.3030
      3  O          9.5510   -2.5310   -3.0770 O.2     1  UNL1       -0.2520
      4  O          7.3160   -2.4210   -3.4270 O.3     1  UNL1       -0.4810
      5  H          7.1690   -3.4340   -3.3970 H       1  UNL1        0.2960
      6  C          7.0620   -0.0950   -2.1360 C.3     1  UNL1        0.0470
      7  C          6.5110    0.0410   -0.7890 C.2     1  UNL1       -0.0470
      8  C          6.6240   -0.9820    0.1230 C.2     1  UNL1        0.0040
      9  C          5.8740    1.2090   -0.4390 C.2     1  UNL1        0.0040
     10  C          6.0750   -0.7840    1.3920 C.2     1  UNL1        0.0000
     11  C          5.3310    1.4030    0.8160 C.2     1  UNL1        0.0000
     12  C          5.4400    0.3830    1.7360 C.2     1  UNL1        0.0000
@<TRIPOS>BOND
     1     4     5    1
     2     4     2    1
     3     3     2    2
     4     2     1    1
     5     1     6    1
     6     6     7    1
     7     7     9    2
     8     7     8    1
     9     9    11    1
    10     8    10    2
    11    11    12    2
    12    10    12    1
