@<TRIPOS>MOLECULE
/home/cewinharhar/GITHUB/reincatalyze/data/processed/docking_pred/2023-Apr-26-1657_maxeplen10_maxtrainstep1000_exh32_gamma099_lrac9e-4_lrcr1e-3/43f74fb3996e866f8c2ebaeff785616509de483e_ligand_2.pdbqt
 12 12 0 0 0
SMALL
GASTEIGER

@<TRIPOS>ATOM
      1  C          8.2400    0.1770   -2.1560 C.3     1  UNL1        0.1270
      2  C          9.3760    0.3360   -1.2180 C.2     1  UNL1        0.3030
      3  O          9.4800   -0.3830   -0.1930 O.2     1  UNL1       -0.2520
      4  O         10.3580    1.2870   -1.4470 O.3     1  UNL1       -0.4810
      5  H         10.0830    2.2370   -1.7090 H       1  UNL1        0.2960
      6  C          7.1590   -0.5920   -1.4590 C.3     1  UNL1        0.0470
      7  C          6.3650    0.2090   -0.5280 C.2     1  UNL1       -0.0470
      8  C          6.1290   -0.2300    0.7540 C.2     1  UNL1        0.0040
      9  C          5.8540    1.4150   -0.9480 C.2     1  UNL1        0.0040
     10  C          5.3640    0.5870    1.5880 C.2     1  UNL1        0.0000
     11  C          5.0970    2.2220   -0.1220 C.2     1  UNL1        0.0000
     12  C          4.8560    1.7890    1.1640 C.2     1  UNL1        0.0000
@<TRIPOS>BOND
     1     1     6    1
     2     1     2    1
     3     5     4    1
     4     6     7    1
     5     4     2    1
     6     2     3    2
     7     9     7    2
     8     9    11    1
     9     7     8    1
    10    11    12    2
    11     8    10    2
    12    12    10    1
