MODEL 1
REMARK VINA RESULT:      -7.4      0.000      0.000
REMARK SMILES O=C(O)CCc1ccccc1
REMARK SMILES IDX 4 1 2 2 1 3 3 4 5 6 6 7 7 8 11 9 8 10 10 11 9 12
REMARK H PARENT 3 5
REMARK Flexibility Score: inf
ROOT
ATOM      1  C   UNL     1       8.471  -0.604  -2.169  1.00  0.00     0.127 C 
ENDROOT
BRANCH   1   2
ATOM      2  C   UNL     1       8.484  -1.890  -2.906  1.00  0.00     0.303 C 
ATOM      3  O   UNL     1       9.551  -2.531  -3.077  1.00  0.00    -0.252 OA
BRANCH   2   4
ATOM      4  O   UNL     1       7.316  -2.421  -3.427  1.00  0.00    -0.481 OA
ATOM      5  H   UNL     1       7.169  -3.434  -3.397  1.00  0.00     0.296 HD
ENDBRANCH   2   4
ENDBRANCH   1   2
BRANCH   1   6
ATOM      6  C   UNL     1       7.062  -0.095  -2.136  1.00  0.00     0.047 C 
BRANCH   6   7
ATOM      7  C   UNL     1       6.511   0.041  -0.789  1.00  0.00    -0.047 A 
ATOM      8  C   UNL     1       6.624  -0.982   0.123  1.00  0.00     0.004 A 
ATOM      9  C   UNL     1       5.874   1.209  -0.439  1.00  0.00     0.004 A 
ATOM     10  C   UNL     1       6.075  -0.784   1.392  1.00  0.00     0.000 A 
ATOM     11  C   UNL     1       5.331   1.403   0.816  1.00  0.00     0.000 A 
ATOM     12  C   UNL     1       5.440   0.383   1.736  1.00  0.00     0.000 A 
ENDBRANCH   6   7
ENDBRANCH   1   6
TORSDOF 4
ENDMDL
MODEL 2
REMARK VINA RESULT:      -7.3      0.068      1.438
REMARK SMILES O=C(O)CCc1ccccc1
REMARK SMILES IDX 4 1 2 2 1 3 3 4 5 6 6 7 7 8 11 9 8 10 10 11 9 12
REMARK H PARENT 3 5
REMARK Flexibility Score: inf
ROOT
ATOM      1  C   UNL     1       8.406  -0.619  -2.138  1.00  0.00     0.127 C 
ENDROOT
BRANCH   1   2
ATOM      2  C   UNL     1       8.454  -1.889  -2.900  1.00  0.00     0.303 C 
ATOM      3  O   UNL     1       9.539  -2.492  -3.091  1.00  0.00    -0.252 OA
BRANCH   2   4
ATOM      4  O   UNL     1       7.299  -2.447  -3.424  1.00  0.00    -0.481 OA
ATOM      5  H   UNL     1       6.911  -2.070  -4.294  1.00  0.00     0.296 HD
ENDBRANCH   2   4
ENDBRANCH   1   2
BRANCH   1   6
ATOM      6  C   UNL     1       6.986  -0.140  -2.112  1.00  0.00     0.047 C 
BRANCH   6   7
ATOM      7  C   UNL     1       6.450   0.055  -0.766  1.00  0.00    -0.047 A 
ATOM      8  C   UNL     1       5.826   1.231  -0.420  1.00  0.00     0.004 A 
ATOM      9  C   UNL     1       6.572  -0.957   0.158  1.00  0.00     0.004 A 
ATOM     10  C   UNL     1       5.336   1.347   0.883  1.00  0.00     0.000 A 
ATOM     11  C   UNL     1       6.088  -0.841   1.446  1.00  0.00     0.000 A 
ATOM     12  C   UNL     1       5.463   0.335   1.800  1.00  0.00     0.000 A 
ENDBRANCH   6   7
ENDBRANCH   1   6
TORSDOF 4
ENDMDL
MODEL 3
REMARK VINA RESULT:      -7.1      0.663      1.485
REMARK SMILES O=C(O)CCc1ccccc1
REMARK SMILES IDX 4 1 2 2 1 3 3 4 5 6 6 7 7 8 11 9 8 10 10 11 9 12
REMARK H PARENT 3 5
REMARK Flexibility Score: inf
ROOT
ATOM      1  C   UNL     1       8.269  -0.969  -1.761  1.00  0.00     0.127 C 
ENDROOT
BRANCH   1   2
ATOM      2  C   UNL     1       8.327  -2.001  -2.823  1.00  0.00     0.303 C 
ATOM      3  O   UNL     1       7.280  -2.458  -3.344  1.00  0.00    -0.252 OA
BRANCH   2   4
ATOM      4  O   UNL     1       9.543  -2.491  -3.271  1.00  0.00    -0.481 OA
ATOM      5  H   UNL     1       9.890  -3.381  -2.904  1.00  0.00     0.296 HD
ENDBRANCH   2   4
ENDBRANCH   1   2
BRANCH   1   6
ATOM      6  C   UNL     1       7.302  -1.427  -0.712  1.00  0.00     0.047 C 
BRANCH   6   7
ATOM      7  C   UNL     1       6.513  -0.349  -0.119  1.00  0.00    -0.047 A 
ATOM      8  C   UNL     1       6.076  -0.430   1.182  1.00  0.00     0.004 A 
ATOM      9  C   UNL     1       6.210   0.758  -0.879  1.00  0.00     0.004 A 
ATOM     10  C   UNL     1       5.327   0.637   1.683  1.00  0.00     0.000 A 
ATOM     11  C   UNL     1       5.470   1.812  -0.383  1.00  0.00     0.000 A 
ATOM     12  C   UNL     1       5.028   1.738   0.920  1.00  0.00     0.000 A 
ENDBRANCH   6   7
ENDBRANCH   1   6
TORSDOF 4
ENDMDL
MODEL 4
REMARK VINA RESULT:      -6.8      3.370      5.052
REMARK SMILES O=C(O)CCc1ccccc1
REMARK SMILES IDX 4 1 2 2 1 3 3 4 5 6 6 7 7 8 11 9 8 10 10 11 9 12
REMARK H PARENT 3 5
REMARK Flexibility Score: inf
ROOT
ATOM      1  C   UNL     1       5.007   1.777   0.706  1.00  0.00     0.127 C 
ENDROOT
BRANCH   1   2
ATOM      2  C   UNL     1       4.493   1.104   1.922  1.00  0.00     0.303 C 
ATOM      3  O   UNL     1       5.156   0.206   2.498  1.00  0.00    -0.252 OA
BRANCH   2   4
ATOM      4  O   UNL     1       3.262   1.448   2.457  1.00  0.00    -0.481 OA
ATOM      5  H   UNL     1       3.161   1.521   3.473  1.00  0.00     0.296 HD
ENDBRANCH   2   4
ENDBRANCH   1   2
BRANCH   1   6
ATOM      6  C   UNL     1       6.504   1.750   0.750  1.00  0.00     0.047 C 
BRANCH   6   7
ATOM      7  C   UNL     1       7.118   0.991  -0.339  1.00  0.00    -0.047 A 
ATOM      8  C   UNL     1       6.390   0.062  -1.045  1.00  0.00     0.004 A 
ATOM      9  C   UNL     1       8.438   1.217  -0.654  1.00  0.00     0.004 A 
ATOM     10  C   UNL     1       7.040  -0.625  -2.073  1.00  0.00     0.000 A 
ATOM     11  C   UNL     1       9.079   0.537  -1.670  1.00  0.00     0.000 A 
ATOM     12  C   UNL     1       8.357  -0.397  -2.382  1.00  0.00     0.000 A 
ENDBRANCH   6   7
ENDBRANCH   1   6
TORSDOF 4
ENDMDL
MODEL 5
REMARK VINA RESULT:      -6.7      1.940      2.299
REMARK SMILES O=C(O)CCc1ccccc1
REMARK SMILES IDX 4 1 2 2 1 3 3 4 5 6 6 7 7 8 11 9 8 10 10 11 9 12
REMARK H PARENT 3 5
REMARK Flexibility Score: inf
ROOT
ATOM      1  C   UNL     1       8.240   0.177  -2.156  1.00  0.00     0.127 C 
ENDROOT
BRANCH   1   2
ATOM      2  C   UNL     1       9.376   0.336  -1.218  1.00  0.00     0.303 C 
ATOM      3  O   UNL     1       9.480  -0.383  -0.193  1.00  0.00    -0.252 OA
BRANCH   2   4
ATOM      4  O   UNL     1      10.358   1.287  -1.447  1.00  0.00    -0.481 OA
ATOM      5  H   UNL     1      10.083   2.237  -1.709  1.00  0.00     0.296 HD
ENDBRANCH   2   4
ENDBRANCH   1   2
BRANCH   1   6
ATOM      6  C   UNL     1       7.159  -0.592  -1.459  1.00  0.00     0.047 C 
BRANCH   6   7
ATOM      7  C   UNL     1       6.365   0.209  -0.528  1.00  0.00    -0.047 A 
ATOM      8  C   UNL     1       6.129  -0.230   0.754  1.00  0.00     0.004 A 
ATOM      9  C   UNL     1       5.854   1.415  -0.948  1.00  0.00     0.004 A 
ATOM     10  C   UNL     1       5.364   0.587   1.588  1.00  0.00     0.000 A 
ATOM     11  C   UNL     1       5.097   2.222  -0.122  1.00  0.00     0.000 A 
ATOM     12  C   UNL     1       4.856   1.789   1.164  1.00  0.00     0.000 A 
ENDBRANCH   6   7
ENDBRANCH   1   6
TORSDOF 4
ENDMDL
