@<TRIPOS>MOLECULE
/home/cewinharhar/GITHUB/reincatalyze/data/processed/docking_pred/2023-Apr-26-1657_maxeplen10_maxtrainstep1000_exh32_gamma099_lrac9e-4_lrcr1e-3/43f74fb3996e866f8c2ebaeff785616509de483e_ligand_2.pdbqt
 12 12 0 0 0
SMALL
GASTEIGER

@<TRIPOS>ATOM
      1  C          8.4060   -0.6190   -2.1380 C.3     1  UNL1        0.1270
      2  C          8.4540   -1.8890   -2.9000 C.2     1  UNL1        0.3030
      3  O          9.5390   -2.4920   -3.0910 O.2     1  UNL1       -0.2520
      4  O          7.2990   -2.4470   -3.4240 O.3     1  UNL1       -0.4810
      5  H          6.9110   -2.0700   -4.2940 H       1  UNL1        0.2960
      6  C          6.9860   -0.1400   -2.1120 C.3     1  UNL1        0.0470
      7  C          6.4500    0.0550   -0.7660 C.2     1  UNL1       -0.0470
      8  C          5.8260    1.2310   -0.4200 C.2     1  UNL1        0.0040
      9  C          6.5720   -0.9570    0.1580 C.2     1  UNL1        0.0040
     10  C          5.3360    1.3470    0.8830 C.2     1  UNL1        0.0000
     11  C          6.0880   -0.8410    1.4460 C.2     1  UNL1        0.0000
     12  C          5.4630    0.3350    1.8000 C.2     1  UNL1        0.0000
@<TRIPOS>BOND
     1     5     4    1
     2     4     2    1
     3     3     2    2
     4     2     1    1
     5     1     6    1
     6     6     7    1
     7     7     8    2
     8     7     9    1
     9     8    10    1
    10     9    11    2
    11    10    12    2
    12    11    12    1
