@<TRIPOS>MOLECULE
/home/cewinharhar/GITHUB/reincatalyze/data/processed/docking_pred/2023-Apr-26-1657_maxeplen10_maxtrainstep1000_exh32_gamma099_lrac9e-4_lrcr1e-3/43f74fb3996e866f8c2ebaeff785616509de483e_ligand_2.pdbqt
 12 12 0 0 0
SMALL
GASTEIGER

@<TRIPOS>ATOM
      1  C          5.0070    1.7770    0.7060 C.3     1  UNL1        0.1270
      2  C          4.4930    1.1040    1.9220 C.2     1  UNL1        0.3030
      3  O          5.1560    0.2060    2.4980 O.2     1  UNL1       -0.2520
      4  O          3.2620    1.4480    2.4570 O.3     1  UNL1       -0.4810
      5  H          3.1610    1.5210    3.4730 H       1  UNL1        0.2960
      6  C          6.5040    1.7500    0.7500 C.3     1  UNL1        0.0470
      7  C          7.1180    0.9910   -0.3390 C.2     1  UNL1       -0.0470
      8  C          6.3900    0.0620   -1.0450 C.2     1  UNL1        0.0040
      9  C          8.4380    1.2170   -0.6540 C.2     1  UNL1        0.0040
     10  C          7.0400   -0.6250   -2.0730 C.2     1  UNL1        0.0000
     11  C          9.0790    0.5370   -1.6700 C.2     1  UNL1        0.0000
     12  C          8.3570   -0.3970   -2.3820 C.2     1  UNL1        0.0000
@<TRIPOS>BOND
     1    12    10    2
     2    12    11    1
     3    10     8    1
     4    11     9    2
     5     8     7    2
     6     9     7    1
     7     7     6    1
     8     1     6    1
     9     1     2    1
    10     2     4    1
    11     2     3    2
    12     4     5    1
