@<TRIPOS>MOLECULE
/home/cewinharhar/GITHUB/reincatalyze/data/processed/docking_pred/2023-Apr-26-1657_maxeplen10_maxtrainstep1000_exh32_gamma099_lrac9e-4_lrcr1e-3/44bf36be1ccee3462d679cf400989bbed31f99fd_ligand_2.pdbqt
 12 12 0 0 0
SMALL
GASTEIGER

@<TRIPOS>ATOM
      1  C          5.4140    2.9060    0.0030 C.3     1  UNL1        0.1270
      2  C          6.2240    3.8640    0.7930 C.2     1  UNL1        0.3030
      3  O          6.8900    4.7700    0.2340 O.2     1  UNL1       -0.2520
      4  O          6.2680    3.7850    2.1760 O.3     1  UNL1       -0.4810
      5  H          6.6030    2.9240    2.6180 H       1  UNL1        0.2960
      6  C          4.8970    1.8490    0.9300 C.3     1  UNL1        0.0470
      7  C          5.6960    0.6250    0.9410 C.2     1  UNL1       -0.0470
      8  C          5.8120   -0.1300    2.0850 C.2     1  UNL1        0.0040
      9  C          6.3340    0.2300   -0.2130 C.2     1  UNL1        0.0040
     10  C          6.5900   -1.2880    2.0210 C.2     1  UNL1        0.0000
     11  C          7.1040   -0.9150   -0.2730 C.2     1  UNL1        0.0000
     12  C          7.2250   -1.6770    0.8690 C.2     1  UNL1        0.0000
@<TRIPOS>BOND
     1    11     9    1
     2    11    12    2
     3     9     7    2
     4     1     2    1
     5     1     6    1
     6     3     2    2
     7     2     4    1
     8    12    10    1
     9     6     7    1
    10     7     8    1
    11    10     8    2
    12     4     5    1
