@<TRIPOS>MOLECULE
/home/cewinharhar/GITHUB/reincatalyze/data/processed/docking_pred/2023-Apr-26-1657_maxeplen10_maxtrainstep1000_exh32_gamma099_lrac9e-4_lrcr1e-3/44bf36be1ccee3462d679cf400989bbed31f99fd_ligand_2.pdbqt
 12 12 0 0 0
SMALL
GASTEIGER

@<TRIPOS>ATOM
      1  C          8.4260   -0.5740   -2.1730 C.3     1  UNL1        0.1270
      2  C          8.4880   -1.8540   -2.9160 C.2     1  UNL1        0.3030
      3  O          9.5790   -2.4510   -3.0940 O.2     1  UNL1       -0.2520
      4  O          7.3400   -2.4300   -3.4350 O.3     1  UNL1       -0.4810
      5  H          7.3380   -3.4280   -3.6610 H       1  UNL1        0.2960
      6  C          6.9990   -0.1190   -2.1370 C.3     1  UNL1        0.0470
      7  C          6.4670    0.0630   -0.7870 C.2     1  UNL1       -0.0470
      8  C          5.8390    1.2340   -0.4310 C.2     1  UNL1        0.0040
      9  C          6.5980   -0.9550    0.1290 C.2     1  UNL1        0.0040
     10  C          5.3540    1.3380    0.8750 C.2     1  UNL1        0.0000
     11  C          6.1180   -0.8500    1.4190 C.2     1  UNL1        0.0000
     12  C          5.4880    0.3190    1.7850 C.2     1  UNL1        0.0000
@<TRIPOS>BOND
     1     5     4    1
     2     4     2    1
     3     3     2    2
     4     2     1    1
     5     1     6    1
     6     6     7    1
     7     7     8    2
     8     7     9    1
     9     8    10    1
    10     9    11    2
    11    10    12    2
    12    11    12    1
