@<TRIPOS>MOLECULE
/home/cewinharhar/GITHUB/reincatalyze/data/processed/docking_pred/2023-Apr-26-1657_maxeplen10_maxtrainstep1000_exh32_gamma099_lrac9e-4_lrcr1e-3/44bf36be1ccee3462d679cf400989bbed31f99fd_ligand_2.pdbqt
 12 12 0 0 0
SMALL
GASTEIGER

@<TRIPOS>ATOM
      1  C          8.4450   -0.5900   -2.1810 C.3     1  UNL1        0.1270
      2  C          8.4810   -1.8800   -2.9100 C.2     1  UNL1        0.3030
      3  O          9.5620   -2.4890   -3.1040 O.2     1  UNL1       -0.2520
      4  O          7.3170   -2.4510   -3.3990 O.3     1  UNL1       -0.4810
      5  H          6.5120   -1.8520   -3.6020 H       1  UNL1        0.2960
      6  C          7.0260   -0.1130   -2.1390 C.3     1  UNL1        0.0470
      7  C          6.4890    0.0350   -0.7870 C.2     1  UNL1       -0.0470
      8  C          6.6150   -0.9780    0.1350 C.2     1  UNL1        0.0040
      9  C          5.8530    1.2060   -0.4420 C.2     1  UNL1        0.0040
     10  C          6.0790   -0.7670    1.4070 C.2     1  UNL1        0.0000
     11  C          5.3230    1.4120    0.8160 C.2     1  UNL1        0.0000
     12  C          5.4450    0.4020    1.7460 C.2     1  UNL1        0.0000
@<TRIPOS>BOND
     1     5     4    1
     2     4     2    1
     3     3     2    2
     4     2     1    1
     5     1     6    1
     6     6     7    1
     7     7     9    2
     8     7     8    1
     9     9    11    1
    10     8    10    2
    11    11    12    2
    12    10    12    1
