@<TRIPOS>MOLECULE
/home/cewinharhar/GITHUB/reincatalyze/data/processed/docking_pred/2023-Apr-26-1657_maxeplen10_maxtrainstep1000_exh32_gamma099_lrac9e-4_lrcr1e-3/44bf36be1ccee3462d679cf400989bbed31f99fd_ligand_2.pdbqt
 12 12 0 0 0
SMALL
GASTEIGER

@<TRIPOS>ATOM
      1  C          4.9880    1.8000    0.6880 C.3     1  UNL1        0.1270
      2  C          4.4800    1.1250    1.9060 C.2     1  UNL1        0.3030
      3  O          5.1420    0.2220    2.4740 O.2     1  UNL1       -0.2520
      4  O          3.2550    1.4740    2.4520 O.3     1  UNL1       -0.4810
      5  H          2.5050    0.7780    2.4870 H       1  UNL1        0.2960
      6  C          6.4850    1.7960    0.7390 C.3     1  UNL1        0.0470
      7  C          7.1150    1.0440   -0.3450 C.2     1  UNL1       -0.0470
      8  C          6.3850    0.1590   -1.1030 C.2     1  UNL1        0.0040
      9  C          8.4540    1.2310   -0.6030 C.2     1  UNL1        0.0040
     10  C          7.0520   -0.5250   -2.1220 C.2     1  UNL1        0.0000
     11  C          9.1110    0.5540   -1.6100 C.2     1  UNL1        0.0000
     12  C          8.3870   -0.3350   -2.3740 C.2     1  UNL1        0.0000
@<TRIPOS>BOND
     1    12    10    2
     2    12    11    1
     3    10     8    1
     4    11     9    2
     5     8     7    2
     6     9     7    1
     7     7     6    1
     8     1     6    1
     9     1     2    1
    10     2     4    1
    11     2     3    2
    12     4     5    1
