@<TRIPOS>MOLECULE
/home/cewinharhar/GITHUB/reincatalyze/data/processed/docking_pred/2023-Apr-26-1657_maxeplen10_maxtrainstep1000_exh32_gamma099_lrac9e-4_lrcr1e-3/44bf36be1ccee3462d679cf400989bbed31f99fd_ligand_2.pdbqt
 12 12 0 0 0
SMALL
GASTEIGER

@<TRIPOS>ATOM
      1  C          7.2320   -1.2280   -2.4010 C.3     1  UNL1        0.1270
      2  C          8.6940   -1.3950   -2.5730 C.2     1  UNL1        0.3030
      3  O          9.5040   -0.5540   -2.1110 O.2     1  UNL1       -0.2520
      4  O          9.2090   -2.4880   -3.2520 O.3     1  UNL1       -0.4810
      5  H          9.6560   -2.3480   -4.1610 H       1  UNL1        0.2960
      6  C          6.9710    0.1630   -1.9090 C.3     1  UNL1        0.0470
      7  C          6.3780    0.2210   -0.5750 C.2     1  UNL1       -0.0470
      8  C          6.5550   -0.8110    0.3190 C.2     1  UNL1        0.0040
      9  C          5.6390    1.3240   -0.2150 C.2     1  UNL1        0.0040
     10  C          5.9600   -0.6880    1.5760 C.2     1  UNL1        0.0000
     11  C          5.0520    1.4440    1.0280 C.2     1  UNL1        0.0000
     12  C          5.2230    0.4150    1.9290 C.2     1  UNL1        0.0000
@<TRIPOS>BOND
     1     5     4    1
     2     4     2    1
     3     2     1    1
     4     2     3    2
     5     1     6    1
     6     6     7    1
     7     7     9    2
     8     7     8    1
     9     9    11    1
    10     8    10    2
    11    11    12    2
    12    10    12    1
