MODEL 1
REMARK VINA RESULT:      -7.4      0.000      0.000
REMARK SMILES O=C(O)CCc1ccccc1
REMARK SMILES IDX 4 1 2 2 1 3 3 4 5 6 6 7 7 8 11 9 8 10 10 11 9 12
REMARK H PARENT 3 5
REMARK Flexibility Score: inf
ROOT
ATOM      1  C   UNL     1       8.445  -0.590  -2.181  1.00  0.00     0.127 C 
ENDROOT
BRANCH   1   2
ATOM      2  C   UNL     1       8.481  -1.880  -2.910  1.00  0.00     0.303 C 
ATOM      3  O   UNL     1       9.562  -2.489  -3.104  1.00  0.00    -0.252 OA
BRANCH   2   4
ATOM      4  O   UNL     1       7.317  -2.451  -3.399  1.00  0.00    -0.481 OA
ATOM      5  H   UNL     1       6.512  -1.852  -3.602  1.00  0.00     0.296 HD
ENDBRANCH   2   4
ENDBRANCH   1   2
BRANCH   1   6
ATOM      6  C   UNL     1       7.026  -0.113  -2.139  1.00  0.00     0.047 C 
BRANCH   6   7
ATOM      7  C   UNL     1       6.489   0.035  -0.787  1.00  0.00    -0.047 A 
ATOM      8  C   UNL     1       6.615  -0.978   0.135  1.00  0.00     0.004 A 
ATOM      9  C   UNL     1       5.853   1.206  -0.442  1.00  0.00     0.004 A 
ATOM     10  C   UNL     1       6.079  -0.767   1.407  1.00  0.00     0.000 A 
ATOM     11  C   UNL     1       5.323   1.412   0.816  1.00  0.00     0.000 A 
ATOM     12  C   UNL     1       5.445   0.402   1.746  1.00  0.00     0.000 A 
ENDBRANCH   6   7
ENDBRANCH   1   6
TORSDOF 4
ENDMDL
MODEL 2
REMARK VINA RESULT:      -7.3      0.059      1.438
REMARK SMILES O=C(O)CCc1ccccc1
REMARK SMILES IDX 4 1 2 2 1 3 3 4 5 6 6 7 7 8 11 9 8 10 10 11 9 12
REMARK H PARENT 3 5
REMARK Flexibility Score: inf
ROOT
ATOM      1  C   UNL     1       8.426  -0.574  -2.173  1.00  0.00     0.127 C 
ENDROOT
BRANCH   1   2
ATOM      2  C   UNL     1       8.488  -1.854  -2.916  1.00  0.00     0.303 C 
ATOM      3  O   UNL     1       9.579  -2.451  -3.094  1.00  0.00    -0.252 OA
BRANCH   2   4
ATOM      4  O   UNL     1       7.340  -2.430  -3.435  1.00  0.00    -0.481 OA
ATOM      5  H   UNL     1       7.338  -3.428  -3.661  1.00  0.00     0.296 HD
ENDBRANCH   2   4
ENDBRANCH   1   2
BRANCH   1   6
ATOM      6  C   UNL     1       6.999  -0.119  -2.137  1.00  0.00     0.047 C 
BRANCH   6   7
ATOM      7  C   UNL     1       6.467   0.063  -0.787  1.00  0.00    -0.047 A 
ATOM      8  C   UNL     1       5.839   1.234  -0.431  1.00  0.00     0.004 A 
ATOM      9  C   UNL     1       6.598  -0.955   0.129  1.00  0.00     0.004 A 
ATOM     10  C   UNL     1       5.354   1.338   0.875  1.00  0.00     0.000 A 
ATOM     11  C   UNL     1       6.118  -0.850   1.419  1.00  0.00     0.000 A 
ATOM     12  C   UNL     1       5.488   0.319   1.785  1.00  0.00     0.000 A 
ENDBRANCH   6   7
ENDBRANCH   1   6
TORSDOF 4
ENDMDL
MODEL 3
REMARK VINA RESULT:      -7.1      0.813      1.014
REMARK SMILES O=C(O)CCc1ccccc1
REMARK SMILES IDX 4 1 2 2 1 3 3 4 5 6 6 7 7 8 11 9 8 10 10 11 9 12
REMARK H PARENT 3 5
REMARK Flexibility Score: inf
ROOT
ATOM      1  C   UNL     1       7.232  -1.228  -2.401  1.00  0.00     0.127 C 
ENDROOT
BRANCH   1   2
ATOM      2  C   UNL     1       8.694  -1.395  -2.573  1.00  0.00     0.303 C 
ATOM      3  O   UNL     1       9.504  -0.554  -2.111  1.00  0.00    -0.252 OA
BRANCH   2   4
ATOM      4  O   UNL     1       9.209  -2.488  -3.252  1.00  0.00    -0.481 OA
ATOM      5  H   UNL     1       9.656  -2.348  -4.161  1.00  0.00     0.296 HD
ENDBRANCH   2   4
ENDBRANCH   1   2
BRANCH   1   6
ATOM      6  C   UNL     1       6.971   0.163  -1.909  1.00  0.00     0.047 C 
BRANCH   6   7
ATOM      7  C   UNL     1       6.378   0.221  -0.575  1.00  0.00    -0.047 A 
ATOM      8  C   UNL     1       6.555  -0.811   0.319  1.00  0.00     0.004 A 
ATOM      9  C   UNL     1       5.639   1.324  -0.215  1.00  0.00     0.004 A 
ATOM     10  C   UNL     1       5.960  -0.688   1.576  1.00  0.00     0.000 A 
ATOM     11  C   UNL     1       5.052   1.444   1.028  1.00  0.00     0.000 A 
ATOM     12  C   UNL     1       5.223   0.415   1.929  1.00  0.00     0.000 A 
ENDBRANCH   6   7
ENDBRANCH   1   6
TORSDOF 4
ENDMDL
MODEL 4
REMARK VINA RESULT:      -6.8      3.374      5.067
REMARK SMILES O=C(O)CCc1ccccc1
REMARK SMILES IDX 4 1 2 2 1 3 3 4 5 6 6 7 7 8 11 9 8 10 10 11 9 12
REMARK H PARENT 3 5
REMARK Flexibility Score: inf
ROOT
ATOM      1  C   UNL     1       4.988   1.800   0.688  1.00  0.00     0.127 C 
ENDROOT
BRANCH   1   2
ATOM      2  C   UNL     1       4.480   1.125   1.906  1.00  0.00     0.303 C 
ATOM      3  O   UNL     1       5.142   0.222   2.474  1.00  0.00    -0.252 OA
BRANCH   2   4
ATOM      4  O   UNL     1       3.255   1.474   2.452  1.00  0.00    -0.481 OA
ATOM      5  H   UNL     1       2.505   0.778   2.487  1.00  0.00     0.296 HD
ENDBRANCH   2   4
ENDBRANCH   1   2
BRANCH   1   6
ATOM      6  C   UNL     1       6.485   1.796   0.739  1.00  0.00     0.047 C 
BRANCH   6   7
ATOM      7  C   UNL     1       7.115   1.044  -0.345  1.00  0.00    -0.047 A 
ATOM      8  C   UNL     1       6.385   0.159  -1.103  1.00  0.00     0.004 A 
ATOM      9  C   UNL     1       8.454   1.231  -0.603  1.00  0.00     0.004 A 
ATOM     10  C   UNL     1       7.052  -0.525  -2.122  1.00  0.00     0.000 A 
ATOM     11  C   UNL     1       9.111   0.554  -1.610  1.00  0.00     0.000 A 
ATOM     12  C   UNL     1       8.387  -0.335  -2.374  1.00  0.00     0.000 A 
ENDBRANCH   6   7
ENDBRANCH   1   6
TORSDOF 4
ENDMDL
MODEL 5
REMARK VINA RESULT:      -6.7      3.812      4.928
REMARK SMILES O=C(O)CCc1ccccc1
REMARK SMILES IDX 4 1 2 2 1 3 3 4 5 6 6 7 7 8 11 9 8 10 10 11 9 12
REMARK H PARENT 3 5
REMARK Flexibility Score: inf
ROOT
ATOM      1  C   UNL     1       5.414   2.906   0.003  1.00  0.00     0.127 C 
ENDROOT
BRANCH   1   2
ATOM      2  C   UNL     1       6.224   3.864   0.793  1.00  0.00     0.303 C 
ATOM      3  O   UNL     1       6.890   4.770   0.234  1.00  0.00    -0.252 OA
BRANCH   2   4
ATOM      4  O   UNL     1       6.268   3.785   2.176  1.00  0.00    -0.481 OA
ATOM      5  H   UNL     1       6.603   2.924   2.618  1.00  0.00     0.296 HD
ENDBRANCH   2   4
ENDBRANCH   1   2
BRANCH   1   6
ATOM      6  C   UNL     1       4.897   1.849   0.930  1.00  0.00     0.047 C 
BRANCH   6   7
ATOM      7  C   UNL     1       5.696   0.625   0.941  1.00  0.00    -0.047 A 
ATOM      8  C   UNL     1       5.812  -0.130   2.085  1.00  0.00     0.004 A 
ATOM      9  C   UNL     1       6.334   0.230  -0.213  1.00  0.00     0.004 A 
ATOM     10  C   UNL     1       6.590  -1.288   2.021  1.00  0.00     0.000 A 
ATOM     11  C   UNL     1       7.104  -0.915  -0.273  1.00  0.00     0.000 A 
ATOM     12  C   UNL     1       7.225  -1.677   0.869  1.00  0.00     0.000 A 
ENDBRANCH   6   7
ENDBRANCH   1   6
TORSDOF 4
ENDMDL
