@<TRIPOS>MOLECULE
/home/cewinharhar/GITHUB/reincatalyze/data/processed/docking_pred/2023-Apr-26-1657_maxeplen10_maxtrainstep1000_exh32_gamma099_lrac9e-4_lrcr1e-3/46824fcf52dc560be674bfd6df7e039c48ea1670_ligand_2.pdbqt
 12 12 0 0 0
SMALL
GASTEIGER

@<TRIPOS>ATOM
      1  C          8.4500   -0.6460   -2.0900 C.3     1  UNL1        0.1270
      2  C          8.3990   -1.8990   -2.8800 C.2     1  UNL1        0.3030
      3  O          7.3030   -2.4130   -3.2150 O.2     1  UNL1       -0.2520
      4  O          9.5640   -2.5390   -3.2710 O.3     1  UNL1       -0.4810
      5  H          9.7860   -2.6090   -4.2680 H       1  UNL1        0.2960
      6  C          7.0830   -0.0310   -2.0940 C.3     1  UNL1        0.0470
      7  C          6.4960    0.1230   -0.7640 C.2     1  UNL1       -0.0470
      8  C          6.6640   -0.8490    0.1950 C.2     1  UNL1        0.0040
      9  C          5.7710    1.2560   -0.4770 C.2     1  UNL1        0.0040
     10  C          6.0770   -0.6350    1.4440 C.2     1  UNL1        0.0000
     11  C          5.1910    1.4660    0.7580 C.2     1  UNL1        0.0000
     12  C          5.3540    0.4970    1.7240 C.2     1  UNL1        0.0000
@<TRIPOS>BOND
     1     5     4    1
     2     4     2    1
     3     3     2    2
     4     2     1    1
     5     6     1    1
     6     6     7    1
     7     7     9    2
     8     7     8    1
     9     9    11    1
    10     8    10    2
    11    11    12    2
    12    10    12    1
