@<TRIPOS>MOLECULE
/home/cewinharhar/GITHUB/reincatalyze/data/processed/docking_pred/2023-Apr-26-1657_maxeplen10_maxtrainstep1000_exh32_gamma099_lrac9e-4_lrcr1e-3/46824fcf52dc560be674bfd6df7e039c48ea1670_ligand_2.pdbqt
 12 12 0 0 0
SMALL
GASTEIGER

@<TRIPOS>ATOM
      1  C          4.9920    1.7800    0.6470 C.3     1  UNL1        0.1270
      2  C          4.5020    1.1220    1.8810 C.2     1  UNL1        0.3030
      3  O          5.1820    0.2410    2.4630 O.2     1  UNL1       -0.2520
      4  O          3.2750    1.4620    2.4280 O.3     1  UNL1       -0.4810
      5  H          2.9160    2.4130    2.3010 H       1  UNL1        0.2960
      6  C          6.4880    1.8280    0.7020 C.3     1  UNL1        0.0470
      7  C          7.1470    1.0650   -0.3570 C.2     1  UNL1       -0.0470
      8  C          8.4860    1.2350   -0.6180 C.2     1  UNL1        0.0040
      9  C          6.4100    0.1660   -1.0930 C.2     1  UNL1        0.0040
     10  C          9.0490    0.4720   -1.6430 C.2     1  UNL1        0.0000
     11  C          6.9680   -0.5880   -2.1070 C.2     1  UNL1        0.0000
     12  C          8.3090   -0.4220   -2.3760 C.2     1  UNL1        0.0000
@<TRIPOS>BOND
     1    12    11    2
     2    12    10    1
     3    11     9    1
     4    10     8    2
     5     9     7    2
     6     8     7    1
     7     7     6    1
     8     1     6    1
     9     1     2    1
    10     2     4    1
    11     2     3    2
    12     5     4    1
