@<TRIPOS>MOLECULE
/home/cewinharhar/GITHUB/reincatalyze/data/processed/docking_pred/2023-Apr-26-1657_maxeplen10_maxtrainstep1000_exh32_gamma099_lrac9e-4_lrcr1e-3/46824fcf52dc560be674bfd6df7e039c48ea1670_ligand_2.pdbqt
 12 12 0 0 0
SMALL
GASTEIGER

@<TRIPOS>ATOM
      1  C          5.3270    2.9520    0.0920 C.3     1  UNL1        0.1270
      2  C          6.2180    3.8590    0.8530 C.2     1  UNL1        0.3030
      3  O          6.8580    4.7750    0.2800 O.2     1  UNL1       -0.2520
      4  O          6.3690    3.7200    2.2230 O.3     1  UNL1       -0.4810
      5  H          5.8630    2.9750    2.7100 H       1  UNL1        0.2960
      6  C          5.2200    1.6590    0.8410 C.3     1  UNL1        0.0470
      7  C          5.9880    0.5650    0.2500 C.2     1  UNL1       -0.0470
      8  C          6.3850   -0.5090    1.0140 C.2     1  UNL1        0.0040
      9  C          6.3130    0.6170   -1.0860 C.2     1  UNL1        0.0040
     10  C          7.1160   -1.5180    0.3830 C.2     1  UNL1        0.0000
     11  C          7.0350   -0.3820   -1.7080 C.2     1  UNL1        0.0000
     12  C          7.4370   -1.4610   -0.9500 C.2     1  UNL1        0.0000
@<TRIPOS>BOND
     1    11     9    1
     2    11    12    2
     3     9     7    2
     4    12    10    1
     5     1     6    1
     6     1     2    1
     7     7     6    1
     8     7     8    1
     9     3     2    2
    10    10     8    2
    11     2     4    1
    12     4     5    1
