@<TRIPOS>MOLECULE
/home/cewinharhar/GITHUB/reincatalyze/data/processed/docking_pred/2023-Apr-26-1657_maxeplen10_maxtrainstep1000_exh32_gamma099_lrac9e-4_lrcr1e-3/46824fcf52dc560be674bfd6df7e039c48ea1670_ligand_2.pdbqt
 12 12 0 0 0
SMALL
GASTEIGER

@<TRIPOS>ATOM
      1  C          8.5230    0.6420   -1.7260 C.3     1  UNL1        0.1270
      2  C          9.6490    0.2950   -0.8270 C.2     1  UNL1        0.3030
      3  O          9.4940   -0.4990    0.1340 O.2     1  UNL1       -0.2520
      4  O         10.9080    0.8400   -1.0230 O.3     1  UNL1       -0.4810
      5  H         11.3810    0.6970   -1.9200 H       1  UNL1        0.2960
      6  C          7.3600   -0.2390   -1.3850 C.3     1  UNL1        0.0470
      7  C          6.4640    0.3230   -0.3760 C.2     1  UNL1       -0.0470
      8  C          6.2500   -0.3280    0.8160 C.2     1  UNL1        0.0040
      9  C          5.8340    1.5200   -0.6300 C.2     1  UNL1        0.0040
     10  C          5.3820    0.2680    1.7340 C.2     1  UNL1        0.0000
     11  C          4.9760    2.1070    0.2780 C.2     1  UNL1        0.0000
     12  C          4.7550    1.4610    1.4750 C.2     1  UNL1        0.0000
@<TRIPOS>BOND
     1     5     4    1
     2     1     6    1
     3     1     2    1
     4     6     7    1
     5     4     2    1
     6     2     3    2
     7     9     7    2
     8     9    11    1
     9     7     8    1
    10    11    12    2
    11     8    10    2
    12    12    10    1
