@<TRIPOS>MOLECULE
/home/cewinharhar/GITHUB/reincatalyze/data/processed/docking_pred/2023-Apr-26-1657_maxeplen10_maxtrainstep1000_exh32_gamma099_lrac9e-4_lrcr1e-3/46861e00ed193d15618049a480e2ca269f83ce14_ligand_2.pdbqt
 12 12 0 0 0
SMALL
GASTEIGER

@<TRIPOS>ATOM
      1  C          7.3270   -1.1940   -2.2240 C.3     1  UNL1        0.1270
      2  C          8.7710   -1.3820   -2.5010 C.2     1  UNL1        0.3030
      3  O          9.6270   -0.5730   -2.0680 O.2     1  UNL1       -0.2520
      4  O          9.2160   -2.4610   -3.2480 O.3     1  UNL1       -0.4810
      5  H         10.2030   -2.7280   -3.2030 H       1  UNL1        0.2960
      6  C          7.1090   -1.3310   -0.7480 C.3     1  UNL1        0.0470
      7  C          6.3560   -0.2290   -0.1530 C.2     1  UNL1       -0.0470
      8  C          6.0840    0.9090   -0.8770 C.2     1  UNL1        0.0040
      9  C          5.9170   -0.3390    1.1460 C.2     1  UNL1        0.0040
     10  C          5.3590    1.9220   -0.2460 C.2     1  UNL1        0.0000
     11  C          5.2000    0.6630    1.7690 C.2     1  UNL1        0.0000
     12  C          4.9240    1.8060    1.0500 C.2     1  UNL1        0.0000
@<TRIPOS>BOND
     1     4     5    1
     2     4     2    1
     3     2     1    1
     4     2     3    2
     5     1     6    1
     6     8    10    1
     7     8     7    2
     8     6     7    1
     9    10    12    2
    10     7     9    1
    11    12    11    1
    12     9    11    2
