@<TRIPOS>MOLECULE
/home/cewinharhar/GITHUB/reincatalyze/data/processed/docking_pred/2023-Apr-26-1657_maxeplen10_maxtrainstep1000_exh32_gamma099_lrac9e-4_lrcr1e-3/46861e00ed193d15618049a480e2ca269f83ce14_ligand_2.pdbqt
 12 12 0 0 0
SMALL
GASTEIGER

@<TRIPOS>ATOM
      1  C          8.2680   -0.9150   -1.8820 C.3     1  UNL1        0.1270
      2  C          8.4030   -2.0350   -2.8420 C.2     1  UNL1        0.3030
      3  O          9.5190   -2.5640   -3.0720 O.2     1  UNL1       -0.2520
      4  O          7.2980   -2.5300   -3.5150 O.3     1  UNL1       -0.4810
      5  H          7.0660   -3.5240   -3.4350 H       1  UNL1        0.2960
      6  C          7.5070   -1.4070   -0.6880 C.3     1  UNL1        0.0470
      7  C          6.6410   -0.3990   -0.0780 C.2     1  UNL1       -0.0470
      8  C          6.1600   -0.5660    1.2000 C.2     1  UNL1        0.0040
      9  C          6.3110    0.7260   -0.7970 C.2     1  UNL1        0.0040
     10  C          5.3390    0.4370    1.7190 C.2     1  UNL1        0.0000
     11  C          5.4990    1.7170   -0.2830 C.2     1  UNL1        0.0000
     12  C          5.0120    1.5570    0.9970 C.2     1  UNL1        0.0000
@<TRIPOS>BOND
     1     4     5    1
     2     4     2    1
     3     3     2    2
     4     2     1    1
     5     1     6    1
     6     9    11    1
     7     9     7    2
     8     6     7    1
     9    11    12    2
    10     7     8    1
    11    12    10    1
    12     8    10    2
