MODEL 1
REMARK VINA RESULT:      -7.3      0.000      0.000
REMARK SMILES O=C(O)CCc1ccccc1
REMARK SMILES IDX 4 1 2 2 1 3 3 4 5 6 6 7 7 8 11 9 8 10 10 11 9 12
REMARK H PARENT 3 5
REMARK Flexibility Score: inf
ROOT
ATOM      1  C   UNL     1       8.415  -0.563  -2.219  1.00  0.00     0.127 C 
ENDROOT
BRANCH   1   2
ATOM      2  C   UNL     1       8.469  -1.868  -2.919  1.00  0.00     0.303 C 
ATOM      3  O   UNL     1       9.557  -2.473  -3.085  1.00  0.00    -0.252 OA
BRANCH   2   4
ATOM      4  O   UNL     1       7.316  -2.458  -3.412  1.00  0.00    -0.481 OA
ATOM      5  H   UNL     1       7.240  -3.479  -3.421  1.00  0.00     0.296 HD
ENDBRANCH   2   4
ENDBRANCH   1   2
BRANCH   1   6
ATOM      6  C   UNL     1       6.986  -0.117  -2.164  1.00  0.00     0.047 C 
BRANCH   6   7
ATOM      7  C   UNL     1       6.468   0.058  -0.808  1.00  0.00    -0.047 A 
ATOM      8  C   UNL     1       5.867   1.236  -0.431  1.00  0.00     0.004 A 
ATOM      9  C   UNL     1       6.587  -0.974   0.094  1.00  0.00     0.004 A 
ATOM     10  C   UNL     1       5.395   1.332   0.880  1.00  0.00     0.000 A 
ATOM     11  C   UNL     1       6.121  -0.877   1.389  1.00  0.00     0.000 A 
ATOM     12  C   UNL     1       5.517   0.300   1.775  1.00  0.00     0.000 A 
ENDBRANCH   6   7
ENDBRANCH   1   6
TORSDOF 4
ENDMDL
MODEL 2
REMARK VINA RESULT:      -7.3      0.189      1.735
REMARK SMILES O=C(O)CCc1ccccc1
REMARK SMILES IDX 4 1 2 2 1 3 3 4 5 6 6 7 7 8 11 9 8 10 10 11 9 12
REMARK H PARENT 3 5
REMARK Flexibility Score: inf
ROOT
ATOM      1  C   UNL     1       8.465  -0.662  -2.064  1.00  0.00     0.127 C 
ENDROOT
BRANCH   1   2
ATOM      2  C   UNL     1       8.407  -1.907  -2.866  1.00  0.00     0.303 C 
ATOM      3  O   UNL     1       7.308  -2.410  -3.208  1.00  0.00    -0.252 OA
BRANCH   2   4
ATOM      4  O   UNL     1       9.568  -2.553  -3.260  1.00  0.00    -0.481 OA
ATOM      5  H   UNL     1       9.984  -3.256  -2.644  1.00  0.00     0.296 HD
ENDBRANCH   2   4
ENDBRANCH   1   2
BRANCH   1   6
ATOM      6  C   UNL     1       7.107  -0.029  -2.079  1.00  0.00     0.047 C 
BRANCH   6   7
ATOM      7  C   UNL     1       6.507   0.121  -0.755  1.00  0.00    -0.047 A 
ATOM      8  C   UNL     1       6.647  -0.863   0.196  1.00  0.00     0.004 A 
ATOM      9  C   UNL     1       5.797   1.264  -0.465  1.00  0.00     0.004 A 
ATOM     10  C   UNL     1       6.047  -0.652   1.440  1.00  0.00     0.000 A 
ATOM     11  C   UNL     1       5.205   1.470   0.765  1.00  0.00     0.000 A 
ATOM     12  C   UNL     1       5.340   0.489   1.723  1.00  0.00     0.000 A 
ENDBRANCH   6   7
ENDBRANCH   1   6
TORSDOF 4
ENDMDL
MODEL 3
REMARK VINA RESULT:      -7.2      0.626      1.619
REMARK SMILES O=C(O)CCc1ccccc1
REMARK SMILES IDX 4 1 2 2 1 3 3 4 5 6 6 7 7 8 11 9 8 10 10 11 9 12
REMARK H PARENT 3 5
REMARK Flexibility Score: inf
ROOT
ATOM      1  C   UNL     1       8.268  -0.915  -1.882  1.00  0.00     0.127 C 
ENDROOT
BRANCH   1   2
ATOM      2  C   UNL     1       8.403  -2.035  -2.842  1.00  0.00     0.303 C 
ATOM      3  O   UNL     1       9.519  -2.564  -3.072  1.00  0.00    -0.252 OA
BRANCH   2   4
ATOM      4  O   UNL     1       7.298  -2.530  -3.515  1.00  0.00    -0.481 OA
ATOM      5  H   UNL     1       7.066  -3.524  -3.435  1.00  0.00     0.296 HD
ENDBRANCH   2   4
ENDBRANCH   1   2
BRANCH   1   6
ATOM      6  C   UNL     1       7.507  -1.407  -0.688  1.00  0.00     0.047 C 
BRANCH   6   7
ATOM      7  C   UNL     1       6.641  -0.399  -0.078  1.00  0.00    -0.047 A 
ATOM      8  C   UNL     1       6.160  -0.566   1.200  1.00  0.00     0.004 A 
ATOM      9  C   UNL     1       6.311   0.726  -0.797  1.00  0.00     0.004 A 
ATOM     10  C   UNL     1       5.339   0.437   1.719  1.00  0.00     0.000 A 
ATOM     11  C   UNL     1       5.499   1.717  -0.283  1.00  0.00     0.000 A 
ATOM     12  C   UNL     1       5.012   1.557   0.997  1.00  0.00     0.000 A 
ENDBRANCH   6   7
ENDBRANCH   1   6
TORSDOF 4
ENDMDL
MODEL 4
REMARK VINA RESULT:      -7.0      0.973      1.502
REMARK SMILES O=C(O)CCc1ccccc1
REMARK SMILES IDX 4 1 2 2 1 3 3 4 5 6 6 7 7 8 11 9 8 10 10 11 9 12
REMARK H PARENT 3 5
REMARK Flexibility Score: inf
ROOT
ATOM      1  C   UNL     1       7.327  -1.194  -2.224  1.00  0.00     0.127 C 
ENDROOT
BRANCH   1   2
ATOM      2  C   UNL     1       8.771  -1.382  -2.501  1.00  0.00     0.303 C 
ATOM      3  O   UNL     1       9.627  -0.573  -2.068  1.00  0.00    -0.252 OA
BRANCH   2   4
ATOM      4  O   UNL     1       9.216  -2.461  -3.248  1.00  0.00    -0.481 OA
ATOM      5  H   UNL     1      10.203  -2.728  -3.203  1.00  0.00     0.296 HD
ENDBRANCH   2   4
ENDBRANCH   1   2
BRANCH   1   6
ATOM      6  C   UNL     1       7.109  -1.331  -0.748  1.00  0.00     0.047 C 
BRANCH   6   7
ATOM      7  C   UNL     1       6.356  -0.229  -0.153  1.00  0.00    -0.047 A 
ATOM      8  C   UNL     1       6.084   0.909  -0.877  1.00  0.00     0.004 A 
ATOM      9  C   UNL     1       5.917  -0.339   1.146  1.00  0.00     0.004 A 
ATOM     10  C   UNL     1       5.359   1.922  -0.246  1.00  0.00     0.000 A 
ATOM     11  C   UNL     1       5.200   0.663   1.769  1.00  0.00     0.000 A 
ATOM     12  C   UNL     1       4.924   1.806   1.050  1.00  0.00     0.000 A 
ENDBRANCH   6   7
ENDBRANCH   1   6
TORSDOF 4
ENDMDL
MODEL 5
REMARK VINA RESULT:      -6.7      3.823      4.899
REMARK SMILES O=C(O)CCc1ccccc1
REMARK SMILES IDX 4 1 2 2 1 3 3 4 5 6 6 7 7 8 11 9 8 10 10 11 9 12
REMARK H PARENT 3 5
REMARK Flexibility Score: inf
ROOT
ATOM      1  C   UNL     1       5.482   2.889  -0.020  1.00  0.00     0.127 C 
ENDROOT
BRANCH   1   2
ATOM      2  C   UNL     1       6.261   3.858   0.786  1.00  0.00     0.303 C 
ATOM      3  O   UNL     1       6.923   4.775   0.241  1.00  0.00    -0.252 OA
BRANCH   2   4
ATOM      4  O   UNL     1       6.280   3.777   2.169  1.00  0.00    -0.481 OA
ATOM      5  H   UNL     1       5.575   3.209   2.648  1.00  0.00     0.296 HD
ENDBRANCH   2   4
ENDBRANCH   1   2
BRANCH   1   6
ATOM      6  C   UNL     1       4.945   1.835   0.899  1.00  0.00     0.047 C 
BRANCH   6   7
ATOM      7  C   UNL     1       5.721   0.596   0.902  1.00  0.00    -0.047 A 
ATOM      8  C   UNL     1       6.404   0.192  -0.222  1.00  0.00     0.004 A 
ATOM      9  C   UNL     1       5.765  -0.166   2.046  1.00  0.00     0.004 A 
ATOM     10  C   UNL     1       7.125  -1.001  -0.148  1.00  0.00     0.000 A 
ATOM     11  C   UNL     1       6.478  -1.346   2.117  1.00  0.00     0.000 A 
ATOM     12  C   UNL     1       7.165  -1.758   0.996  1.00  0.00     0.000 A 
ENDBRANCH   6   7
ENDBRANCH   1   6
TORSDOF 4
ENDMDL
