@<TRIPOS>MOLECULE
/home/cewinharhar/GITHUB/reincatalyze/data/processed/docking_pred/2023-Apr-26-1657_maxeplen10_maxtrainstep1000_exh32_gamma099_lrac9e-4_lrcr1e-3/46861e00ed193d15618049a480e2ca269f83ce14_ligand_2.pdbqt
 12 12 0 0 0
SMALL
GASTEIGER

@<TRIPOS>ATOM
      1  C          8.4650   -0.6620   -2.0640 C.3     1  UNL1        0.1270
      2  C          8.4070   -1.9070   -2.8660 C.2     1  UNL1        0.3030
      3  O          7.3080   -2.4100   -3.2080 O.2     1  UNL1       -0.2520
      4  O          9.5680   -2.5530   -3.2600 O.3     1  UNL1       -0.4810
      5  H          9.9840   -3.2560   -2.6440 H       1  UNL1        0.2960
      6  C          7.1070   -0.0290   -2.0790 C.3     1  UNL1        0.0470
      7  C          6.5070    0.1210   -0.7550 C.2     1  UNL1       -0.0470
      8  C          6.6470   -0.8630    0.1960 C.2     1  UNL1        0.0040
      9  C          5.7970    1.2640   -0.4650 C.2     1  UNL1        0.0040
     10  C          6.0470   -0.6520    1.4400 C.2     1  UNL1        0.0000
     11  C          5.2050    1.4700    0.7650 C.2     1  UNL1        0.0000
     12  C          5.3400    0.4890    1.7230 C.2     1  UNL1        0.0000
@<TRIPOS>BOND
     1     4     2    1
     2     4     5    1
     3     3     2    2
     4     2     1    1
     5     6     1    1
     6     6     7    1
     7     7     9    2
     8     7     8    1
     9     9    11    1
    10     8    10    2
    11    11    12    2
    12    10    12    1
