@<TRIPOS>MOLECULE
/home/cewinharhar/GITHUB/reincatalyze/data/processed/docking_pred/2023-Apr-26-1657_maxeplen10_maxtrainstep1000_exh32_gamma099_lrac9e-4_lrcr1e-3/46861e00ed193d15618049a480e2ca269f83ce14_ligand_2.pdbqt
 12 12 0 0 0
SMALL
GASTEIGER

@<TRIPOS>ATOM
      1  C          5.4820    2.8890   -0.0200 C.3     1  UNL1        0.1270
      2  C          6.2610    3.8580    0.7860 C.2     1  UNL1        0.3030
      3  O          6.9230    4.7750    0.2410 O.2     1  UNL1       -0.2520
      4  O          6.2800    3.7770    2.1690 O.3     1  UNL1       -0.4810
      5  H          5.5750    3.2090    2.6480 H       1  UNL1        0.2960
      6  C          4.9450    1.8350    0.8990 C.3     1  UNL1        0.0470
      7  C          5.7210    0.5960    0.9020 C.2     1  UNL1       -0.0470
      8  C          6.4040    0.1920   -0.2220 C.2     1  UNL1        0.0040
      9  C          5.7650   -0.1660    2.0460 C.2     1  UNL1        0.0040
     10  C          7.1250   -1.0010   -0.1480 C.2     1  UNL1        0.0000
     11  C          6.4780   -1.3460    2.1170 C.2     1  UNL1        0.0000
     12  C          7.1650   -1.7580    0.9960 C.2     1  UNL1        0.0000
@<TRIPOS>BOND
     1     8    10    1
     2     8     7    2
     3    10    12    2
     4     1     2    1
     5     1     6    1
     6     3     2    2
     7     2     4    1
     8     6     7    1
     9     7     9    1
    10    12    11    1
    11     9    11    2
    12     4     5    1
