@<TRIPOS>MOLECULE
/home/cewinharhar/GITHUB/reincatalyze/data/processed/docking_pred/2023-Apr-26-1657_maxeplen10_maxtrainstep1000_exh32_gamma099_lrac9e-4_lrcr1e-3/46861e00ed193d15618049a480e2ca269f83ce14_ligand_2.pdbqt
 12 12 0 0 0
SMALL
GASTEIGER

@<TRIPOS>ATOM
      1  C          8.4150   -0.5630   -2.2190 C.3     1  UNL1        0.1270
      2  C          8.4690   -1.8680   -2.9190 C.2     1  UNL1        0.3030
      3  O          9.5570   -2.4730   -3.0850 O.2     1  UNL1       -0.2520
      4  O          7.3160   -2.4580   -3.4120 O.3     1  UNL1       -0.4810
      5  H          7.2400   -3.4790   -3.4210 H       1  UNL1        0.2960
      6  C          6.9860   -0.1170   -2.1640 C.3     1  UNL1        0.0470
      7  C          6.4680    0.0580   -0.8080 C.2     1  UNL1       -0.0470
      8  C          5.8670    1.2360   -0.4310 C.2     1  UNL1        0.0040
      9  C          6.5870   -0.9740    0.0940 C.2     1  UNL1        0.0040
     10  C          5.3950    1.3320    0.8800 C.2     1  UNL1        0.0000
     11  C          6.1210   -0.8770    1.3890 C.2     1  UNL1        0.0000
     12  C          5.5170    0.3000    1.7750 C.2     1  UNL1        0.0000
@<TRIPOS>BOND
     1     5     4    1
     2     4     2    1
     3     3     2    2
     4     2     1    1
     5     1     6    1
     6     6     7    1
     7     7     8    2
     8     7     9    1
     9     8    10    1
    10     9    11    2
    11    10    12    2
    12    11    12    1
