@<TRIPOS>MOLECULE
/home/cewinharhar/GITHUB/reincatalyze/data/processed/docking_pred/2023-Apr-26-1657_maxeplen10_maxtrainstep1000_exh32_gamma099_lrac9e-4_lrcr1e-3/46aa5159a95d0d08c04f597503a56ad94e9ef6ed_ligand_2.pdbqt
 12 12 0 0 0
SMALL
GASTEIGER

@<TRIPOS>ATOM
      1  C          5.4570    2.9030   -0.0170 C.3     1  UNL1        0.1270
      2  C          6.2420    3.8690    0.7880 C.2     1  UNL1        0.3030
      3  O          6.9180    4.7750    0.2410 O.2     1  UNL1       -0.2520
      4  O          6.2510    3.7970    2.1720 O.3     1  UNL1       -0.4810
      5  H          6.9160    4.3710    2.6990 H       1  UNL1        0.2960
      6  C          4.9280    1.8440    0.9020 C.3     1  UNL1        0.0470
      7  C          5.7130    0.6110    0.9010 C.2     1  UNL1       -0.0470
      8  C          6.4030    0.2170   -0.2230 C.2     1  UNL1        0.0040
      9  C          5.7580   -0.1570    2.0410 C.2     1  UNL1        0.0040
     10  C          7.1320   -0.9720   -0.1520 C.2     1  UNL1        0.0000
     11  C          6.4790   -1.3330    2.1090 C.2     1  UNL1        0.0000
     12  C          7.1730   -1.7350    0.9880 C.2     1  UNL1        0.0000
@<TRIPOS>BOND
     1     8    10    1
     2     8     7    2
     3    10    12    2
     4     1     2    1
     5     1     6    1
     6     3     2    2
     7     2     4    1
     8     7     6    1
     9     7     9    1
    10    12    11    1
    11     9    11    2
    12     4     5    1
