@<TRIPOS>MOLECULE
/home/cewinharhar/GITHUB/reincatalyze/data/processed/docking_pred/2023-Apr-26-1657_maxeplen10_maxtrainstep1000_exh32_gamma099_lrac9e-4_lrcr1e-3/46aa5159a95d0d08c04f597503a56ad94e9ef6ed_ligand_2.pdbqt
 12 12 0 0 0
SMALL
GASTEIGER

@<TRIPOS>ATOM
      1  C          8.4370   -0.6130   -2.1060 C.3     1  UNL1        0.1270
      2  C          8.4780   -1.8730   -2.8850 C.2     1  UNL1        0.3030
      3  O          9.5630   -2.4660   -3.1080 O.2     1  UNL1       -0.2520
      4  O          7.3160   -2.4330   -3.3920 O.3     1  UNL1       -0.4810
      5  H          7.3620   -3.3370   -3.8690 H       1  UNL1        0.2960
      6  C          7.0290   -0.1020   -2.1120 C.3     1  UNL1        0.0470
      7  C          6.4640    0.0970   -0.7780 C.2     1  UNL1       -0.0470
      8  C          5.8140    1.2660   -0.4570 C.2     1  UNL1        0.0040
      9  C          6.5860   -0.9030    0.1590 C.2     1  UNL1        0.0040
     10  C          5.2980    1.3870    0.8350 C.2     1  UNL1        0.0000
     11  C          6.0760   -0.7810    1.4360 C.2     1  UNL1        0.0000
     12  C          5.4240    0.3870    1.7660 C.2     1  UNL1        0.0000
@<TRIPOS>BOND
     1     5     4    1
     2     4     2    1
     3     3     2    2
     4     2     1    1
     5     6     1    1
     6     6     7    1
     7     7     8    2
     8     7     9    1
     9     8    10    1
    10     9    11    2
    11    10    12    2
    12    11    12    1
