MODEL 1
REMARK VINA RESULT:      -7.4      0.000      0.000
REMARK SMILES O=C(O)CCc1ccccc1
REMARK SMILES IDX 4 1 2 2 1 3 3 4 5 6 6 7 7 8 11 9 8 10 10 11 9 12
REMARK H PARENT 3 5
REMARK Flexibility Score: inf
ROOT
ATOM      1  C   UNL     1       8.437  -0.613  -2.106  1.00  0.00     0.127 C 
ENDROOT
BRANCH   1   2
ATOM      2  C   UNL     1       8.478  -1.873  -2.885  1.00  0.00     0.303 C 
ATOM      3  O   UNL     1       9.563  -2.466  -3.108  1.00  0.00    -0.252 OA
BRANCH   2   4
ATOM      4  O   UNL     1       7.316  -2.433  -3.392  1.00  0.00    -0.481 OA
ATOM      5  H   UNL     1       7.362  -3.337  -3.869  1.00  0.00     0.296 HD
ENDBRANCH   2   4
ENDBRANCH   1   2
BRANCH   1   6
ATOM      6  C   UNL     1       7.029  -0.102  -2.112  1.00  0.00     0.047 C 
BRANCH   6   7
ATOM      7  C   UNL     1       6.464   0.097  -0.778  1.00  0.00    -0.047 A 
ATOM      8  C   UNL     1       5.814   1.266  -0.457  1.00  0.00     0.004 A 
ATOM      9  C   UNL     1       6.586  -0.903   0.159  1.00  0.00     0.004 A 
ATOM     10  C   UNL     1       5.298   1.387   0.835  1.00  0.00     0.000 A 
ATOM     11  C   UNL     1       6.076  -0.781   1.436  1.00  0.00     0.000 A 
ATOM     12  C   UNL     1       5.424   0.387   1.766  1.00  0.00     0.000 A 
ENDBRANCH   6   7
ENDBRANCH   1   6
TORSDOF 4
ENDMDL
MODEL 2
REMARK VINA RESULT:      -7.3      0.082      1.730
REMARK SMILES O=C(O)CCc1ccccc1
REMARK SMILES IDX 4 1 2 2 1 3 3 4 5 6 6 7 7 8 11 9 8 10 10 11 9 12
REMARK H PARENT 3 5
REMARK Flexibility Score: inf
ROOT
ATOM      1  C   UNL     1       8.404  -0.603  -2.158  1.00  0.00     0.127 C 
ENDROOT
BRANCH   1   2
ATOM      2  C   UNL     1       8.372  -1.882  -2.908  1.00  0.00     0.303 C 
ATOM      3  O   UNL     1       7.285  -2.404  -3.258  1.00  0.00    -0.252 OA
BRANCH   2   4
ATOM      4  O   UNL     1       9.546  -2.537  -3.242  1.00  0.00    -0.481 OA
ATOM      5  H   UNL     1      10.125  -2.171  -4.004  1.00  0.00     0.296 HD
ENDBRANCH   2   4
ENDBRANCH   1   2
BRANCH   1   6
ATOM      6  C   UNL     1       7.011  -0.053  -2.108  1.00  0.00     0.047 C 
BRANCH   6   7
ATOM      7  C   UNL     1       6.470   0.072  -0.755  1.00  0.00    -0.047 A 
ATOM      8  C   UNL     1       6.601  -0.953   0.152  1.00  0.00     0.004 A 
ATOM      9  C   UNL     1       5.827   1.234  -0.395  1.00  0.00     0.004 A 
ATOM     10  C   UNL     1       6.061  -0.763   1.427  1.00  0.00     0.000 A 
ATOM     11  C   UNL     1       5.293   1.420   0.865  1.00  0.00     0.000 A 
ATOM     12  C   UNL     1       5.419   0.397   1.780  1.00  0.00     0.000 A 
ENDBRANCH   6   7
ENDBRANCH   1   6
TORSDOF 4
ENDMDL
MODEL 3
REMARK VINA RESULT:      -6.8      3.346      5.033
REMARK SMILES O=C(O)CCc1ccccc1
REMARK SMILES IDX 4 1 2 2 1 3 3 4 5 6 6 7 7 8 11 9 8 10 10 11 9 12
REMARK H PARENT 3 5
REMARK Flexibility Score: inf
ROOT
ATOM      1  C   UNL     1       5.035   1.789   0.637  1.00  0.00     0.127 C 
ENDROOT
BRANCH   1   2
ATOM      2  C   UNL     1       4.544   1.130   1.871  1.00  0.00     0.303 C 
ATOM      3  O   UNL     1       5.230   0.258   2.460  1.00  0.00    -0.252 OA
BRANCH   2   4
ATOM      4  O   UNL     1       3.311   1.460   2.410  1.00  0.00    -0.481 OA
ATOM      5  H   UNL     1       3.273   2.006   3.275  1.00  0.00     0.296 HD
ENDBRANCH   2   4
ENDBRANCH   1   2
BRANCH   1   6
ATOM      6  C   UNL     1       6.532   1.819   0.683  1.00  0.00     0.047 C 
BRANCH   6   7
ATOM      7  C   UNL     1       7.175   1.044  -0.377  1.00  0.00    -0.047 A 
ATOM      8  C   UNL     1       8.514   1.202  -0.651  1.00  0.00     0.004 A 
ATOM      9  C   UNL     1       6.425   0.147  -1.102  1.00  0.00     0.004 A 
ATOM     10  C   UNL     1       9.062   0.428  -1.676  1.00  0.00     0.000 A 
ATOM     11  C   UNL     1       6.968  -0.617  -2.116  1.00  0.00     0.000 A 
ATOM     12  C   UNL     1       8.309  -0.465  -2.397  1.00  0.00     0.000 A 
ENDBRANCH   6   7
ENDBRANCH   1   6
TORSDOF 4
ENDMDL
MODEL 4
REMARK VINA RESULT:      -6.8      3.810      4.907
REMARK SMILES O=C(O)CCc1ccccc1
REMARK SMILES IDX 4 1 2 2 1 3 3 4 5 6 6 7 7 8 11 9 8 10 10 11 9 12
REMARK H PARENT 3 5
REMARK Flexibility Score: inf
ROOT
ATOM      1  C   UNL     1       5.457   2.903  -0.017  1.00  0.00     0.127 C 
ENDROOT
BRANCH   1   2
ATOM      2  C   UNL     1       6.242   3.869   0.788  1.00  0.00     0.303 C 
ATOM      3  O   UNL     1       6.918   4.775   0.241  1.00  0.00    -0.252 OA
BRANCH   2   4
ATOM      4  O   UNL     1       6.251   3.797   2.172  1.00  0.00    -0.481 OA
ATOM      5  H   UNL     1       6.916   4.371   2.699  1.00  0.00     0.296 HD
ENDBRANCH   2   4
ENDBRANCH   1   2
BRANCH   1   6
ATOM      6  C   UNL     1       4.928   1.844   0.902  1.00  0.00     0.047 C 
BRANCH   6   7
ATOM      7  C   UNL     1       5.713   0.611   0.901  1.00  0.00    -0.047 A 
ATOM      8  C   UNL     1       6.403   0.217  -0.223  1.00  0.00     0.004 A 
ATOM      9  C   UNL     1       5.758  -0.157   2.041  1.00  0.00     0.004 A 
ATOM     10  C   UNL     1       7.132  -0.972  -0.152  1.00  0.00     0.000 A 
ATOM     11  C   UNL     1       6.479  -1.333   2.109  1.00  0.00     0.000 A 
ATOM     12  C   UNL     1       7.173  -1.735   0.988  1.00  0.00     0.000 A 
ENDBRANCH   6   7
ENDBRANCH   1   6
TORSDOF 4
ENDMDL
MODEL 5
REMARK VINA RESULT:      -6.7      1.925      2.638
REMARK SMILES O=C(O)CCc1ccccc1
REMARK SMILES IDX 4 1 2 2 1 3 3 4 5 6 6 7 7 8 11 9 8 10 10 11 9 12
REMARK H PARENT 3 5
REMARK Flexibility Score: inf
ROOT
ATOM      1  C   UNL     1       8.250   0.107  -2.154  1.00  0.00     0.127 C 
ENDROOT
BRANCH   1   2
ATOM      2  C   UNL     1       9.379   0.310  -1.215  1.00  0.00     0.303 C 
ATOM      3  O   UNL     1       9.493  -0.384  -0.174  1.00  0.00    -0.252 OA
BRANCH   2   4
ATOM      4  O   UNL     1      10.341   1.276  -1.460  1.00  0.00    -0.481 OA
ATOM      5  H   UNL     1      10.482   2.028  -0.780  1.00  0.00     0.296 HD
ENDBRANCH   2   4
ENDBRANCH   1   2
BRANCH   1   6
ATOM      6  C   UNL     1       7.168  -0.639  -1.434  1.00  0.00     0.047 C 
BRANCH   6   7
ATOM      7  C   UNL     1       6.381   0.189  -0.523  1.00  0.00    -0.047 A 
ATOM      8  C   UNL     1       6.143  -0.219   0.770  1.00  0.00     0.004 A 
ATOM      9  C   UNL     1       5.877   1.388  -0.970  1.00  0.00     0.004 A 
ATOM     10  C   UNL     1       5.383   0.623   1.585  1.00  0.00     0.000 A 
ATOM     11  C   UNL     1       5.126   2.219  -0.163  1.00  0.00     0.000 A 
ATOM     12  C   UNL     1       4.883   1.818   1.133  1.00  0.00     0.000 A 
ENDBRANCH   6   7
ENDBRANCH   1   6
TORSDOF 4
ENDMDL
