@<TRIPOS>MOLECULE
/home/cewinharhar/GITHUB/reincatalyze/data/processed/docking_pred/2023-Apr-26-1657_maxeplen10_maxtrainstep1000_exh32_gamma099_lrac9e-4_lrcr1e-3/46aa5159a95d0d08c04f597503a56ad94e9ef6ed_ligand_2.pdbqt
 12 12 0 0 0
SMALL
GASTEIGER

@<TRIPOS>ATOM
      1  C          8.4040   -0.6030   -2.1580 C.3     1  UNL1        0.1270
      2  C          8.3720   -1.8820   -2.9080 C.2     1  UNL1        0.3030
      3  O          7.2850   -2.4040   -3.2580 O.2     1  UNL1       -0.2520
      4  O          9.5460   -2.5370   -3.2420 O.3     1  UNL1       -0.4810
      5  H         10.1250   -2.1710   -4.0040 H       1  UNL1        0.2960
      6  C          7.0110   -0.0530   -2.1080 C.3     1  UNL1        0.0470
      7  C          6.4700    0.0720   -0.7550 C.2     1  UNL1       -0.0470
      8  C          6.6010   -0.9530    0.1520 C.2     1  UNL1        0.0040
      9  C          5.8270    1.2340   -0.3950 C.2     1  UNL1        0.0040
     10  C          6.0610   -0.7630    1.4270 C.2     1  UNL1        0.0000
     11  C          5.2930    1.4200    0.8650 C.2     1  UNL1        0.0000
     12  C          5.4190    0.3970    1.7800 C.2     1  UNL1        0.0000
@<TRIPOS>BOND
     1     5     4    1
     2     3     2    2
     3     4     2    1
     4     2     1    1
     5     1     6    1
     6     6     7    1
     7     7     9    2
     8     7     8    1
     9     9    11    1
    10     8    10    2
    11    11    12    2
    12    10    12    1
