@<TRIPOS>MOLECULE
/home/cewinharhar/GITHUB/reincatalyze/data/processed/docking_pred/2023-Apr-26-1657_maxeplen10_maxtrainstep1000_exh32_gamma099_lrac9e-4_lrcr1e-3/46aa5159a95d0d08c04f597503a56ad94e9ef6ed_ligand_2.pdbqt
 12 12 0 0 0
SMALL
GASTEIGER

@<TRIPOS>ATOM
      1  C          8.2500    0.1070   -2.1540 C.3     1  UNL1        0.1270
      2  C          9.3790    0.3100   -1.2150 C.2     1  UNL1        0.3030
      3  O          9.4930   -0.3840   -0.1740 O.2     1  UNL1       -0.2520
      4  O         10.3410    1.2760   -1.4600 O.3     1  UNL1       -0.4810
      5  H         10.4820    2.0280   -0.7800 H       1  UNL1        0.2960
      6  C          7.1680   -0.6390   -1.4340 C.3     1  UNL1        0.0470
      7  C          6.3810    0.1890   -0.5230 C.2     1  UNL1       -0.0470
      8  C          6.1430   -0.2190    0.7700 C.2     1  UNL1        0.0040
      9  C          5.8770    1.3880   -0.9700 C.2     1  UNL1        0.0040
     10  C          5.3830    0.6230    1.5850 C.2     1  UNL1        0.0000
     11  C          5.1260    2.2190   -0.1630 C.2     1  UNL1        0.0000
     12  C          4.8830    1.8180    1.1330 C.2     1  UNL1        0.0000
@<TRIPOS>BOND
     1     1     6    1
     2     1     2    1
     3     4     2    1
     4     4     5    1
     5     6     7    1
     6     2     3    2
     7     9     7    2
     8     9    11    1
     9     7     8    1
    10    11    12    2
    11     8    10    2
    12    12    10    1
