@<TRIPOS>MOLECULE
/home/cewinharhar/GITHUB/reincatalyze/data/processed/docking_pred/2023-Apr-26-1657_maxeplen10_maxtrainstep1000_exh32_gamma099_lrac9e-4_lrcr1e-3/46aa5159a95d0d08c04f597503a56ad94e9ef6ed_ligand_2.pdbqt
 12 12 0 0 0
SMALL
GASTEIGER

@<TRIPOS>ATOM
      1  C          5.0350    1.7890    0.6370 C.3     1  UNL1        0.1270
      2  C          4.5440    1.1300    1.8710 C.2     1  UNL1        0.3030
      3  O          5.2300    0.2580    2.4600 O.2     1  UNL1       -0.2520
      4  O          3.3110    1.4600    2.4100 O.3     1  UNL1       -0.4810
      5  H          3.2730    2.0060    3.2750 H       1  UNL1        0.2960
      6  C          6.5320    1.8190    0.6830 C.3     1  UNL1        0.0470
      7  C          7.1750    1.0440   -0.3770 C.2     1  UNL1       -0.0470
      8  C          8.5140    1.2020   -0.6510 C.2     1  UNL1        0.0040
      9  C          6.4250    0.1470   -1.1020 C.2     1  UNL1        0.0040
     10  C          9.0620    0.4280   -1.6760 C.2     1  UNL1        0.0000
     11  C          6.9680   -0.6170   -2.1160 C.2     1  UNL1        0.0000
     12  C          8.3090   -0.4650   -2.3970 C.2     1  UNL1        0.0000
@<TRIPOS>BOND
     1    12    11    2
     2    12    10    1
     3    11     9    1
     4    10     8    2
     5     9     7    2
     6     8     7    1
     7     7     6    1
     8     1     6    1
     9     1     2    1
    10     2     4    1
    11     2     3    2
    12     4     5    1
