@<TRIPOS>MOLECULE
/home/cewinharhar/GITHUB/reincatalyze/data/processed/docking_pred/2023-Apr-26-1657_maxeplen10_maxtrainstep1000_exh32_gamma099_lrac9e-4_lrcr1e-3/49b3117837231080fe644fe44c00424f4b8d2b91_ligand_2.pdbqt
 12 12 0 0 0
SMALL
GASTEIGER

@<TRIPOS>ATOM
      1  C          8.3960   -0.5860   -2.2040 C.3     1  UNL1        0.1270
      2  C          8.4600   -1.8770   -2.9290 C.2     1  UNL1        0.3030
      3  O          9.5520   -2.4740   -3.0990 O.2     1  UNL1       -0.2520
      4  O          7.3130   -2.4620   -3.4400 O.3     1  UNL1       -0.4810
      5  H          6.7260   -1.9300   -4.0890 H       1  UNL1        0.2960
      6  C          6.9640   -0.1490   -2.1470 C.3     1  UNL1        0.0470
      7  C          6.4530    0.0400   -0.7900 C.2     1  UNL1       -0.0470
      8  C          5.8410    1.2180   -0.4270 C.2     1  UNL1        0.0040
      9  C          6.5890   -0.9770    0.1260 C.2     1  UNL1        0.0040
     10  C          5.3770    1.3280    0.8860 C.2     1  UNL1        0.0000
     11  C          6.1290   -0.8660    1.4230 C.2     1  UNL1        0.0000
     12  C          5.5150    0.3100    1.7960 C.2     1  UNL1        0.0000
@<TRIPOS>BOND
     1     5     4    1
     2     4     2    1
     3     3     2    2
     4     2     1    1
     5     1     6    1
     6     6     7    1
     7     7     8    2
     8     7     9    1
     9     8    10    1
    10     9    11    2
    11    10    12    2
    12    11    12    1
