@<TRIPOS>MOLECULE
/home/cewinharhar/GITHUB/reincatalyze/data/processed/docking_pred/2023-Apr-26-1657_maxeplen10_maxtrainstep1000_exh32_gamma099_lrac9e-4_lrcr1e-3/49b3117837231080fe644fe44c00424f4b8d2b91_ligand_2.pdbqt
 12 12 0 0 0
SMALL
GASTEIGER

@<TRIPOS>ATOM
      1  C          8.4100   -0.5640   -2.2270 C.3     1  UNL1        0.1270
      2  C          8.4520   -1.8700   -2.9260 C.2     1  UNL1        0.3030
      3  O          9.5310   -2.4980   -3.0660 O.2     1  UNL1       -0.2520
      4  O          7.2990   -2.4340   -3.4460 O.3     1  UNL1       -0.4810
      5  H          7.2750   -2.7060   -4.4330 H       1  UNL1        0.2960
      6  C          6.9810   -0.1230   -2.1400 C.3     1  UNL1        0.0470
      7  C          6.4790   -0.0020   -0.7720 C.2     1  UNL1       -0.0470
      8  C          6.6160   -1.0380    0.1220 C.2     1  UNL1        0.0040
      9  C          5.8640    1.1660   -0.3840 C.2     1  UNL1        0.0040
     10  C          6.1140   -0.8520    1.4120 C.2     1  UNL1        0.0000
     11  C          5.3680    1.3480    0.8920 C.2     1  UNL1        0.0000
     12  C          5.5010    0.3150    1.7940 C.2     1  UNL1        0.0000
@<TRIPOS>BOND
     1     5     4    1
     2     4     2    1
     3     3     2    2
     4     2     1    1
     5     1     6    1
     6     6     7    1
     7     7     9    2
     8     7     8    1
     9     9    11    1
    10     8    10    2
    11    11    12    2
    12    10    12    1
