@<TRIPOS>MOLECULE
/home/cewinharhar/GITHUB/reincatalyze/data/processed/docking_pred/2023-Apr-26-1657_maxeplen10_maxtrainstep1000_exh32_gamma099_lrac9e-4_lrcr1e-3/49b3117837231080fe644fe44c00424f4b8d2b91_ligand_2.pdbqt
 12 12 0 0 0
SMALL
GASTEIGER

@<TRIPOS>ATOM
      1  C          8.2240    0.2090   -2.2250 C.3     1  UNL1        0.1270
      2  C          9.3520    0.3340   -1.2720 C.2     1  UNL1        0.3030
      3  O          9.4390   -0.4130   -0.2660 O.2     1  UNL1       -0.2520
      4  O         10.3430    1.2820   -1.4650 O.3     1  UNL1       -0.4810
      5  H         10.2630    1.9380   -2.2470 H       1  UNL1        0.2960
      6  C          7.1150   -0.5380   -1.5480 C.3     1  UNL1        0.0470
      7  C          6.3450    0.2690   -0.6030 C.2     1  UNL1       -0.0470
      8  C          6.1260   -0.1710    0.6820 C.2     1  UNL1        0.0040
      9  C          5.8400    1.4810   -1.0120 C.2     1  UNL1        0.0040
     10  C          5.3820    0.6520    1.5300 C.2     1  UNL1        0.0000
     11  C          5.1040    2.2930   -0.1720 C.2     1  UNL1        0.0000
     12  C          4.8800    1.8600    1.1170 C.2     1  UNL1        0.0000
@<TRIPOS>BOND
     1     5     4    1
     2     1     6    1
     3     1     2    1
     4     6     7    1
     5     4     2    1
     6     2     3    2
     7     9     7    2
     8     9    11    1
     9     7     8    1
    10    11    12    2
    11     8    10    2
    12    12    10    1
