@<TRIPOS>MOLECULE
/home/cewinharhar/GITHUB/reincatalyze/data/processed/docking_pred/2023-Apr-26-1657_maxeplen10_maxtrainstep1000_exh32_gamma099_lrac9e-4_lrcr1e-3/49b3117837231080fe644fe44c00424f4b8d2b91_ligand_2.pdbqt
 12 12 0 0 0
SMALL
GASTEIGER

@<TRIPOS>ATOM
      1  C          5.0470    1.6910    0.6750 C.3     1  UNL1        0.1270
      2  C          4.6030    1.0200    1.9190 C.2     1  UNL1        0.3030
      3  O          5.3280    0.1710    2.4950 O.2     1  UNL1       -0.2520
      4  O          3.3720    1.3120    2.4830 O.3     1  UNL1       -0.4810
      5  H          2.9690    0.6670    3.1680 H       1  UNL1        0.2960
      6  C          6.5430    1.7690    0.6900 C.3     1  UNL1        0.0470
      7  C          7.1890    1.0070   -0.3780 C.2     1  UNL1       -0.0470
      8  C          8.5170    1.2040   -0.6770 C.2     1  UNL1        0.0040
      9  C          6.4530    0.0850   -1.0840 C.2     1  UNL1        0.0040
     10  C          9.0690    0.4410   -1.7090 C.2     1  UNL1        0.0000
     11  C          6.9990   -0.6680   -2.1040 C.2     1  UNL1        0.0000
     12  C          8.3290   -0.4770   -2.4110 C.2     1  UNL1        0.0000
@<TRIPOS>BOND
     1    12    11    2
     2    12    10    1
     3    11     9    1
     4    10     8    2
     5     9     7    2
     6     8     7    1
     7     7     6    1
     8     1     6    1
     9     1     2    1
    10     2     4    1
    11     2     3    2
    12     4     5    1
