@<TRIPOS>MOLECULE
/home/cewinharhar/GITHUB/reincatalyze/data/processed/docking_pred/2023-Apr-26-1657_maxeplen10_maxtrainstep1000_exh32_gamma099_lrac9e-4_lrcr1e-3/49b3117837231080fe644fe44c00424f4b8d2b91_ligand_2.pdbqt
 12 12 0 0 0
SMALL
GASTEIGER

@<TRIPOS>ATOM
      1  C          5.4090    2.8510   -0.0030 C.3     1  UNL1        0.1270
      2  C          6.1740    3.8170    0.8210 C.2     1  UNL1        0.3030
      3  O          6.1030    3.8020    2.0750 O.2     1  UNL1       -0.2520
      4  O          6.9890    4.7670    0.2270 O.3     1  UNL1       -0.4810
      5  H          7.1330    4.7410   -0.7860 H       1  UNL1        0.2960
      6  C          4.8860    1.7740    0.8980 C.3     1  UNL1        0.0470
      7  C          5.7000    0.5600    0.9070 C.2     1  UNL1       -0.0470
      8  C          6.3700    0.1540   -0.2230 C.2     1  UNL1        0.0040
      9  C          5.7920   -0.1780    2.0650 C.2     1  UNL1        0.0040
     10  C          7.1300   -1.0150   -0.1420 C.2     1  UNL1        0.0000
     11  C          6.5430   -1.3340    2.1440 C.2     1  UNL1        0.0000
     12  C          7.2170   -1.7480    1.0150 C.2     1  UNL1        0.0000
@<TRIPOS>BOND
     1     5     4    1
     2     8    10    1
     3     8     7    2
     4    10    12    2
     5     1     2    1
     6     1     6    1
     7     4     2    1
     8     2     3    2
     9     6     7    1
    10     7     9    1
    11    12    11    1
    12     9    11    2
