@<TRIPOS>MOLECULE
/home/cewinharhar/GITHUB/reincatalyze/data/processed/docking_pred/2023-Apr-26-1657_maxeplen10_maxtrainstep1000_exh32_gamma099_lrac9e-4_lrcr1e-3/4a3a178b6a4326eb13634b12f3ce9c4ec26f8538_ligand_2.pdbqt
 12 12 0 0 0
SMALL
GASTEIGER

@<TRIPOS>ATOM
      1  C          8.4690   -0.6680   -2.0610 C.3     1  UNL1        0.1270
      2  C          8.4850   -1.9080   -2.8720 C.2     1  UNL1        0.3030
      3  O          9.5570   -2.5200   -3.1040 O.2     1  UNL1       -0.2520
      4  O          7.3130   -2.4270   -3.3980 O.3     1  UNL1       -0.4810
      5  H          6.5300   -1.7980   -3.5940 H       1  UNL1        0.2960
      6  C          7.0790   -0.1090   -2.0830 C.3     1  UNL1        0.0470
      7  C          6.4920    0.0770   -0.7570 C.2     1  UNL1       -0.0470
      8  C          5.8270    1.2380   -0.4380 C.2     1  UNL1        0.0040
      9  C          6.6100   -0.9280    0.1760 C.2     1  UNL1        0.0040
     10  C          5.2900    1.3460    0.8470 C.2     1  UNL1        0.0000
     11  C          6.0800   -0.8190    1.4460 C.2     1  UNL1        0.0000
     12  C          5.4120    0.3420    1.7730 C.2     1  UNL1        0.0000
@<TRIPOS>BOND
     1     5     4    1
     2     4     2    1
     3     3     2    2
     4     2     1    1
     5     6     1    1
     6     6     7    1
     7     7     8    2
     8     7     9    1
     9     8    10    1
    10     9    11    2
    11    10    12    2
    12    11    12    1
