@<TRIPOS>MOLECULE
/home/cewinharhar/GITHUB/reincatalyze/data/processed/docking_pred/2023-Apr-26-1657_maxeplen10_maxtrainstep1000_exh32_gamma099_lrac9e-4_lrcr1e-3/4a3a178b6a4326eb13634b12f3ce9c4ec26f8538_ligand_2.pdbqt
 12 12 0 0 0
SMALL
GASTEIGER

@<TRIPOS>ATOM
      1  C          8.4470   -0.5710   -2.2220 C.3     1  UNL1        0.1270
      2  C          8.4900   -1.8710   -2.9310 C.2     1  UNL1        0.3030
      3  O          9.5740   -2.4800   -3.1090 O.2     1  UNL1       -0.2520
      4  O          7.3310   -2.4520   -3.4200 O.3     1  UNL1       -0.4810
      5  H          6.7680   -3.0440   -2.8020 H       1  UNL1        0.2960
      6  C          7.0210   -0.1110   -2.1680 C.3     1  UNL1        0.0470
      7  C          6.4950    0.0370   -0.8120 C.2     1  UNL1       -0.0470
      8  C          6.6260   -0.9780    0.1070 C.2     1  UNL1        0.0040
      9  C          5.8650    1.2080   -0.4610 C.2     1  UNL1        0.0040
     10  C          6.1010   -0.7670    1.3840 C.2     1  UNL1        0.0000
     11  C          5.3460    1.4140    0.8020 C.2     1  UNL1        0.0000
     12  C          5.4720    0.4030    1.7290 C.2     1  UNL1        0.0000
@<TRIPOS>BOND
     1     4     2    1
     2     4     5    1
     3     3     2    2
     4     2     1    1
     5     1     6    1
     6     6     7    1
     7     7     9    2
     8     7     8    1
     9     9    11    1
    10     8    10    2
    11    11    12    2
    12    10    12    1
