@<TRIPOS>MOLECULE
/home/cewinharhar/GITHUB/reincatalyze/data/processed/docking_pred/2023-Apr-26-1657_maxeplen10_maxtrainstep1000_exh32_gamma099_lrac9e-4_lrcr1e-3/4a3a178b6a4326eb13634b12f3ce9c4ec26f8538_ligand_2.pdbqt
 12 12 0 0 0
SMALL
GASTEIGER

@<TRIPOS>ATOM
      1  C          8.3250   -1.0000   -1.7190 C.3     1  UNL1        0.1270
      2  C          8.4480   -2.0190   -2.7870 C.2     1  UNL1        0.3030
      3  O          9.5700   -2.4650   -3.1340 O.2     1  UNL1       -0.2520
      4  O          7.3260   -2.5090   -3.4340 O.3     1  UNL1       -0.4810
      5  H          6.7780   -3.2530   -2.9930 H       1  UNL1        0.2960
      6  C          7.2640   -1.4480   -0.7610 C.3     1  UNL1        0.0470
      7  C          6.5050   -0.3530   -0.1580 C.2     1  UNL1       -0.0470
      8  C          6.1080   -0.4130    1.1580 C.2     1  UNL1        0.0040
      9  C          6.1920    0.7460   -0.9230 C.2     1  UNL1        0.0040
     10  C          5.3870    0.6690    1.6670 C.2     1  UNL1        0.0000
     11  C          5.4790    1.8160   -0.4170 C.2     1  UNL1        0.0000
     12  C          5.0770    1.7630    0.8990 C.2     1  UNL1        0.0000
@<TRIPOS>BOND
     1     4     5    1
     2     4     2    1
     3     3     2    2
     4     2     1    1
     5     1     6    1
     6     9    11    1
     7     9     7    2
     8     6     7    1
     9    11    12    2
    10     7     8    1
    11    12    10    1
    12     8    10    2
