MODEL 1
REMARK VINA RESULT:      -7.3      0.000      0.000
REMARK SMILES O=C(O)CCc1ccccc1
REMARK SMILES IDX 4 1 2 2 1 3 3 4 5 6 6 7 7 8 11 9 8 10 10 11 9 12
REMARK H PARENT 3 5
REMARK Flexibility Score: inf
ROOT
ATOM      1  C   UNL     1       8.469  -0.668  -2.061  1.00  0.00     0.127 C 
ENDROOT
BRANCH   1   2
ATOM      2  C   UNL     1       8.485  -1.908  -2.872  1.00  0.00     0.303 C 
ATOM      3  O   UNL     1       9.557  -2.520  -3.104  1.00  0.00    -0.252 OA
BRANCH   2   4
ATOM      4  O   UNL     1       7.313  -2.427  -3.398  1.00  0.00    -0.481 OA
ATOM      5  H   UNL     1       6.530  -1.798  -3.594  1.00  0.00     0.296 HD
ENDBRANCH   2   4
ENDBRANCH   1   2
BRANCH   1   6
ATOM      6  C   UNL     1       7.079  -0.109  -2.083  1.00  0.00     0.047 C 
BRANCH   6   7
ATOM      7  C   UNL     1       6.492   0.077  -0.757  1.00  0.00    -0.047 A 
ATOM      8  C   UNL     1       5.827   1.238  -0.438  1.00  0.00     0.004 A 
ATOM      9  C   UNL     1       6.610  -0.928   0.176  1.00  0.00     0.004 A 
ATOM     10  C   UNL     1       5.290   1.346   0.847  1.00  0.00     0.000 A 
ATOM     11  C   UNL     1       6.080  -0.819   1.446  1.00  0.00     0.000 A 
ATOM     12  C   UNL     1       5.412   0.342   1.773  1.00  0.00     0.000 A 
ENDBRANCH   6   7
ENDBRANCH   1   6
TORSDOF 4
ENDMDL
MODEL 2
REMARK VINA RESULT:      -7.3      0.093      1.439
REMARK SMILES O=C(O)CCc1ccccc1
REMARK SMILES IDX 4 1 2 2 1 3 3 4 5 6 6 7 7 8 11 9 8 10 10 11 9 12
REMARK H PARENT 3 5
REMARK Flexibility Score: inf
ROOT
ATOM      1  C   UNL     1       8.447  -0.571  -2.222  1.00  0.00     0.127 C 
ENDROOT
BRANCH   1   2
ATOM      2  C   UNL     1       8.490  -1.871  -2.931  1.00  0.00     0.303 C 
ATOM      3  O   UNL     1       9.574  -2.480  -3.109  1.00  0.00    -0.252 OA
BRANCH   2   4
ATOM      4  O   UNL     1       7.331  -2.452  -3.420  1.00  0.00    -0.481 OA
ATOM      5  H   UNL     1       6.768  -3.044  -2.802  1.00  0.00     0.296 HD
ENDBRANCH   2   4
ENDBRANCH   1   2
BRANCH   1   6
ATOM      6  C   UNL     1       7.021  -0.111  -2.168  1.00  0.00     0.047 C 
BRANCH   6   7
ATOM      7  C   UNL     1       6.495   0.037  -0.812  1.00  0.00    -0.047 A 
ATOM      8  C   UNL     1       6.626  -0.978   0.107  1.00  0.00     0.004 A 
ATOM      9  C   UNL     1       5.865   1.208  -0.461  1.00  0.00     0.004 A 
ATOM     10  C   UNL     1       6.101  -0.767   1.384  1.00  0.00     0.000 A 
ATOM     11  C   UNL     1       5.346   1.414   0.802  1.00  0.00     0.000 A 
ATOM     12  C   UNL     1       5.472   0.403   1.729  1.00  0.00     0.000 A 
ENDBRANCH   6   7
ENDBRANCH   1   6
TORSDOF 4
ENDMDL
MODEL 3
REMARK VINA RESULT:      -7.2      0.661      1.617
REMARK SMILES O=C(O)CCc1ccccc1
REMARK SMILES IDX 4 1 2 2 1 3 3 4 5 6 6 7 7 8 11 9 8 10 10 11 9 12
REMARK H PARENT 3 5
REMARK Flexibility Score: inf
ROOT
ATOM      1  C   UNL     1       8.325  -1.000  -1.719  1.00  0.00     0.127 C 
ENDROOT
BRANCH   1   2
ATOM      2  C   UNL     1       8.448  -2.019  -2.787  1.00  0.00     0.303 C 
ATOM      3  O   UNL     1       9.570  -2.465  -3.134  1.00  0.00    -0.252 OA
BRANCH   2   4
ATOM      4  O   UNL     1       7.326  -2.509  -3.434  1.00  0.00    -0.481 OA
ATOM      5  H   UNL     1       6.778  -3.253  -2.993  1.00  0.00     0.296 HD
ENDBRANCH   2   4
ENDBRANCH   1   2
BRANCH   1   6
ATOM      6  C   UNL     1       7.264  -1.448  -0.761  1.00  0.00     0.047 C 
BRANCH   6   7
ATOM      7  C   UNL     1       6.505  -0.353  -0.158  1.00  0.00    -0.047 A 
ATOM      8  C   UNL     1       6.108  -0.413   1.158  1.00  0.00     0.004 A 
ATOM      9  C   UNL     1       6.192   0.746  -0.923  1.00  0.00     0.004 A 
ATOM     10  C   UNL     1       5.387   0.669   1.667  1.00  0.00     0.000 A 
ATOM     11  C   UNL     1       5.479   1.816  -0.417  1.00  0.00     0.000 A 
ATOM     12  C   UNL     1       5.077   1.763   0.899  1.00  0.00     0.000 A 
ENDBRANCH   6   7
ENDBRANCH   1   6
TORSDOF 4
ENDMDL
MODEL 4
REMARK VINA RESULT:      -6.7      3.330      5.019
REMARK SMILES O=C(O)CCc1ccccc1
REMARK SMILES IDX 4 1 2 2 1 3 3 4 5 6 6 7 7 8 11 9 8 10 10 11 9 12
REMARK H PARENT 3 5
REMARK Flexibility Score: inf
ROOT
ATOM      1  C   UNL     1       5.037   1.739   0.661  1.00  0.00     0.127 C 
ENDROOT
BRANCH   1   2
ATOM      2  C   UNL     1       4.605   1.060   1.905  1.00  0.00     0.303 C 
ATOM      3  O   UNL     1       5.345   0.225   2.482  1.00  0.00    -0.252 OA
BRANCH   2   4
ATOM      4  O   UNL     1       3.368   1.329   2.468  1.00  0.00    -0.481 OA
ATOM      5  H   UNL     1       2.615   0.641   2.378  1.00  0.00     0.296 HD
ENDBRANCH   2   4
ENDBRANCH   1   2
BRANCH   1   6
ATOM      6  C   UNL     1       6.533   1.823   0.665  1.00  0.00     0.047 C 
BRANCH   6   7
ATOM      7  C   UNL     1       7.175   1.044  -0.392  1.00  0.00    -0.047 A 
ATOM      8  C   UNL     1       8.513   1.203  -0.668  1.00  0.00     0.004 A 
ATOM      9  C   UNL     1       6.425   0.143  -1.112  1.00  0.00     0.004 A 
ATOM     10  C   UNL     1       9.061   0.424  -1.690  1.00  0.00     0.000 A 
ATOM     11  C   UNL     1       6.968  -0.625  -2.122  1.00  0.00     0.000 A 
ATOM     12  C   UNL     1       8.308  -0.472  -2.406  1.00  0.00     0.000 A 
ENDBRANCH   6   7
ENDBRANCH   1   6
TORSDOF 4
ENDMDL
MODEL 5
REMARK VINA RESULT:      -6.6      1.940      2.233
REMARK SMILES O=C(O)CCc1ccccc1
REMARK SMILES IDX 4 1 2 2 1 3 3 4 5 6 6 7 7 8 11 9 8 10 10 11 9 12
REMARK H PARENT 3 5
REMARK Flexibility Score: inf
ROOT
ATOM      1  C   UNL     1       8.160   0.285  -2.096  1.00  0.00     0.127 C 
ENDROOT
BRANCH   1   2
ATOM      2  C   UNL     1       9.347   0.374  -1.213  1.00  0.00     0.303 C 
ATOM      3  O   UNL     1       9.477  -0.382  -0.219  1.00  0.00    -0.252 OA
BRANCH   2   4
ATOM      4  O   UNL     1      10.350   1.297  -1.462  1.00  0.00    -0.481 OA
ATOM      5  H   UNL     1      10.621   1.953  -0.725  1.00  0.00     0.296 HD
ENDBRANCH   2   4
ENDBRANCH   1   2
BRANCH   1   6
ATOM      6  C   UNL     1       7.132  -0.567  -1.417  1.00  0.00     0.047 C 
BRANCH   6   7
ATOM      7  C   UNL     1       6.351   0.138  -0.403  1.00  0.00    -0.047 A 
ATOM      8  C   UNL     1       5.794   1.367  -0.672  1.00  0.00     0.004 A 
ATOM      9  C   UNL     1       6.173  -0.442   0.832  1.00  0.00     0.004 A 
ATOM     10  C   UNL     1       5.059   1.983   0.344  1.00  0.00     0.000 A 
ATOM     11  C   UNL     1       5.447   0.168   1.835  1.00  0.00     0.000 A 
ATOM     12  C   UNL     1       4.887   1.399   1.574  1.00  0.00     0.000 A 
ENDBRANCH   6   7
ENDBRANCH   1   6
TORSDOF 4
ENDMDL
