@<TRIPOS>MOLECULE
/home/cewinharhar/GITHUB/reincatalyze/data/processed/docking_pred/2023-Apr-26-1657_maxeplen10_maxtrainstep1000_exh32_gamma099_lrac9e-4_lrcr1e-3/4a3a178b6a4326eb13634b12f3ce9c4ec26f8538_ligand_2.pdbqt
 12 12 0 0 0
SMALL
GASTEIGER

@<TRIPOS>ATOM
      1  C          5.0370    1.7390    0.6610 C.3     1  UNL1        0.1270
      2  C          4.6050    1.0600    1.9050 C.2     1  UNL1        0.3030
      3  O          5.3450    0.2250    2.4820 O.2     1  UNL1       -0.2520
      4  O          3.3680    1.3290    2.4680 O.3     1  UNL1       -0.4810
      5  H          2.6150    0.6410    2.3780 H       1  UNL1        0.2960
      6  C          6.5330    1.8230    0.6650 C.3     1  UNL1        0.0470
      7  C          7.1750    1.0440   -0.3920 C.2     1  UNL1       -0.0470
      8  C          8.5130    1.2030   -0.6680 C.2     1  UNL1        0.0040
      9  C          6.4250    0.1430   -1.1120 C.2     1  UNL1        0.0040
     10  C          9.0610    0.4240   -1.6900 C.2     1  UNL1        0.0000
     11  C          6.9680   -0.6250   -2.1220 C.2     1  UNL1        0.0000
     12  C          8.3080   -0.4720   -2.4060 C.2     1  UNL1        0.0000
@<TRIPOS>BOND
     1    12    11    2
     2    12    10    1
     3    11     9    1
     4    10     8    2
     5     9     7    2
     6     8     7    1
     7     7     6    1
     8     1     6    1
     9     1     2    1
    10     2     4    1
    11     2     3    2
    12     5     4    1
