@<TRIPOS>MOLECULE
/home/cewinharhar/GITHUB/reincatalyze/data/processed/docking_pred/2023-Apr-26-1657_maxeplen10_maxtrainstep1000_exh32_gamma099_lrac9e-4_lrcr1e-3/4a3a178b6a4326eb13634b12f3ce9c4ec26f8538_ligand_2.pdbqt
 12 12 0 0 0
SMALL
GASTEIGER

@<TRIPOS>ATOM
      1  C          8.1600    0.2850   -2.0960 C.3     1  UNL1        0.1270
      2  C          9.3470    0.3740   -1.2130 C.2     1  UNL1        0.3030
      3  O          9.4770   -0.3820   -0.2190 O.2     1  UNL1       -0.2520
      4  O         10.3500    1.2970   -1.4620 O.3     1  UNL1       -0.4810
      5  H         10.6210    1.9530   -0.7250 H       1  UNL1        0.2960
      6  C          7.1320   -0.5670   -1.4170 C.3     1  UNL1        0.0470
      7  C          6.3510    0.1380   -0.4030 C.2     1  UNL1       -0.0470
      8  C          5.7940    1.3670   -0.6720 C.2     1  UNL1        0.0040
      9  C          6.1730   -0.4420    0.8320 C.2     1  UNL1        0.0040
     10  C          5.0590    1.9830    0.3440 C.2     1  UNL1        0.0000
     11  C          5.4470    0.1680    1.8350 C.2     1  UNL1        0.0000
     12  C          4.8870    1.3990    1.5740 C.2     1  UNL1        0.0000
@<TRIPOS>BOND
     1     1     6    1
     2     1     2    1
     3     4     2    1
     4     4     5    1
     5     6     7    1
     6     2     3    2
     7     8     7    2
     8     8    10    1
     9     7     9    1
    10    10    12    2
    11     9    11    2
    12    12    11    1
