@<TRIPOS>MOLECULE
/home/cewinharhar/GITHUB/reincatalyze/data/processed/docking_pred/2023-Apr-26-1657_maxeplen10_maxtrainstep1000_exh32_gamma099_lrac9e-4_lrcr1e-3/4c3a486d5bbb1ad3c8ce5b6da142191fd088767a_ligand_2.pdbqt
 12 12 0 0 0
SMALL
GASTEIGER

@<TRIPOS>ATOM
      1  C          8.1820    0.2520   -2.1360 C.3     1  UNL1        0.1270
      2  C          9.3480    0.3560   -1.2270 C.2     1  UNL1        0.3030
      3  O          9.4620   -0.3950   -0.2270 O.2     1  UNL1       -0.2520
      4  O         10.3470    1.2880   -1.4570 O.3     1  UNL1       -0.4810
      5  H         10.1080    2.2830   -1.4820 H       1  UNL1        0.2960
      6  C          7.1380   -0.5880   -1.4680 C.3     1  UNL1        0.0470
      7  C          6.3590    0.1240   -0.4560 C.2     1  UNL1       -0.0470
      8  C          6.1670   -0.4180    0.7940 C.2     1  UNL1        0.0040
      9  C          5.8180    1.3500   -0.7650 C.2     1  UNL1        0.0040
     10  C          5.4130    0.3180    1.7110 C.2     1  UNL1        0.0000
     11  C          5.0740    2.0770    0.1420 C.2     1  UNL1        0.0000
     12  C          4.8760    1.5410    1.3960 C.2     1  UNL1        0.0000
@<TRIPOS>BOND
     1     1     6    1
     2     1     2    1
     3     5     4    1
     4     6     7    1
     5     4     2    1
     6     2     3    2
     7     9     7    2
     8     9    11    1
     9     7     8    1
    10    11    12    2
    11     8    10    2
    12    12    10    1
