@<TRIPOS>MOLECULE
/home/cewinharhar/GITHUB/reincatalyze/data/processed/docking_pred/2023-Apr-26-1657_maxeplen10_maxtrainstep1000_exh32_gamma099_lrac9e-4_lrcr1e-3/4c3a486d5bbb1ad3c8ce5b6da142191fd088767a_ligand_2.pdbqt
 12 12 0 0 0
SMALL
GASTEIGER

@<TRIPOS>ATOM
      1  C          8.4150   -0.6110   -2.1470 C.3     1  UNL1        0.1270
      2  C          8.4590   -1.9030   -2.8720 C.2     1  UNL1        0.3030
      3  O          9.5360   -2.5340   -3.0120 O.2     1  UNL1       -0.2520
      4  O          7.3090   -2.4510   -3.4170 O.3     1  UNL1       -0.4810
      5  H          6.4230   -1.9460   -3.3280 H       1  UNL1        0.2960
      6  C          6.9900   -0.1490   -2.0950 C.3     1  UNL1        0.0470
      7  C          6.4640    0.0030   -0.7400 C.2     1  UNL1       -0.0470
      8  C          5.8490    1.1710   -0.3510 C.2     1  UNL1        0.0040
      9  C          6.5870   -1.0390    0.1500 C.2     1  UNL1        0.0040
     10  C          5.3690    1.2470    0.9580 C.2     1  UNL1        0.0000
     11  C          6.1120   -0.9630    1.4440 C.2     1  UNL1        0.0000
     12  C          5.4960    0.2040    1.8420 C.2     1  UNL1        0.0000
@<TRIPOS>BOND
     1     4     5    1
     2     4     2    1
     3     3     2    2
     4     2     1    1
     5     1     6    1
     6     6     7    1
     7     7     8    2
     8     7     9    1
     9     8    10    1
    10     9    11    2
    11    10    12    2
    12    11    12    1
