@<TRIPOS>MOLECULE
/home/cewinharhar/GITHUB/reincatalyze/data/processed/docking_pred/2023-Apr-26-1657_maxeplen10_maxtrainstep1000_exh32_gamma099_lrac9e-4_lrcr1e-3/4c3a486d5bbb1ad3c8ce5b6da142191fd088767a_ligand_2.pdbqt
 12 12 0 0 0
SMALL
GASTEIGER

@<TRIPOS>ATOM
      1  C          8.3840   -0.8210   -1.9120 C.3     1  UNL1        0.1270
      2  C          8.4340   -1.9830   -2.8300 C.2     1  UNL1        0.3030
      3  O          9.5140   -2.5750   -3.0720 O.2     1  UNL1       -0.2520
      4  O          7.2850   -2.4500   -3.4480 O.3     1  UNL1       -0.4810
      5  H          6.9060   -3.3620   -3.1780 H       1  UNL1        0.2960
      6  C          7.0070   -0.2330   -1.9720 C.3     1  UNL1        0.0470
      7  C          6.4180    0.0370   -0.6610 C.2     1  UNL1       -0.0470
      8  C          6.4900   -0.8950    0.3480 C.2     1  UNL1        0.0040
      9  C          5.7890    1.2410   -0.4430 C.2     1  UNL1        0.0040
     10  C          5.9070   -0.5700    1.5740 C.2     1  UNL1        0.0000
     11  C          5.2130    1.5610    0.7700 C.2     1  UNL1        0.0000
     12  C          5.2800    0.6320    1.7860 C.2     1  UNL1        0.0000
@<TRIPOS>BOND
     1     4     5    1
     2     4     2    1
     3     3     2    2
     4     2     1    1
     5     6     1    1
     6     6     7    1
     7     7     9    2
     8     7     8    1
     9     9    11    1
    10     8    10    2
    11    11    12    2
    12    10    12    1
