MODEL 1
REMARK VINA RESULT:      -7.2      0.000      0.000
REMARK SMILES O=C(O)CCc1ccccc1
REMARK SMILES IDX 4 1 2 2 1 3 3 4 5 6 6 7 7 8 11 9 8 10 10 11 9 12
REMARK H PARENT 3 5
REMARK Flexibility Score: inf
ROOT
ATOM      1  C   UNL     1       8.384  -0.821  -1.912  1.00  0.00     0.127 C 
ENDROOT
BRANCH   1   2
ATOM      2  C   UNL     1       8.434  -1.983  -2.830  1.00  0.00     0.303 C 
ATOM      3  O   UNL     1       9.514  -2.575  -3.072  1.00  0.00    -0.252 OA
BRANCH   2   4
ATOM      4  O   UNL     1       7.285  -2.450  -3.448  1.00  0.00    -0.481 OA
ATOM      5  H   UNL     1       6.906  -3.362  -3.178  1.00  0.00     0.296 HD
ENDBRANCH   2   4
ENDBRANCH   1   2
BRANCH   1   6
ATOM      6  C   UNL     1       7.007  -0.233  -1.972  1.00  0.00     0.047 C 
BRANCH   6   7
ATOM      7  C   UNL     1       6.418   0.037  -0.661  1.00  0.00    -0.047 A 
ATOM      8  C   UNL     1       6.490  -0.895   0.348  1.00  0.00     0.004 A 
ATOM      9  C   UNL     1       5.789   1.241  -0.443  1.00  0.00     0.004 A 
ATOM     10  C   UNL     1       5.907  -0.570   1.574  1.00  0.00     0.000 A 
ATOM     11  C   UNL     1       5.213   1.561   0.770  1.00  0.00     0.000 A 
ATOM     12  C   UNL     1       5.280   0.632   1.786  1.00  0.00     0.000 A 
ENDBRANCH   6   7
ENDBRANCH   1   6
TORSDOF 4
ENDMDL
MODEL 2
REMARK VINA RESULT:      -7.2      0.276      1.456
REMARK SMILES O=C(O)CCc1ccccc1
REMARK SMILES IDX 4 1 2 2 1 3 3 4 5 6 6 7 7 8 11 9 8 10 10 11 9 12
REMARK H PARENT 3 5
REMARK Flexibility Score: inf
ROOT
ATOM      1  C   UNL     1       8.415  -0.611  -2.147  1.00  0.00     0.127 C 
ENDROOT
BRANCH   1   2
ATOM      2  C   UNL     1       8.459  -1.903  -2.872  1.00  0.00     0.303 C 
ATOM      3  O   UNL     1       9.536  -2.534  -3.012  1.00  0.00    -0.252 OA
BRANCH   2   4
ATOM      4  O   UNL     1       7.309  -2.451  -3.417  1.00  0.00    -0.481 OA
ATOM      5  H   UNL     1       6.423  -1.946  -3.328  1.00  0.00     0.296 HD
ENDBRANCH   2   4
ENDBRANCH   1   2
BRANCH   1   6
ATOM      6  C   UNL     1       6.990  -0.149  -2.095  1.00  0.00     0.047 C 
BRANCH   6   7
ATOM      7  C   UNL     1       6.464   0.003  -0.740  1.00  0.00    -0.047 A 
ATOM      8  C   UNL     1       5.849   1.171  -0.351  1.00  0.00     0.004 A 
ATOM      9  C   UNL     1       6.587  -1.039   0.150  1.00  0.00     0.004 A 
ATOM     10  C   UNL     1       5.369   1.247   0.958  1.00  0.00     0.000 A 
ATOM     11  C   UNL     1       6.112  -0.963   1.444  1.00  0.00     0.000 A 
ATOM     12  C   UNL     1       5.496   0.204   1.842  1.00  0.00     0.000 A 
ENDBRANCH   6   7
ENDBRANCH   1   6
TORSDOF 4
ENDMDL
MODEL 3
REMARK VINA RESULT:      -7.1      2.492      3.169
REMARK SMILES O=C(O)CCc1ccccc1
REMARK SMILES IDX 4 1 2 2 1 3 3 4 5 6 6 7 7 8 11 9 8 10 10 11 9 12
REMARK H PARENT 3 5
REMARK Flexibility Score: inf
ROOT
ATOM      1  C   UNL     1       8.035  -2.099   0.585  1.00  0.00     0.127 C 
ENDROOT
BRANCH   1   2
ATOM      2  C   UNL     1       8.390  -3.450   1.079  1.00  0.00     0.303 C 
ATOM      3  O   UNL     1       9.569  -3.877   1.015  1.00  0.00    -0.252 OA
BRANCH   2   4
ATOM      4  O   UNL     1       7.426  -4.281   1.627  1.00  0.00    -0.481 OA
ATOM      5  H   UNL     1       6.437  -4.051   1.503  1.00  0.00     0.296 HD
ENDBRANCH   2   4
ENDBRANCH   1   2
BRANCH   1   6
ATOM      6  C   UNL     1       6.851  -1.609   1.363  1.00  0.00     0.047 C 
BRANCH   6   7
ATOM      7  C   UNL     1       6.281  -0.362   0.856  1.00  0.00    -0.047 A 
ATOM      8  C   UNL     1       5.513   0.441   1.667  1.00  0.00     0.004 A 
ATOM      9  C   UNL     1       6.524   0.007  -0.447  1.00  0.00     0.004 A 
ATOM     10  C   UNL     1       5.002   1.619   1.116  1.00  0.00     0.000 A 
ATOM     11  C   UNL     1       6.018   1.171  -0.990  1.00  0.00     0.000 A 
ATOM     12  C   UNL     1       5.247   1.980  -0.184  1.00  0.00     0.000 A 
ENDBRANCH   6   7
ENDBRANCH   1   6
TORSDOF 4
ENDMDL
MODEL 4
REMARK VINA RESULT:      -6.7      3.371      5.086
REMARK SMILES O=C(O)CCc1ccccc1
REMARK SMILES IDX 4 1 2 2 1 3 3 4 5 6 6 7 7 8 11 9 8 10 10 11 9 12
REMARK H PARENT 3 5
REMARK Flexibility Score: inf
ROOT
ATOM      1  C   UNL     1       5.022   1.779   0.656  1.00  0.00     0.127 C 
ENDROOT
BRANCH   1   2
ATOM      2  C   UNL     1       4.524   1.114   1.883  1.00  0.00     0.303 C 
ATOM      3  O   UNL     1       5.199   0.225   2.460  1.00  0.00    -0.252 OA
BRANCH   2   4
ATOM      4  O   UNL     1       3.297   1.455   2.428  1.00  0.00    -0.481 OA
ATOM      5  H   UNL     1       3.083   2.440   2.602  1.00  0.00     0.296 HD
ENDBRANCH   2   4
ENDBRANCH   1   2
BRANCH   1   6
ATOM      6  C   UNL     1       6.519   1.805   0.708  1.00  0.00     0.047 C 
BRANCH   6   7
ATOM      7  C   UNL     1       7.164   1.042  -0.360  1.00  0.00    -0.047 A 
ATOM      8  C   UNL     1       8.497   1.223  -0.647  1.00  0.00     0.004 A 
ATOM      9  C   UNL     1       6.422   0.134  -1.079  1.00  0.00     0.004 A 
ATOM     10  C   UNL     1       9.047   0.460  -1.679  1.00  0.00     0.000 A 
ATOM     11  C   UNL     1       6.967  -0.619  -2.099  1.00  0.00     0.000 A 
ATOM     12  C   UNL     1       8.302  -0.444  -2.394  1.00  0.00     0.000 A 
ENDBRANCH   6   7
ENDBRANCH   1   6
TORSDOF 4
ENDMDL
MODEL 5
REMARK VINA RESULT:      -6.6      1.939      2.221
REMARK SMILES O=C(O)CCc1ccccc1
REMARK SMILES IDX 4 1 2 2 1 3 3 4 5 6 6 7 7 8 11 9 8 10 10 11 9 12
REMARK H PARENT 3 5
REMARK Flexibility Score: inf
ROOT
ATOM      1  C   UNL     1       8.182   0.252  -2.136  1.00  0.00     0.127 C 
ENDROOT
BRANCH   1   2
ATOM      2  C   UNL     1       9.348   0.356  -1.227  1.00  0.00     0.303 C 
ATOM      3  O   UNL     1       9.462  -0.395  -0.227  1.00  0.00    -0.252 OA
BRANCH   2   4
ATOM      4  O   UNL     1      10.347   1.288  -1.457  1.00  0.00    -0.481 OA
ATOM      5  H   UNL     1      10.108   2.283  -1.482  1.00  0.00     0.296 HD
ENDBRANCH   2   4
ENDBRANCH   1   2
BRANCH   1   6
ATOM      6  C   UNL     1       7.138  -0.588  -1.468  1.00  0.00     0.047 C 
BRANCH   6   7
ATOM      7  C   UNL     1       6.359   0.124  -0.456  1.00  0.00    -0.047 A 
ATOM      8  C   UNL     1       6.167  -0.418   0.794  1.00  0.00     0.004 A 
ATOM      9  C   UNL     1       5.818   1.350  -0.765  1.00  0.00     0.004 A 
ATOM     10  C   UNL     1       5.413   0.318   1.711  1.00  0.00     0.000 A 
ATOM     11  C   UNL     1       5.074   2.077   0.142  1.00  0.00     0.000 A 
ATOM     12  C   UNL     1       4.876   1.541   1.396  1.00  0.00     0.000 A 
ENDBRANCH   6   7
ENDBRANCH   1   6
TORSDOF 4
ENDMDL
