@<TRIPOS>MOLECULE
/home/cewinharhar/GITHUB/reincatalyze/data/processed/docking_pred/2023-Apr-26-1657_maxeplen10_maxtrainstep1000_exh32_gamma099_lrac9e-4_lrcr1e-3/4c3a486d5bbb1ad3c8ce5b6da142191fd088767a_ligand_2.pdbqt
 12 12 0 0 0
SMALL
GASTEIGER

@<TRIPOS>ATOM
      1  C          5.0220    1.7790    0.6560 C.3     1  UNL1        0.1270
      2  C          4.5240    1.1140    1.8830 C.2     1  UNL1        0.3030
      3  O          5.1990    0.2250    2.4600 O.2     1  UNL1       -0.2520
      4  O          3.2970    1.4550    2.4280 O.3     1  UNL1       -0.4810
      5  H          3.0830    2.4400    2.6020 H       1  UNL1        0.2960
      6  C          6.5190    1.8050    0.7080 C.3     1  UNL1        0.0470
      7  C          7.1640    1.0420   -0.3600 C.2     1  UNL1       -0.0470
      8  C          8.4970    1.2230   -0.6470 C.2     1  UNL1        0.0040
      9  C          6.4220    0.1340   -1.0790 C.2     1  UNL1        0.0040
     10  C          9.0470    0.4600   -1.6790 C.2     1  UNL1        0.0000
     11  C          6.9670   -0.6190   -2.0990 C.2     1  UNL1        0.0000
     12  C          8.3020   -0.4440   -2.3940 C.2     1  UNL1        0.0000
@<TRIPOS>BOND
     1    12    11    2
     2    12    10    1
     3    11     9    1
     4    10     8    2
     5     9     7    2
     6     8     7    1
     7     7     6    1
     8     1     6    1
     9     1     2    1
    10     2     4    1
    11     2     3    2
    12     4     5    1
