@<TRIPOS>MOLECULE
/home/cewinharhar/GITHUB/reincatalyze/data/processed/docking_pred/2023-Apr-26-1657_maxeplen10_maxtrainstep1000_exh32_gamma099_lrac9e-4_lrcr1e-3/4c3a486d5bbb1ad3c8ce5b6da142191fd088767a_ligand_2.pdbqt
 12 12 0 0 0
SMALL
GASTEIGER

@<TRIPOS>ATOM
      1  C          8.0350   -2.0990    0.5850 C.3     1  UNL1        0.1270
      2  C          8.3900   -3.4500    1.0790 C.2     1  UNL1        0.3030
      3  O          9.5690   -3.8770    1.0150 O.2     1  UNL1       -0.2520
      4  O          7.4260   -4.2810    1.6270 O.3     1  UNL1       -0.4810
      5  H          6.4370   -4.0510    1.5030 H       1  UNL1        0.2960
      6  C          6.8510   -1.6090    1.3630 C.3     1  UNL1        0.0470
      7  C          6.2810   -0.3620    0.8560 C.2     1  UNL1       -0.0470
      8  C          5.5130    0.4410    1.6670 C.2     1  UNL1        0.0040
      9  C          6.5240    0.0070   -0.4470 C.2     1  UNL1        0.0040
     10  C          5.0020    1.6190    1.1160 C.2     1  UNL1        0.0000
     11  C          6.0180    1.1710   -0.9900 C.2     1  UNL1        0.0000
     12  C          5.2470    1.9800   -0.1840 C.2     1  UNL1        0.0000
@<TRIPOS>BOND
     1    11     9    1
     2    11    12    2
     3     9     7    2
     4    12    10    1
     5     1     2    1
     6     1     6    1
     7     7     6    1
     8     7     8    1
     9     3     2    2
    10     2     4    1
    11    10     8    2
    12     5     4    1
