@<TRIPOS>MOLECULE
/home/cewinharhar/GITHUB/reincatalyze/data/processed/docking_pred/2023-Apr-26-1657_maxeplen10_maxtrainstep1000_exh32_gamma099_lrac9e-4_lrcr1e-3/4c41b041102a8d5d821093d1e21668bd2b50a839_ligand_2.pdbqt
 12 12 0 0 0
SMALL
GASTEIGER

@<TRIPOS>ATOM
      1  C          8.2550   -0.9210   -1.8690 C.3     1  UNL1        0.1270
      2  C          8.4080   -2.0190   -2.8530 C.2     1  UNL1        0.3030
      3  O          9.5360   -2.5060   -3.1140 O.2     1  UNL1       -0.2520
      4  O          7.3070   -2.5390   -3.5130 O.3     1  UNL1       -0.4810
      5  H          7.2800   -3.5390   -3.7320 H       1  UNL1        0.2960
      6  C          7.3140   -1.3770   -0.7970 C.3     1  UNL1        0.0470
      7  C          6.5220   -0.3010   -0.2030 C.2     1  UNL1       -0.0470
      8  C          6.1960    0.8170   -0.9340 C.2     1  UNL1        0.0040
      9  C          6.1010   -0.4190    1.1010 C.2     1  UNL1        0.0040
     10  C          5.4360    1.8050   -0.3040 C.2     1  UNL1        0.0000
     11  C          5.3500    0.5590    1.7230 C.2     1  UNL1        0.0000
     12  C          5.0190    1.6830    0.9980 C.2     1  UNL1        0.0000
@<TRIPOS>BOND
     1     5     4    1
     2     4     2    1
     3     3     2    2
     4     2     1    1
     5     1     6    1
     6     8    10    1
     7     8     7    2
     8     6     7    1
     9    10    12    2
    10     7     9    1
    11    12    11    1
    12     9    11    2
