@<TRIPOS>MOLECULE
/home/cewinharhar/GITHUB/reincatalyze/data/processed/docking_pred/2023-Apr-26-1657_maxeplen10_maxtrainstep1000_exh32_gamma099_lrac9e-4_lrcr1e-3/4c41b041102a8d5d821093d1e21668bd2b50a839_ligand_2.pdbqt
 12 12 0 0 0
SMALL
GASTEIGER

@<TRIPOS>ATOM
      1  C          8.4400   -0.5750   -2.2190 C.3     1  UNL1        0.1270
      2  C          8.4910   -1.8800   -2.9200 C.2     1  UNL1        0.3030
      3  O          9.5770   -2.4880   -3.0850 O.2     1  UNL1       -0.2520
      4  O          7.3360   -2.4660   -3.4140 O.3     1  UNL1       -0.4810
      5  H          6.9220   -3.2560   -2.9120 H       1  UNL1        0.2960
      6  C          7.0120   -0.1230   -2.1680 C.3     1  UNL1        0.0470
      7  C          6.4880    0.0370   -0.8130 C.2     1  UNL1       -0.0470
      8  C          6.6230   -0.9680    0.1170 C.2     1  UNL1        0.0040
      9  C          5.8550    1.2100   -0.4720 C.2     1  UNL1        0.0040
     10  C          6.0990   -0.7450    1.3930 C.2     1  UNL1        0.0000
     11  C          5.3370    1.4280    0.7890 C.2     1  UNL1        0.0000
     12  C          5.4680    0.4260    1.7260 C.2     1  UNL1        0.0000
@<TRIPOS>BOND
     1     4     2    1
     2     4     5    1
     3     3     2    2
     4     2     1    1
     5     1     6    1
     6     6     7    1
     7     7     9    2
     8     7     8    1
     9     9    11    1
    10     8    10    2
    11    11    12    2
    12    10    12    1
