MODEL 1
REMARK VINA RESULT:      -7.3      0.000      0.000
REMARK SMILES O=C(O)CCc1ccccc1
REMARK SMILES IDX 4 1 2 2 1 3 3 4 5 6 6 7 7 8 11 9 8 10 10 11 9 12
REMARK H PARENT 3 5
REMARK Flexibility Score: inf
ROOT
ATOM      1  C   UNL     1       8.440  -0.575  -2.219  1.00  0.00     0.127 C 
ENDROOT
BRANCH   1   2
ATOM      2  C   UNL     1       8.491  -1.880  -2.920  1.00  0.00     0.303 C 
ATOM      3  O   UNL     1       9.577  -2.488  -3.085  1.00  0.00    -0.252 OA
BRANCH   2   4
ATOM      4  O   UNL     1       7.336  -2.466  -3.414  1.00  0.00    -0.481 OA
ATOM      5  H   UNL     1       6.922  -3.256  -2.912  1.00  0.00     0.296 HD
ENDBRANCH   2   4
ENDBRANCH   1   2
BRANCH   1   6
ATOM      6  C   UNL     1       7.012  -0.123  -2.168  1.00  0.00     0.047 C 
BRANCH   6   7
ATOM      7  C   UNL     1       6.488   0.037  -0.813  1.00  0.00    -0.047 A 
ATOM      8  C   UNL     1       6.623  -0.968   0.117  1.00  0.00     0.004 A 
ATOM      9  C   UNL     1       5.855   1.210  -0.472  1.00  0.00     0.004 A 
ATOM     10  C   UNL     1       6.099  -0.745   1.393  1.00  0.00     0.000 A 
ATOM     11  C   UNL     1       5.337   1.428   0.789  1.00  0.00     0.000 A 
ATOM     12  C   UNL     1       5.468   0.426   1.726  1.00  0.00     0.000 A 
ENDBRANCH   6   7
ENDBRANCH   1   6
TORSDOF 4
ENDMDL
MODEL 2
REMARK VINA RESULT:      -7.3      0.134      1.733
REMARK SMILES O=C(O)CCc1ccccc1
REMARK SMILES IDX 4 1 2 2 1 3 3 4 5 6 6 7 7 8 11 9 8 10 10 11 9 12
REMARK H PARENT 3 5
REMARK Flexibility Score: inf
ROOT
ATOM      1  C   UNL     1       8.406  -0.643  -2.088  1.00  0.00     0.127 C 
ENDROOT
BRANCH   1   2
ATOM      2  C   UNL     1       8.378  -1.895  -2.881  1.00  0.00     0.303 C 
ATOM      3  O   UNL     1       7.292  -2.416  -3.238  1.00  0.00    -0.252 OA
BRANCH   2   4
ATOM      4  O   UNL     1       9.554  -2.528  -3.251  1.00  0.00    -0.481 OA
ATOM      5  H   UNL     1       9.590  -3.040  -4.136  1.00  0.00     0.296 HD
ENDBRANCH   2   4
ENDBRANCH   1   2
BRANCH   1   6
ATOM      6  C   UNL     1       7.024  -0.063  -2.076  1.00  0.00     0.047 C 
BRANCH   6   7
ATOM      7  C   UNL     1       6.461   0.103  -0.738  1.00  0.00    -0.047 A 
ATOM      8  C   UNL     1       5.813   1.264  -0.386  1.00  0.00     0.004 A 
ATOM      9  C   UNL     1       6.583  -0.921   0.173  1.00  0.00     0.004 A 
ATOM     10  C   UNL     1       5.298   1.352   0.909  1.00  0.00     0.000 A 
ATOM     11  C   UNL     1       6.074  -0.832   1.454  1.00  0.00     0.000 A 
ATOM     12  C   UNL     1       5.424   0.329   1.814  1.00  0.00     0.000 A 
ENDBRANCH   6   7
ENDBRANCH   1   6
TORSDOF 4
ENDMDL
MODEL 3
REMARK VINA RESULT:      -7.2      0.644      1.589
REMARK SMILES O=C(O)CCc1ccccc1
REMARK SMILES IDX 4 1 2 2 1 3 3 4 5 6 6 7 7 8 11 9 8 10 10 11 9 12
REMARK H PARENT 3 5
REMARK Flexibility Score: inf
ROOT
ATOM      1  C   UNL     1       8.255  -0.921  -1.869  1.00  0.00     0.127 C 
ENDROOT
BRANCH   1   2
ATOM      2  C   UNL     1       8.408  -2.019  -2.853  1.00  0.00     0.303 C 
ATOM      3  O   UNL     1       9.536  -2.506  -3.114  1.00  0.00    -0.252 OA
BRANCH   2   4
ATOM      4  O   UNL     1       7.307  -2.539  -3.513  1.00  0.00    -0.481 OA
ATOM      5  H   UNL     1       7.280  -3.539  -3.732  1.00  0.00     0.296 HD
ENDBRANCH   2   4
ENDBRANCH   1   2
BRANCH   1   6
ATOM      6  C   UNL     1       7.314  -1.377  -0.797  1.00  0.00     0.047 C 
BRANCH   6   7
ATOM      7  C   UNL     1       6.522  -0.301  -0.203  1.00  0.00    -0.047 A 
ATOM      8  C   UNL     1       6.196   0.817  -0.934  1.00  0.00     0.004 A 
ATOM      9  C   UNL     1       6.101  -0.419   1.101  1.00  0.00     0.004 A 
ATOM     10  C   UNL     1       5.436   1.805  -0.304  1.00  0.00     0.000 A 
ATOM     11  C   UNL     1       5.350   0.559   1.723  1.00  0.00     0.000 A 
ATOM     12  C   UNL     1       5.019   1.683   0.998  1.00  0.00     0.000 A 
ENDBRANCH   6   7
ENDBRANCH   1   6
TORSDOF 4
ENDMDL
MODEL 4
REMARK VINA RESULT:      -6.8      3.382      5.066
REMARK SMILES O=C(O)CCc1ccccc1
REMARK SMILES IDX 4 1 2 2 1 3 3 4 5 6 6 7 7 8 11 9 8 10 10 11 9 12
REMARK H PARENT 3 5
REMARK Flexibility Score: inf
ROOT
ATOM      1  C   UNL     1       5.008   1.820   0.717  1.00  0.00     0.127 C 
ENDROOT
BRANCH   1   2
ATOM      2  C   UNL     1       4.483   1.125   1.916  1.00  0.00     0.303 C 
ATOM      3  O   UNL     1       5.139   0.214   2.479  1.00  0.00    -0.252 OA
BRANCH   2   4
ATOM      4  O   UNL     1       3.250   1.464   2.450  1.00  0.00    -0.481 OA
ATOM      5  H   UNL     1       3.049   2.445   2.663  1.00  0.00     0.296 HD
ENDBRANCH   2   4
ENDBRANCH   1   2
BRANCH   1   6
ATOM      6  C   UNL     1       6.505   1.783   0.768  1.00  0.00     0.047 C 
BRANCH   6   7
ATOM      7  C   UNL     1       7.119   1.033  -0.326  1.00  0.00    -0.047 A 
ATOM      8  C   UNL     1       6.381   0.140  -1.068  1.00  0.00     0.004 A 
ATOM      9  C   UNL     1       8.451   1.229  -0.610  1.00  0.00     0.004 A 
ATOM     10  C   UNL     1       7.033  -0.541  -2.099  1.00  0.00     0.000 A 
ATOM     11  C   UNL     1       9.093   0.555  -1.629  1.00  0.00     0.000 A 
ATOM     12  C   UNL     1       8.361  -0.341  -2.377  1.00  0.00     0.000 A 
ENDBRANCH   6   7
ENDBRANCH   1   6
TORSDOF 4
ENDMDL
MODEL 5
REMARK VINA RESULT:      -6.7      1.915      2.283
REMARK SMILES O=C(O)CCc1ccccc1
REMARK SMILES IDX 4 1 2 2 1 3 3 4 5 6 6 7 7 8 11 9 8 10 10 11 9 12
REMARK H PARENT 3 5
REMARK Flexibility Score: inf
ROOT
ATOM      1  C   UNL     1       8.213   0.306  -2.198  1.00  0.00     0.127 C 
ENDROOT
BRANCH   1   2
ATOM      2  C   UNL     1       9.356   0.366  -1.256  1.00  0.00     0.303 C 
ATOM      3  O   UNL     1       9.434  -0.416  -0.277  1.00  0.00    -0.252 OA
BRANCH   2   4
ATOM      4  O   UNL     1      10.372   1.291  -1.432  1.00  0.00    -0.481 OA
ATOM      5  H   UNL     1      11.046   1.157  -2.191  1.00  0.00     0.296 HD
ENDBRANCH   2   4
ENDBRANCH   1   2
BRANCH   1   6
ATOM      6  C   UNL     1       7.112  -0.479  -1.551  1.00  0.00     0.047 C 
BRANCH   6   7
ATOM      7  C   UNL     1       6.333   0.282  -0.576  1.00  0.00    -0.047 A 
ATOM      8  C   UNL     1       6.123  -0.207   0.692  1.00  0.00     0.004 A 
ATOM      9  C   UNL     1       5.810   1.502  -0.939  1.00  0.00     0.004 A 
ATOM     10  C   UNL     1       5.370   0.574   1.572  1.00  0.00     0.000 A 
ATOM     11  C   UNL     1       5.066   2.273  -0.069  1.00  0.00     0.000 A 
ATOM     12  C   UNL     1       4.850   1.790   1.204  1.00  0.00     0.000 A 
ENDBRANCH   6   7
ENDBRANCH   1   6
TORSDOF 4
ENDMDL
