@<TRIPOS>MOLECULE
/home/cewinharhar/GITHUB/reincatalyze/data/processed/docking_pred/2023-Apr-26-1657_maxeplen10_maxtrainstep1000_exh32_gamma099_lrac9e-4_lrcr1e-3/4c41b041102a8d5d821093d1e21668bd2b50a839_ligand_2.pdbqt
 12 12 0 0 0
SMALL
GASTEIGER

@<TRIPOS>ATOM
      1  C          8.2130    0.3060   -2.1980 C.3     1  UNL1        0.1270
      2  C          9.3560    0.3660   -1.2560 C.2     1  UNL1        0.3030
      3  O          9.4340   -0.4160   -0.2770 O.2     1  UNL1       -0.2520
      4  O         10.3720    1.2910   -1.4320 O.3     1  UNL1       -0.4810
      5  H         11.0460    1.1570   -2.1910 H       1  UNL1        0.2960
      6  C          7.1120   -0.4790   -1.5510 C.3     1  UNL1        0.0470
      7  C          6.3330    0.2820   -0.5760 C.2     1  UNL1       -0.0470
      8  C          6.1230   -0.2070    0.6920 C.2     1  UNL1        0.0040
      9  C          5.8100    1.5020   -0.9390 C.2     1  UNL1        0.0040
     10  C          5.3700    0.5740    1.5720 C.2     1  UNL1        0.0000
     11  C          5.0660    2.2730   -0.0690 C.2     1  UNL1        0.0000
     12  C          4.8500    1.7900    1.2040 C.2     1  UNL1        0.0000
@<TRIPOS>BOND
     1     1     6    1
     2     1     2    1
     3     5     4    1
     4     6     7    1
     5     4     2    1
     6     2     3    2
     7     9     7    2
     8     9    11    1
     9     7     8    1
    10    11    12    2
    11     8    10    2
    12    12    10    1
