@<TRIPOS>MOLECULE
/home/cewinharhar/GITHUB/reincatalyze/data/processed/docking_pred/2023-Apr-26-1657_maxeplen10_maxtrainstep1000_exh32_gamma099_lrac9e-4_lrcr1e-3/4c41b041102a8d5d821093d1e21668bd2b50a839_ligand_2.pdbqt
 12 12 0 0 0
SMALL
GASTEIGER

@<TRIPOS>ATOM
      1  C          8.4060   -0.6430   -2.0880 C.3     1  UNL1        0.1270
      2  C          8.3780   -1.8950   -2.8810 C.2     1  UNL1        0.3030
      3  O          7.2920   -2.4160   -3.2380 O.2     1  UNL1       -0.2520
      4  O          9.5540   -2.5280   -3.2510 O.3     1  UNL1       -0.4810
      5  H          9.5900   -3.0400   -4.1360 H       1  UNL1        0.2960
      6  C          7.0240   -0.0630   -2.0760 C.3     1  UNL1        0.0470
      7  C          6.4610    0.1030   -0.7380 C.2     1  UNL1       -0.0470
      8  C          5.8130    1.2640   -0.3860 C.2     1  UNL1        0.0040
      9  C          6.5830   -0.9210    0.1730 C.2     1  UNL1        0.0040
     10  C          5.2980    1.3520    0.9090 C.2     1  UNL1        0.0000
     11  C          6.0740   -0.8320    1.4540 C.2     1  UNL1        0.0000
     12  C          5.4240    0.3290    1.8140 C.2     1  UNL1        0.0000
@<TRIPOS>BOND
     1     5     4    1
     2     4     2    1
     3     3     2    2
     4     2     1    1
     5     1     6    1
     6     6     7    1
     7     7     8    2
     8     7     9    1
     9     8    10    1
    10     9    11    2
    11    10    12    2
    12    11    12    1
