@<TRIPOS>MOLECULE
/home/cewinharhar/GITHUB/reincatalyze/data/processed/docking_pred/2023-Apr-26-1657_maxeplen10_maxtrainstep1000_exh32_gamma099_lrac9e-4_lrcr1e-3/4d620996829bdf69d2437cdb6940cc233521eaf3_ligand_2.pdbqt
 12 12 0 0 0
SMALL
GASTEIGER

@<TRIPOS>ATOM
      1  C          8.4200   -0.5610   -2.2460 C.3     1  UNL1        0.1270
      2  C          8.4710   -1.8730   -2.9340 C.2     1  UNL1        0.3030
      3  O          9.5580   -2.4800   -3.0980 O.2     1  UNL1       -0.2520
      4  O          7.3160   -2.4660   -3.4180 O.3     1  UNL1       -0.4810
      5  H          7.3830   -3.3530   -3.9250 H       1  UNL1        0.2960
      6  C          6.9890   -0.1200   -2.1790 C.3     1  UNL1        0.0470
      7  C          6.4780    0.0360   -0.8190 C.2     1  UNL1       -0.0470
      8  C          6.6190   -0.9730    0.1050 C.2     1  UNL1        0.0040
      9  C          5.8530    1.2100   -0.4670 C.2     1  UNL1        0.0040
     10  C          6.1070   -0.7550    1.3870 C.2     1  UNL1        0.0000
     11  C          5.3480    1.4240    0.8000 C.2     1  UNL1        0.0000
     12  C          5.4840    0.4180    1.7320 C.2     1  UNL1        0.0000
@<TRIPOS>BOND
     1     5     4    1
     2     4     2    1
     3     3     2    2
     4     2     1    1
     5     1     6    1
     6     6     7    1
     7     7     9    2
     8     7     8    1
     9     9    11    1
    10     8    10    2
    11    11    12    2
    12    10    12    1
