@<TRIPOS>MOLECULE
/home/cewinharhar/GITHUB/reincatalyze/data/processed/docking_pred/2023-Apr-26-1657_maxeplen10_maxtrainstep1000_exh32_gamma099_lrac9e-4_lrcr1e-3/4d620996829bdf69d2437cdb6940cc233521eaf3_ligand_2.pdbqt
 12 12 0 0 0
SMALL
GASTEIGER

@<TRIPOS>ATOM
      1  C          8.2300    0.1450   -2.1530 C.3     1  UNL1        0.1270
      2  C          9.3620    0.3270   -1.2140 C.2     1  UNL1        0.3030
      3  O          9.4800   -0.3900   -0.1890 O.2     1  UNL1       -0.2520
      4  O         10.3250    1.2970   -1.4420 O.3     1  UNL1       -0.4810
      5  H         11.2280    1.0220   -1.8390 H       1  UNL1        0.2960
      6  C          7.1460   -0.6070   -1.4420 C.3     1  UNL1        0.0470
      7  C          6.3620    0.2120   -0.5190 C.2     1  UNL1       -0.0470
      8  C          6.1270   -0.2100    0.7690 C.2     1  UNL1        0.0040
      9  C          5.8610    1.4180   -0.9510 C.2     1  UNL1        0.0040
     10  C          5.3710    0.6230    1.5970 C.2     1  UNL1        0.0000
     11  C          5.1140    2.2410   -0.1310 C.2     1  UNL1        0.0000
     12  C          4.8730    1.8250    1.1600 C.2     1  UNL1        0.0000
@<TRIPOS>BOND
     1     1     6    1
     2     1     2    1
     3     5     4    1
     4     4     2    1
     5     6     7    1
     6     2     3    2
     7     9     7    2
     8     9    11    1
     9     7     8    1
    10    11    12    2
    11     8    10    2
    12    12    10    1
