@<TRIPOS>MOLECULE
/home/cewinharhar/GITHUB/reincatalyze/data/processed/docking_pred/2023-Apr-26-1657_maxeplen10_maxtrainstep1000_exh32_gamma099_lrac9e-4_lrcr1e-3/4d620996829bdf69d2437cdb6940cc233521eaf3_ligand_2.pdbqt
 12 12 0 0 0
SMALL
GASTEIGER

@<TRIPOS>ATOM
      1  C          8.3960   -0.6510   -2.0840 C.3     1  UNL1        0.1270
      2  C          8.3680   -1.8990   -2.8820 C.2     1  UNL1        0.3030
      3  O          7.2830   -2.4100   -3.2540 O.2     1  UNL1       -0.2520
      4  O          9.5440   -2.5380   -3.2410 O.3     1  UNL1       -0.4810
      5  H          9.7290   -2.7290   -4.2290 H       1  UNL1        0.2960
      6  C          7.0150   -0.0690   -2.0720 C.3     1  UNL1        0.0470
      7  C          6.4510    0.0980   -0.7340 C.2     1  UNL1       -0.0470
      8  C          5.8050    1.2600   -0.3820 C.2     1  UNL1        0.0040
      9  C          6.5710   -0.9260    0.1770 C.2     1  UNL1        0.0040
     10  C          5.2900    1.3500    0.9130 C.2     1  UNL1        0.0000
     11  C          6.0620   -0.8360    1.4580 C.2     1  UNL1        0.0000
     12  C          5.4140    0.3260    1.8180 C.2     1  UNL1        0.0000
@<TRIPOS>BOND
     1     5     4    1
     2     3     2    2
     3     4     2    1
     4     2     1    1
     5     1     6    1
     6     6     7    1
     7     7     8    2
     8     7     9    1
     9     8    10    1
    10     9    11    2
    11    10    12    2
    12    11    12    1
