@<TRIPOS>MOLECULE
/home/cewinharhar/GITHUB/reincatalyze/data/processed/docking_pred/2023-Apr-26-1657_maxeplen10_maxtrainstep1000_exh32_gamma099_lrac9e-4_lrcr1e-3/4d620996829bdf69d2437cdb6940cc233521eaf3_ligand_2.pdbqt
 12 12 0 0 0
SMALL
GASTEIGER

@<TRIPOS>ATOM
      1  C          8.2990   -0.8960   -1.8360 C.3     1  UNL1        0.1270
      2  C          8.3380   -1.9850   -2.8400 C.2     1  UNL1        0.3030
      3  O          7.2830   -2.4520   -3.3360 O.2     1  UNL1       -0.2520
      4  O          9.5450   -2.5200   -3.2600 O.3     1  UNL1       -0.4810
      5  H         10.0300   -2.0990   -4.0570 H       1  UNL1        0.2960
      6  C          7.5240   -1.3780   -0.6480 C.3     1  UNL1        0.0470
      7  C          6.6450   -0.3690   -0.0620 C.2     1  UNL1       -0.0470
      8  C          6.1770   -0.5050    1.2250 C.2     1  UNL1        0.0040
      9  C          6.2880    0.7280   -0.8120 C.2     1  UNL1        0.0040
     10  C          5.3420    0.4990    1.7210 C.2     1  UNL1        0.0000
     11  C          5.4620    1.7190   -0.3200 C.2     1  UNL1        0.0000
     12  C          4.9880    1.5900    0.9680 C.2     1  UNL1        0.0000
@<TRIPOS>BOND
     1     5     4    1
     2     3     2    2
     3     4     2    1
     4     2     1    1
     5     1     6    1
     6     9    11    1
     7     9     7    2
     8     6     7    1
     9    11    12    2
    10     7     8    1
    11    12    10    1
    12     8    10    2
