MODEL 1
REMARK VINA RESULT:      -7.3      0.000      0.000
REMARK SMILES O=C(O)CCc1ccccc1
REMARK SMILES IDX 4 1 2 2 1 3 3 4 5 6 6 7 7 8 11 9 8 10 10 11 9 12
REMARK H PARENT 3 5
REMARK Flexibility Score: inf
ROOT
ATOM      1  C   UNL     1       8.420  -0.561  -2.246  1.00  0.00     0.127 C 
ENDROOT
BRANCH   1   2
ATOM      2  C   UNL     1       8.471  -1.873  -2.934  1.00  0.00     0.303 C 
ATOM      3  O   UNL     1       9.558  -2.480  -3.098  1.00  0.00    -0.252 OA
BRANCH   2   4
ATOM      4  O   UNL     1       7.316  -2.466  -3.418  1.00  0.00    -0.481 OA
ATOM      5  H   UNL     1       7.383  -3.353  -3.925  1.00  0.00     0.296 HD
ENDBRANCH   2   4
ENDBRANCH   1   2
BRANCH   1   6
ATOM      6  C   UNL     1       6.989  -0.120  -2.179  1.00  0.00     0.047 C 
BRANCH   6   7
ATOM      7  C   UNL     1       6.478   0.036  -0.819  1.00  0.00    -0.047 A 
ATOM      8  C   UNL     1       6.619  -0.973   0.105  1.00  0.00     0.004 A 
ATOM      9  C   UNL     1       5.853   1.210  -0.467  1.00  0.00     0.004 A 
ATOM     10  C   UNL     1       6.107  -0.755   1.387  1.00  0.00     0.000 A 
ATOM     11  C   UNL     1       5.348   1.424   0.800  1.00  0.00     0.000 A 
ATOM     12  C   UNL     1       5.484   0.418   1.732  1.00  0.00     0.000 A 
ENDBRANCH   6   7
ENDBRANCH   1   6
TORSDOF 4
ENDMDL
MODEL 2
REMARK VINA RESULT:      -7.3      0.138      1.733
REMARK SMILES O=C(O)CCc1ccccc1
REMARK SMILES IDX 4 1 2 2 1 3 3 4 5 6 6 7 7 8 11 9 8 10 10 11 9 12
REMARK H PARENT 3 5
REMARK Flexibility Score: inf
ROOT
ATOM      1  C   UNL     1       8.396  -0.651  -2.084  1.00  0.00     0.127 C 
ENDROOT
BRANCH   1   2
ATOM      2  C   UNL     1       8.368  -1.899  -2.882  1.00  0.00     0.303 C 
ATOM      3  O   UNL     1       7.283  -2.410  -3.254  1.00  0.00    -0.252 OA
BRANCH   2   4
ATOM      4  O   UNL     1       9.544  -2.538  -3.241  1.00  0.00    -0.481 OA
ATOM      5  H   UNL     1       9.729  -2.729  -4.229  1.00  0.00     0.296 HD
ENDBRANCH   2   4
ENDBRANCH   1   2
BRANCH   1   6
ATOM      6  C   UNL     1       7.015  -0.069  -2.072  1.00  0.00     0.047 C 
BRANCH   6   7
ATOM      7  C   UNL     1       6.451   0.098  -0.734  1.00  0.00    -0.047 A 
ATOM      8  C   UNL     1       5.805   1.260  -0.382  1.00  0.00     0.004 A 
ATOM      9  C   UNL     1       6.571  -0.926   0.177  1.00  0.00     0.004 A 
ATOM     10  C   UNL     1       5.290   1.350   0.913  1.00  0.00     0.000 A 
ATOM     11  C   UNL     1       6.062  -0.836   1.458  1.00  0.00     0.000 A 
ATOM     12  C   UNL     1       5.414   0.326   1.818  1.00  0.00     0.000 A 
ENDBRANCH   6   7
ENDBRANCH   1   6
TORSDOF 4
ENDMDL
MODEL 3
REMARK VINA RESULT:      -7.1      0.636      1.464
REMARK SMILES O=C(O)CCc1ccccc1
REMARK SMILES IDX 4 1 2 2 1 3 3 4 5 6 6 7 7 8 11 9 8 10 10 11 9 12
REMARK H PARENT 3 5
REMARK Flexibility Score: inf
ROOT
ATOM      1  C   UNL     1       8.299  -0.896  -1.836  1.00  0.00     0.127 C 
ENDROOT
BRANCH   1   2
ATOM      2  C   UNL     1       8.338  -1.985  -2.840  1.00  0.00     0.303 C 
ATOM      3  O   UNL     1       7.283  -2.452  -3.336  1.00  0.00    -0.252 OA
BRANCH   2   4
ATOM      4  O   UNL     1       9.545  -2.520  -3.260  1.00  0.00    -0.481 OA
ATOM      5  H   UNL     1      10.030  -2.099  -4.057  1.00  0.00     0.296 HD
ENDBRANCH   2   4
ENDBRANCH   1   2
BRANCH   1   6
ATOM      6  C   UNL     1       7.524  -1.378  -0.648  1.00  0.00     0.047 C 
BRANCH   6   7
ATOM      7  C   UNL     1       6.645  -0.369  -0.062  1.00  0.00    -0.047 A 
ATOM      8  C   UNL     1       6.177  -0.505   1.225  1.00  0.00     0.004 A 
ATOM      9  C   UNL     1       6.288   0.728  -0.812  1.00  0.00     0.004 A 
ATOM     10  C   UNL     1       5.342   0.499   1.721  1.00  0.00     0.000 A 
ATOM     11  C   UNL     1       5.462   1.719  -0.320  1.00  0.00     0.000 A 
ATOM     12  C   UNL     1       4.988   1.590   0.968  1.00  0.00     0.000 A 
ENDBRANCH   6   7
ENDBRANCH   1   6
TORSDOF 4
ENDMDL
MODEL 4
REMARK VINA RESULT:      -6.8      3.378      5.063
REMARK SMILES O=C(O)CCc1ccccc1
REMARK SMILES IDX 4 1 2 2 1 3 3 4 5 6 6 7 7 8 11 9 8 10 10 11 9 12
REMARK H PARENT 3 5
REMARK Flexibility Score: inf
ROOT
ATOM      1  C   UNL     1       4.981   1.811   0.697  1.00  0.00     0.127 C 
ENDROOT
BRANCH   1   2
ATOM      2  C   UNL     1       4.475   1.119   1.906  1.00  0.00     0.303 C 
ATOM      3  O   UNL     1       5.140   0.209   2.461  1.00  0.00    -0.252 OA
BRANCH   2   4
ATOM      4  O   UNL     1       3.251   1.459   2.459  1.00  0.00    -0.481 OA
ATOM      5  H   UNL     1       2.526   0.742   2.550  1.00  0.00     0.296 HD
ENDBRANCH   2   4
ENDBRANCH   1   2
BRANCH   1   6
ATOM      6  C   UNL     1       6.478   1.801   0.740  1.00  0.00     0.047 C 
BRANCH   6   7
ATOM      7  C   UNL     1       7.099   1.049  -0.349  1.00  0.00    -0.047 A 
ATOM      8  C   UNL     1       6.359   0.177  -1.113  1.00  0.00     0.004 A 
ATOM      9  C   UNL     1       8.439   1.225  -0.608  1.00  0.00     0.004 A 
ATOM     10  C   UNL     1       7.018  -0.507  -2.137  1.00  0.00     0.000 A 
ATOM     11  C   UNL     1       9.089   0.548  -1.621  1.00  0.00     0.000 A 
ATOM     12  C   UNL     1       8.355  -0.328  -2.390  1.00  0.00     0.000 A 
ENDBRANCH   6   7
ENDBRANCH   1   6
TORSDOF 4
ENDMDL
MODEL 5
REMARK VINA RESULT:      -6.7      1.937      2.303
REMARK SMILES O=C(O)CCc1ccccc1
REMARK SMILES IDX 4 1 2 2 1 3 3 4 5 6 6 7 7 8 11 9 8 10 10 11 9 12
REMARK H PARENT 3 5
REMARK Flexibility Score: inf
ROOT
ATOM      1  C   UNL     1       8.230   0.145  -2.153  1.00  0.00     0.127 C 
ENDROOT
BRANCH   1   2
ATOM      2  C   UNL     1       9.362   0.327  -1.214  1.00  0.00     0.303 C 
ATOM      3  O   UNL     1       9.480  -0.390  -0.189  1.00  0.00    -0.252 OA
BRANCH   2   4
ATOM      4  O   UNL     1      10.325   1.297  -1.442  1.00  0.00    -0.481 OA
ATOM      5  H   UNL     1      11.228   1.022  -1.839  1.00  0.00     0.296 HD
ENDBRANCH   2   4
ENDBRANCH   1   2
BRANCH   1   6
ATOM      6  C   UNL     1       7.146  -0.607  -1.442  1.00  0.00     0.047 C 
BRANCH   6   7
ATOM      7  C   UNL     1       6.362   0.212  -0.519  1.00  0.00    -0.047 A 
ATOM      8  C   UNL     1       6.127  -0.210   0.769  1.00  0.00     0.004 A 
ATOM      9  C   UNL     1       5.861   1.418  -0.951  1.00  0.00     0.004 A 
ATOM     10  C   UNL     1       5.371   0.623   1.597  1.00  0.00     0.000 A 
ATOM     11  C   UNL     1       5.114   2.241  -0.131  1.00  0.00     0.000 A 
ATOM     12  C   UNL     1       4.873   1.825   1.160  1.00  0.00     0.000 A 
ENDBRANCH   6   7
ENDBRANCH   1   6
TORSDOF 4
ENDMDL
