@<TRIPOS>MOLECULE
/home/cewinharhar/GITHUB/reincatalyze/data/processed/docking_pred/2023-Apr-26-1657_maxeplen10_maxtrainstep1000_exh32_gamma099_lrac9e-4_lrcr1e-3/4dfe2a4ebf2cd2c58b23ebebd9c83ff91bb12173_ligand_2.pdbqt
 12 12 0 0 0
SMALL
GASTEIGER

@<TRIPOS>ATOM
      1  C          7.2600   -1.3080   -2.3000 C.3     1  UNL1        0.1270
      2  C          8.7210   -1.3800   -2.5410 C.2     1  UNL1        0.3030
      3  O          9.5000   -0.5110   -2.0790 O.2     1  UNL1       -0.2520
      4  O          9.2670   -2.4130   -3.2860 O.3     1  UNL1       -0.4810
      5  H          9.5810   -3.2630   -2.8090 H       1  UNL1        0.2960
      6  C          6.9170    0.0950   -1.9020 C.3     1  UNL1        0.0470
      7  C          6.3000    0.2040   -0.5810 C.2     1  UNL1       -0.0470
      8  C          6.3960   -0.8250    0.3270 C.2     1  UNL1        0.0040
      9  C          5.6190    1.3530   -0.2510 C.2     1  UNL1        0.0040
     10  C          5.7830   -0.6510    1.5700 C.2     1  UNL1        0.0000
     11  C          5.0130    1.5230    0.9780 C.2     1  UNL1        0.0000
     12  C          5.1040    0.4970    1.8930 C.2     1  UNL1        0.0000
@<TRIPOS>BOND
     1     4     5    1
     2     4     2    1
     3     2     1    1
     4     2     3    2
     5     1     6    1
     6     6     7    1
     7     7     9    2
     8     7     8    1
     9     9    11    1
    10     8    10    2
    11    11    12    2
    12    10    12    1
