@<TRIPOS>MOLECULE
/home/cewinharhar/GITHUB/reincatalyze/data/processed/docking_pred/2023-Apr-26-1657_maxeplen10_maxtrainstep1000_exh32_gamma099_lrac9e-4_lrcr1e-3/4dfe2a4ebf2cd2c58b23ebebd9c83ff91bb12173_ligand_2.pdbqt
 12 12 0 0 0
SMALL
GASTEIGER

@<TRIPOS>ATOM
      1  C          8.4650   -0.5920   -2.1370 C.3     1  UNL1        0.1270
      2  C          8.4950   -1.8550   -2.9110 C.2     1  UNL1        0.3030
      3  O          9.5720   -2.4670   -3.1160 O.2     1  UNL1       -0.2520
      4  O          7.3310   -2.3970   -3.4320 O.3     1  UNL1       -0.4810
      5  H          6.6360   -2.7980   -2.7950 H       1  UNL1        0.2960
      6  C          7.0580   -0.0750   -2.1350 C.3     1  UNL1        0.0470
      7  C          6.4730    0.0480   -0.8010 C.2     1  UNL1       -0.0470
      8  C          6.5480   -0.9900    0.0990 C.2     1  UNL1        0.0040
      9  C          5.8430    1.2190   -0.4490 C.2     1  UNL1        0.0040
     10  C          5.9680   -0.8030    1.3550 C.2     1  UNL1        0.0000
     11  C          5.2690    1.4030    0.7930 C.2     1  UNL1        0.0000
     12  C          5.3400    0.3680    1.7000 C.2     1  UNL1        0.0000
@<TRIPOS>BOND
     1     4     2    1
     2     4     5    1
     3     3     2    2
     4     2     1    1
     5     1     6    1
     6     6     7    1
     7     7     9    2
     8     7     8    1
     9     9    11    1
    10     8    10    2
    11    11    12    2
    12    10    12    1
