@<TRIPOS>MOLECULE
/home/cewinharhar/GITHUB/reincatalyze/data/processed/docking_pred/2023-Apr-26-1657_maxeplen10_maxtrainstep1000_exh32_gamma099_lrac9e-4_lrcr1e-3/4dfe2a4ebf2cd2c58b23ebebd9c83ff91bb12173_ligand_2.pdbqt
 12 12 0 0 0
SMALL
GASTEIGER

@<TRIPOS>ATOM
      1  C          8.3980   -0.6400   -2.0620 C.3     1  UNL1        0.1270
      2  C          8.3800   -1.8900   -2.8570 C.2     1  UNL1        0.3030
      3  O          7.2980   -2.4100   -3.2270 O.2     1  UNL1       -0.2520
      4  O          9.5600   -2.5210   -3.2160 O.3     1  UNL1       -0.4810
      5  H         10.4540   -2.0690   -3.0030 H       1  UNL1        0.2960
      6  C          7.0140   -0.0650   -2.0570 C.3     1  UNL1        0.0470
      7  C          6.4290    0.0630   -0.7230 C.2     1  UNL1       -0.0470
      8  C          5.7930    1.2220   -0.3430 C.2     1  UNL1        0.0040
      9  C          6.5180   -0.9940    0.1530 C.2     1  UNL1        0.0040
     10  C          5.2560    1.2730    0.9460 C.2     1  UNL1        0.0000
     11  C          5.9860   -0.9410    1.4260 C.2     1  UNL1        0.0000
     12  C          5.3480    0.2160    1.8160 C.2     1  UNL1        0.0000
@<TRIPOS>BOND
     1     3     2    2
     2     4     5    1
     3     4     2    1
     4     2     1    1
     5     1     6    1
     6     6     7    1
     7     7     8    2
     8     7     9    1
     9     8    10    1
    10     9    11    2
    11    10    12    2
    12    11    12    1
