MODEL 1
REMARK VINA RESULT:      -7.3      0.000      0.000
REMARK SMILES O=C(O)CCc1ccccc1
REMARK SMILES IDX 4 1 2 2 1 3 3 4 5 6 6 7 7 8 11 9 8 10 10 11 9 12
REMARK H PARENT 3 5
REMARK Flexibility Score: inf
ROOT
ATOM      1  C   UNL     1       8.465  -0.592  -2.137  1.00  0.00     0.127 C 
ENDROOT
BRANCH   1   2
ATOM      2  C   UNL     1       8.495  -1.855  -2.911  1.00  0.00     0.303 C 
ATOM      3  O   UNL     1       9.572  -2.467  -3.116  1.00  0.00    -0.252 OA
BRANCH   2   4
ATOM      4  O   UNL     1       7.331  -2.397  -3.432  1.00  0.00    -0.481 OA
ATOM      5  H   UNL     1       6.636  -2.798  -2.795  1.00  0.00     0.296 HD
ENDBRANCH   2   4
ENDBRANCH   1   2
BRANCH   1   6
ATOM      6  C   UNL     1       7.058  -0.075  -2.135  1.00  0.00     0.047 C 
BRANCH   6   7
ATOM      7  C   UNL     1       6.473   0.048  -0.801  1.00  0.00    -0.047 A 
ATOM      8  C   UNL     1       6.548  -0.990   0.099  1.00  0.00     0.004 A 
ATOM      9  C   UNL     1       5.843   1.219  -0.449  1.00  0.00     0.004 A 
ATOM     10  C   UNL     1       5.968  -0.803   1.355  1.00  0.00     0.000 A 
ATOM     11  C   UNL     1       5.269   1.403   0.793  1.00  0.00     0.000 A 
ATOM     12  C   UNL     1       5.340   0.368   1.700  1.00  0.00     0.000 A 
ENDBRANCH   6   7
ENDBRANCH   1   6
TORSDOF 4
ENDMDL
MODEL 2
REMARK VINA RESULT:      -7.2      0.142      1.734
REMARK SMILES O=C(O)CCc1ccccc1
REMARK SMILES IDX 4 1 2 2 1 3 3 4 5 6 6 7 7 8 11 9 8 10 10 11 9 12
REMARK H PARENT 3 5
REMARK Flexibility Score: inf
ROOT
ATOM      1  C   UNL     1       8.398  -0.640  -2.062  1.00  0.00     0.127 C 
ENDROOT
BRANCH   1   2
ATOM      2  C   UNL     1       8.380  -1.890  -2.857  1.00  0.00     0.303 C 
ATOM      3  O   UNL     1       7.298  -2.410  -3.227  1.00  0.00    -0.252 OA
BRANCH   2   4
ATOM      4  O   UNL     1       9.560  -2.521  -3.216  1.00  0.00    -0.481 OA
ATOM      5  H   UNL     1      10.454  -2.069  -3.003  1.00  0.00     0.296 HD
ENDBRANCH   2   4
ENDBRANCH   1   2
BRANCH   1   6
ATOM      6  C   UNL     1       7.014  -0.065  -2.057  1.00  0.00     0.047 C 
BRANCH   6   7
ATOM      7  C   UNL     1       6.429   0.063  -0.723  1.00  0.00    -0.047 A 
ATOM      8  C   UNL     1       5.793   1.222  -0.343  1.00  0.00     0.004 A 
ATOM      9  C   UNL     1       6.518  -0.994   0.153  1.00  0.00     0.004 A 
ATOM     10  C   UNL     1       5.256   1.273   0.946  1.00  0.00     0.000 A 
ATOM     11  C   UNL     1       5.986  -0.941   1.426  1.00  0.00     0.000 A 
ATOM     12  C   UNL     1       5.348   0.216   1.816  1.00  0.00     0.000 A 
ENDBRANCH   6   7
ENDBRANCH   1   6
TORSDOF 4
ENDMDL
MODEL 3
REMARK VINA RESULT:      -7.0      0.841      1.037
REMARK SMILES O=C(O)CCc1ccccc1
REMARK SMILES IDX 4 1 2 2 1 3 3 4 5 6 6 7 7 8 11 9 8 10 10 11 9 12
REMARK H PARENT 3 5
REMARK Flexibility Score: inf
ROOT
ATOM      1  C   UNL     1       7.260  -1.308  -2.300  1.00  0.00     0.127 C 
ENDROOT
BRANCH   1   2
ATOM      2  C   UNL     1       8.721  -1.380  -2.541  1.00  0.00     0.303 C 
ATOM      3  O   UNL     1       9.500  -0.511  -2.079  1.00  0.00    -0.252 OA
BRANCH   2   4
ATOM      4  O   UNL     1       9.267  -2.413  -3.286  1.00  0.00    -0.481 OA
ATOM      5  H   UNL     1       9.581  -3.263  -2.809  1.00  0.00     0.296 HD
ENDBRANCH   2   4
ENDBRANCH   1   2
BRANCH   1   6
ATOM      6  C   UNL     1       6.917   0.095  -1.902  1.00  0.00     0.047 C 
BRANCH   6   7
ATOM      7  C   UNL     1       6.300   0.204  -0.581  1.00  0.00    -0.047 A 
ATOM      8  C   UNL     1       6.396  -0.825   0.327  1.00  0.00     0.004 A 
ATOM      9  C   UNL     1       5.619   1.353  -0.251  1.00  0.00     0.004 A 
ATOM     10  C   UNL     1       5.783  -0.651   1.570  1.00  0.00     0.000 A 
ATOM     11  C   UNL     1       5.013   1.523   0.978  1.00  0.00     0.000 A 
ATOM     12  C   UNL     1       5.104   0.497   1.893  1.00  0.00     0.000 A 
ENDBRANCH   6   7
ENDBRANCH   1   6
TORSDOF 4
ENDMDL
MODEL 4
REMARK VINA RESULT:      -6.9      3.368      5.078
REMARK SMILES O=C(O)CCc1ccccc1
REMARK SMILES IDX 4 1 2 2 1 3 3 4 5 6 6 7 7 8 11 9 8 10 10 11 9 12
REMARK H PARENT 3 5
REMARK Flexibility Score: inf
ROOT
ATOM      1  C   UNL     1       4.975   1.712   0.667  1.00  0.00     0.127 C 
ENDROOT
BRANCH   1   2
ATOM      2  C   UNL     1       4.472   1.076   1.907  1.00  0.00     0.303 C 
ATOM      3  O   UNL     1       5.128   0.177   2.490  1.00  0.00    -0.252 OA
BRANCH   2   4
ATOM      4  O   UNL     1       3.259   1.456   2.459  1.00  0.00    -0.481 OA
ATOM      5  H   UNL     1       3.202   2.330   2.988  1.00  0.00     0.296 HD
ENDBRANCH   2   4
ENDBRANCH   1   2
BRANCH   1   6
ATOM      6  C   UNL     1       6.472   1.747   0.729  1.00  0.00     0.047 C 
BRANCH   6   7
ATOM      7  C   UNL     1       7.129   0.995  -0.338  1.00  0.00    -0.047 A 
ATOM      8  C   UNL     1       8.449   1.223  -0.649  1.00  0.00     0.004 A 
ATOM      9  C   UNL     1       6.411   0.049  -1.033  1.00  0.00     0.004 A 
ATOM     10  C   UNL     1       9.012   0.468  -1.680  1.00  0.00     0.000 A 
ATOM     11  C   UNL     1       6.969  -0.696  -2.053  1.00  0.00     0.000 A 
ATOM     12  C   UNL     1       8.291  -0.473  -2.371  1.00  0.00     0.000 A 
ENDBRANCH   6   7
ENDBRANCH   1   6
TORSDOF 4
ENDMDL
MODEL 5
REMARK VINA RESULT:      -6.6      1.959      2.228
REMARK SMILES O=C(O)CCc1ccccc1
REMARK SMILES IDX 4 1 2 2 1 3 3 4 5 6 6 7 7 8 11 9 8 10 10 11 9 12
REMARK H PARENT 3 5
REMARK Flexibility Score: inf
ROOT
ATOM      1  C   UNL     1       8.110   0.410  -1.992  1.00  0.00     0.127 C 
ENDROOT
BRANCH   1   2
ATOM      2  C   UNL     1       9.346   0.398  -1.173  1.00  0.00     0.303 C 
ATOM      3  O   UNL     1       9.469  -0.376  -0.192  1.00  0.00    -0.252 OA
BRANCH   2   4
ATOM      4  O   UNL     1      10.402   1.246  -1.470  1.00  0.00    -0.481 OA
ATOM      5  H   UNL     1      10.606   1.468  -2.448  1.00  0.00     0.296 HD
ENDBRANCH   2   4
ENDBRANCH   1   2
BRANCH   1   6
ATOM      6  C   UNL     1       7.126  -0.534  -1.371  1.00  0.00     0.047 C 
BRANCH   6   7
ATOM      7  C   UNL     1       6.306   0.068  -0.321  1.00  0.00    -0.047 A 
ATOM      8  C   UNL     1       6.086  -0.593   0.865  1.00  0.00     0.004 A 
ATOM      9  C   UNL     1       5.754   1.311  -0.530  1.00  0.00     0.004 A 
ATOM     10  C   UNL     1       5.294   0.043   1.824  1.00  0.00     0.000 A 
ATOM     11  C   UNL     1       4.971   1.937   0.419  1.00  0.00     0.000 A 
ATOM     12  C   UNL     1       4.745   1.282   1.610  1.00  0.00     0.000 A 
ENDBRANCH   6   7
ENDBRANCH   1   6
TORSDOF 4
ENDMDL
