@<TRIPOS>MOLECULE
/home/cewinharhar/GITHUB/reincatalyze/data/processed/docking_pred/2023-Apr-26-1657_maxeplen10_maxtrainstep1000_exh32_gamma099_lrac9e-4_lrcr1e-3/4dfe2a4ebf2cd2c58b23ebebd9c83ff91bb12173_ligand_2.pdbqt
 12 12 0 0 0
SMALL
GASTEIGER

@<TRIPOS>ATOM
      1  C          4.9750    1.7120    0.6670 C.3     1  UNL1        0.1270
      2  C          4.4720    1.0760    1.9070 C.2     1  UNL1        0.3030
      3  O          5.1280    0.1770    2.4900 O.2     1  UNL1       -0.2520
      4  O          3.2590    1.4560    2.4590 O.3     1  UNL1       -0.4810
      5  H          3.2020    2.3300    2.9880 H       1  UNL1        0.2960
      6  C          6.4720    1.7470    0.7290 C.3     1  UNL1        0.0470
      7  C          7.1290    0.9950   -0.3380 C.2     1  UNL1       -0.0470
      8  C          8.4490    1.2230   -0.6490 C.2     1  UNL1        0.0040
      9  C          6.4110    0.0490   -1.0330 C.2     1  UNL1        0.0040
     10  C          9.0120    0.4680   -1.6800 C.2     1  UNL1        0.0000
     11  C          6.9690   -0.6960   -2.0530 C.2     1  UNL1        0.0000
     12  C          8.2910   -0.4730   -2.3710 C.2     1  UNL1        0.0000
@<TRIPOS>BOND
     1    12    11    2
     2    12    10    1
     3    11     9    1
     4    10     8    2
     5     9     7    2
     6     8     7    1
     7     7     6    1
     8     1     6    1
     9     1     2    1
    10     2     4    1
    11     2     3    2
    12     4     5    1
