@<TRIPOS>MOLECULE
/home/cewinharhar/GITHUB/reincatalyze/data/processed/docking_pred/2023-Apr-26-1657_maxeplen10_maxtrainstep1000_exh32_gamma099_lrac9e-4_lrcr1e-3/4e2e003c692afcef440410ba16f5bc8e831af6c9_ligand_2.pdbqt
 12 12 0 0 0
SMALL
GASTEIGER

@<TRIPOS>ATOM
      1  C          8.4540   -0.6540   -2.1030 C.3     1  UNL1        0.1270
      2  C          8.4700   -1.9130   -2.8850 C.2     1  UNL1        0.3030
      3  O          9.5360   -2.5520   -3.0680 O.2     1  UNL1       -0.2520
      4  O          7.3060   -2.4210   -3.4370 O.3     1  UNL1       -0.4810
      5  H          6.8600   -3.2360   -3.0060 H       1  UNL1        0.2960
      6  C          7.0500   -0.1310   -2.0830 C.3     1  UNL1        0.0470
      7  C          6.4890    0.0130   -0.7400 C.2     1  UNL1       -0.0470
      8  C          6.6090   -0.9980    0.1850 C.2     1  UNL1        0.0040
      9  C          5.8370    1.1780   -0.4070 C.2     1  UNL1        0.0040
     10  C          6.0500   -0.7910    1.4480 C.2     1  UNL1        0.0000
     11  C          5.2850    1.3810    0.8420 C.2     1  UNL1        0.0000
     12  C          5.4000    0.3730    1.7750 C.2     1  UNL1        0.0000
@<TRIPOS>BOND
     1     4     5    1
     2     4     2    1
     3     3     2    2
     4     2     1    1
     5     1     6    1
     6     6     7    1
     7     7     9    2
     8     7     8    1
     9     9    11    1
    10     8    10    2
    11    11    12    2
    12    10    12    1
