@<TRIPOS>MOLECULE
/home/cewinharhar/GITHUB/reincatalyze/data/processed/docking_pred/2023-Apr-26-1657_maxeplen10_maxtrainstep1000_exh32_gamma099_lrac9e-4_lrcr1e-3/4e2e003c692afcef440410ba16f5bc8e831af6c9_ligand_2.pdbqt
 12 12 0 0 0
SMALL
GASTEIGER

@<TRIPOS>ATOM
      1  C          5.4390    2.8970   -0.0040 C.3     1  UNL1        0.1270
      2  C          6.2470    3.8520    0.7910 C.2     1  UNL1        0.3030
      3  O          6.9060    4.7660    0.2360 O.2     1  UNL1       -0.2520
      4  O          6.2960    3.7620    2.1730 O.3     1  UNL1       -0.4810
      5  H          7.1330    4.0860    2.6660 H       1  UNL1        0.2960
      6  C          4.9070    1.8460    0.9220 C.3     1  UNL1        0.0470
      7  C          5.6960    0.6160    0.9400 C.2     1  UNL1       -0.0470
      8  C          6.3850    0.2050   -0.1770 C.2     1  UNL1        0.0040
      9  C          5.7450   -0.1330    2.0930 C.2     1  UNL1        0.0040
     10  C          7.1190   -0.9800   -0.0870 C.2     1  UNL1        0.0000
     11  C          6.4710   -1.3040    2.1800 C.2     1  UNL1        0.0000
     12  C          7.1640   -1.7230    1.0650 C.2     1  UNL1        0.0000
@<TRIPOS>BOND
     1     8    10    1
     2     8     7    2
     3    10    12    2
     4     1     2    1
     5     1     6    1
     6     3     2    2
     7     2     4    1
     8     6     7    1
     9     7     9    1
    10    12    11    1
    11     9    11    2
    12     4     5    1
