@<TRIPOS>MOLECULE
/home/cewinharhar/GITHUB/reincatalyze/data/processed/docking_pred/2023-Apr-26-1657_maxeplen10_maxtrainstep1000_exh32_gamma099_lrac9e-4_lrcr1e-3/4e2e003c692afcef440410ba16f5bc8e831af6c9_ligand_2.pdbqt
 12 12 0 0 0
SMALL
GASTEIGER

@<TRIPOS>ATOM
      1  C          8.4190   -0.5530   -2.2440 C.3     1  UNL1        0.1270
      2  C          8.4870   -1.8620   -2.9340 C.2     1  UNL1        0.3030
      3  O          9.5830   -2.4510   -3.1070 O.2     1  UNL1       -0.2520
      4  O          7.3390   -2.4740   -3.4110 O.3     1  UNL1       -0.4810
      5  H          6.8060   -2.0250   -4.1610 H       1  UNL1        0.2960
      6  C          6.9830   -0.1270   -2.1810 C.3     1  UNL1        0.0470
      7  C          6.4750    0.0500   -0.8220 C.2     1  UNL1       -0.0470
      8  C          5.8680    1.2260   -0.4460 C.2     1  UNL1        0.0040
      9  C          6.6070   -0.9770    0.0830 C.2     1  UNL1        0.0040
     10  C          5.4050    1.3250    0.8680 C.2     1  UNL1        0.0000
     11  C          6.1480   -0.8780    1.3820 C.2     1  UNL1        0.0000
     12  C          5.5400    0.2970    1.7670 C.2     1  UNL1        0.0000
@<TRIPOS>BOND
     1     5     4    1
     2     4     2    1
     3     3     2    2
     4     2     1    1
     5     1     6    1
     6     6     7    1
     7     7     8    2
     8     7     9    1
     9     8    10    1
    10     9    11    2
    11    10    12    2
    12    11    12    1
