MODEL 1
REMARK VINA RESULT:      -7.3      0.000      0.000
REMARK SMILES O=C(O)CCc1ccccc1
REMARK SMILES IDX 4 1 2 2 1 3 3 4 5 6 6 7 7 8 11 9 8 10 10 11 9 12
REMARK H PARENT 3 5
REMARK Flexibility Score: inf
ROOT
ATOM      1  C   UNL     1       8.454  -0.654  -2.103  1.00  0.00     0.127 C 
ENDROOT
BRANCH   1   2
ATOM      2  C   UNL     1       8.470  -1.913  -2.885  1.00  0.00     0.303 C 
ATOM      3  O   UNL     1       9.536  -2.552  -3.068  1.00  0.00    -0.252 OA
BRANCH   2   4
ATOM      4  O   UNL     1       7.306  -2.421  -3.437  1.00  0.00    -0.481 OA
ATOM      5  H   UNL     1       6.860  -3.236  -3.006  1.00  0.00     0.296 HD
ENDBRANCH   2   4
ENDBRANCH   1   2
BRANCH   1   6
ATOM      6  C   UNL     1       7.050  -0.131  -2.083  1.00  0.00     0.047 C 
BRANCH   6   7
ATOM      7  C   UNL     1       6.489   0.013  -0.740  1.00  0.00    -0.047 A 
ATOM      8  C   UNL     1       6.609  -0.998   0.185  1.00  0.00     0.004 A 
ATOM      9  C   UNL     1       5.837   1.178  -0.407  1.00  0.00     0.004 A 
ATOM     10  C   UNL     1       6.050  -0.791   1.448  1.00  0.00     0.000 A 
ATOM     11  C   UNL     1       5.285   1.381   0.842  1.00  0.00     0.000 A 
ATOM     12  C   UNL     1       5.400   0.373   1.775  1.00  0.00     0.000 A 
ENDBRANCH   6   7
ENDBRANCH   1   6
TORSDOF 4
ENDMDL
MODEL 2
REMARK VINA RESULT:      -7.3      0.120      1.441
REMARK SMILES O=C(O)CCc1ccccc1
REMARK SMILES IDX 4 1 2 2 1 3 3 4 5 6 6 7 7 8 11 9 8 10 10 11 9 12
REMARK H PARENT 3 5
REMARK Flexibility Score: inf
ROOT
ATOM      1  C   UNL     1       8.419  -0.553  -2.244  1.00  0.00     0.127 C 
ENDROOT
BRANCH   1   2
ATOM      2  C   UNL     1       8.487  -1.862  -2.934  1.00  0.00     0.303 C 
ATOM      3  O   UNL     1       9.583  -2.451  -3.107  1.00  0.00    -0.252 OA
BRANCH   2   4
ATOM      4  O   UNL     1       7.339  -2.474  -3.411  1.00  0.00    -0.481 OA
ATOM      5  H   UNL     1       6.806  -2.025  -4.161  1.00  0.00     0.296 HD
ENDBRANCH   2   4
ENDBRANCH   1   2
BRANCH   1   6
ATOM      6  C   UNL     1       6.983  -0.127  -2.181  1.00  0.00     0.047 C 
BRANCH   6   7
ATOM      7  C   UNL     1       6.475   0.050  -0.822  1.00  0.00    -0.047 A 
ATOM      8  C   UNL     1       5.868   1.226  -0.446  1.00  0.00     0.004 A 
ATOM      9  C   UNL     1       6.607  -0.977   0.083  1.00  0.00     0.004 A 
ATOM     10  C   UNL     1       5.405   1.325   0.868  1.00  0.00     0.000 A 
ATOM     11  C   UNL     1       6.148  -0.878   1.382  1.00  0.00     0.000 A 
ATOM     12  C   UNL     1       5.540   0.297   1.767  1.00  0.00     0.000 A 
ENDBRANCH   6   7
ENDBRANCH   1   6
TORSDOF 4
ENDMDL
MODEL 3
REMARK VINA RESULT:      -7.2      0.606      1.058
REMARK SMILES O=C(O)CCc1ccccc1
REMARK SMILES IDX 4 1 2 2 1 3 3 4 5 6 6 7 7 8 11 9 8 10 10 11 9 12
REMARK H PARENT 3 5
REMARK Flexibility Score: inf
ROOT
ATOM      1  C   UNL     1       8.219  -0.887  -1.901  1.00  0.00     0.127 C 
ENDROOT
BRANCH   1   2
ATOM      2  C   UNL     1       8.393  -2.011  -2.851  1.00  0.00     0.303 C 
ATOM      3  O   UNL     1       9.528  -2.491  -3.090  1.00  0.00    -0.252 OA
BRANCH   2   4
ATOM      4  O   UNL     1       7.303  -2.563  -3.504  1.00  0.00    -0.481 OA
ATOM      5  H   UNL     1       6.386  -2.546  -3.050  1.00  0.00     0.296 HD
ENDBRANCH   2   4
ENDBRANCH   1   2
BRANCH   1   6
ATOM      6  C   UNL     1       7.433  -1.381  -0.725  1.00  0.00     0.047 C 
BRANCH   6   7
ATOM      7  C   UNL     1       6.589  -0.363  -0.103  1.00  0.00    -0.047 A 
ATOM      8  C   UNL     1       6.132  -0.519   1.185  1.00  0.00     0.004 A 
ATOM      9  C   UNL     1       6.256   0.763  -0.820  1.00  0.00     0.004 A 
ATOM     10  C   UNL     1       5.331   0.495   1.716  1.00  0.00     0.000 A 
ATOM     11  C   UNL     1       5.464   1.764  -0.294  1.00  0.00     0.000 A 
ATOM     12  C   UNL     1       5.001   1.615   0.995  1.00  0.00     0.000 A 
ENDBRANCH   6   7
ENDBRANCH   1   6
TORSDOF 4
ENDMDL
MODEL 4
REMARK VINA RESULT:      -6.8      3.369      5.073
REMARK SMILES O=C(O)CCc1ccccc1
REMARK SMILES IDX 4 1 2 2 1 3 3 4 5 6 6 7 7 8 11 9 8 10 10 11 9 12
REMARK H PARENT 3 5
REMARK Flexibility Score: inf
ROOT
ATOM      1  C   UNL     1       5.045   1.775   0.663  1.00  0.00     0.127 C 
ENDROOT
BRANCH   1   2
ATOM      2  C   UNL     1       4.519   1.124   1.886  1.00  0.00     0.303 C 
ATOM      3  O   UNL     1       5.171   0.230   2.480  1.00  0.00    -0.252 OA
BRANCH   2   4
ATOM      4  O   UNL     1       3.287   1.485   2.408  1.00  0.00    -0.481 OA
ATOM      5  H   UNL     1       3.242   1.902   3.342  1.00  0.00     0.296 HD
ENDBRANCH   2   4
ENDBRANCH   1   2
BRANCH   1   6
ATOM      6  C   UNL     1       6.542   1.754   0.726  1.00  0.00     0.047 C 
BRANCH   6   7
ATOM      7  C   UNL     1       7.173   1.009  -0.361  1.00  0.00    -0.047 A 
ATOM      8  C   UNL     1       8.501   1.198  -0.666  1.00  0.00     0.004 A 
ATOM      9  C   UNL     1       6.423   0.108  -1.082  1.00  0.00     0.004 A 
ATOM     10  C   UNL     1       9.038   0.451  -1.717  1.00  0.00     0.000 A 
ATOM     11  C   UNL     1       6.955  -0.629  -2.121  1.00  0.00     0.000 A 
ATOM     12  C   UNL     1       8.284  -0.445  -2.433  1.00  0.00     0.000 A 
ENDBRANCH   6   7
ENDBRANCH   1   6
TORSDOF 4
ENDMDL
MODEL 5
REMARK VINA RESULT:      -6.7      3.827      4.980
REMARK SMILES O=C(O)CCc1ccccc1
REMARK SMILES IDX 4 1 2 2 1 3 3 4 5 6 6 7 7 8 11 9 8 10 10 11 9 12
REMARK H PARENT 3 5
REMARK Flexibility Score: inf
ROOT
ATOM      1  C   UNL     1       5.439   2.897  -0.004  1.00  0.00     0.127 C 
ENDROOT
BRANCH   1   2
ATOM      2  C   UNL     1       6.247   3.852   0.791  1.00  0.00     0.303 C 
ATOM      3  O   UNL     1       6.906   4.766   0.236  1.00  0.00    -0.252 OA
BRANCH   2   4
ATOM      4  O   UNL     1       6.296   3.762   2.173  1.00  0.00    -0.481 OA
ATOM      5  H   UNL     1       7.133   4.086   2.666  1.00  0.00     0.296 HD
ENDBRANCH   2   4
ENDBRANCH   1   2
BRANCH   1   6
ATOM      6  C   UNL     1       4.907   1.846   0.922  1.00  0.00     0.047 C 
BRANCH   6   7
ATOM      7  C   UNL     1       5.696   0.616   0.940  1.00  0.00    -0.047 A 
ATOM      8  C   UNL     1       6.385   0.205  -0.177  1.00  0.00     0.004 A 
ATOM      9  C   UNL     1       5.745  -0.133   2.093  1.00  0.00     0.004 A 
ATOM     10  C   UNL     1       7.119  -0.980  -0.087  1.00  0.00     0.000 A 
ATOM     11  C   UNL     1       6.471  -1.304   2.180  1.00  0.00     0.000 A 
ATOM     12  C   UNL     1       7.164  -1.723   1.065  1.00  0.00     0.000 A 
ENDBRANCH   6   7
ENDBRANCH   1   6
TORSDOF 4
ENDMDL
