@<TRIPOS>MOLECULE
/home/cewinharhar/GITHUB/reincatalyze/data/processed/docking_pred/2023-Apr-26-1657_maxeplen10_maxtrainstep1000_exh32_gamma099_lrac9e-4_lrcr1e-3/4e2e003c692afcef440410ba16f5bc8e831af6c9_ligand_2.pdbqt
 12 12 0 0 0
SMALL
GASTEIGER

@<TRIPOS>ATOM
      1  C          8.2190   -0.8870   -1.9010 C.3     1  UNL1        0.1270
      2  C          8.3930   -2.0110   -2.8510 C.2     1  UNL1        0.3030
      3  O          9.5280   -2.4910   -3.0900 O.2     1  UNL1       -0.2520
      4  O          7.3030   -2.5630   -3.5040 O.3     1  UNL1       -0.4810
      5  H          6.3860   -2.5460   -3.0500 H       1  UNL1        0.2960
      6  C          7.4330   -1.3810   -0.7250 C.3     1  UNL1        0.0470
      7  C          6.5890   -0.3630   -0.1030 C.2     1  UNL1       -0.0470
      8  C          6.1320   -0.5190    1.1850 C.2     1  UNL1        0.0040
      9  C          6.2560    0.7630   -0.8200 C.2     1  UNL1        0.0040
     10  C          5.3310    0.4950    1.7160 C.2     1  UNL1        0.0000
     11  C          5.4640    1.7640   -0.2940 C.2     1  UNL1        0.0000
     12  C          5.0010    1.6150    0.9950 C.2     1  UNL1        0.0000
@<TRIPOS>BOND
     1     4     5    1
     2     4     2    1
     3     3     2    2
     4     2     1    1
     5     1     6    1
     6     9    11    1
     7     9     7    2
     8     6     7    1
     9    11    12    2
    10     7     8    1
    11    12    10    1
    12     8    10    2
