@<TRIPOS>MOLECULE
/home/cewinharhar/GITHUB/reincatalyze/data/processed/docking_pred/2023-Apr-26-1657_maxeplen10_maxtrainstep1000_exh32_gamma099_lrac9e-4_lrcr1e-3/4e2e003c692afcef440410ba16f5bc8e831af6c9_ligand_2.pdbqt
 12 12 0 0 0
SMALL
GASTEIGER

@<TRIPOS>ATOM
      1  C          5.0450    1.7750    0.6630 C.3     1  UNL1        0.1270
      2  C          4.5190    1.1240    1.8860 C.2     1  UNL1        0.3030
      3  O          5.1710    0.2300    2.4800 O.2     1  UNL1       -0.2520
      4  O          3.2870    1.4850    2.4080 O.3     1  UNL1       -0.4810
      5  H          3.2420    1.9020    3.3420 H       1  UNL1        0.2960
      6  C          6.5420    1.7540    0.7260 C.3     1  UNL1        0.0470
      7  C          7.1730    1.0090   -0.3610 C.2     1  UNL1       -0.0470
      8  C          8.5010    1.1980   -0.6660 C.2     1  UNL1        0.0040
      9  C          6.4230    0.1080   -1.0820 C.2     1  UNL1        0.0040
     10  C          9.0380    0.4510   -1.7170 C.2     1  UNL1        0.0000
     11  C          6.9550   -0.6290   -2.1210 C.2     1  UNL1        0.0000
     12  C          8.2840   -0.4450   -2.4330 C.2     1  UNL1        0.0000
@<TRIPOS>BOND
     1    12    11    2
     2    12    10    1
     3    11     9    1
     4    10     8    2
     5     9     7    2
     6     8     7    1
     7     7     6    1
     8     1     6    1
     9     1     2    1
    10     2     4    1
    11     2     3    2
    12     4     5    1
