@<TRIPOS>MOLECULE
/home/cewinharhar/GITHUB/reincatalyze/data/processed/docking_pred/2023-Apr-26-1657_maxeplen10_maxtrainstep1000_exh32_gamma099_lrac9e-4_lrcr1e-3/4f8338f1f65f27d68c3e57a6b5041c9c59ec4c55_ligand_2.pdbqt
 12 12 0 0 0
SMALL
GASTEIGER

@<TRIPOS>ATOM
      1  C          8.4520   -0.6180   -2.1450 C.3     1  UNL1        0.1270
      2  C          8.4880   -1.8880   -2.9080 C.2     1  UNL1        0.3030
      3  O          9.5680   -2.4980   -3.1070 O.2     1  UNL1       -0.2520
      4  O          7.3260   -2.4390   -3.4240 O.3     1  UNL1       -0.4810
      5  H          7.3800   -3.3070   -3.9650 H       1  UNL1        0.2960
      6  C          7.0390   -0.1210   -2.1240 C.3     1  UNL1        0.0470
      7  C          6.4880    0.0480   -0.7810 C.2     1  UNL1       -0.0470
      8  C          6.6140   -0.9460    0.1610 C.2     1  UNL1        0.0040
      9  C          5.8380    1.2190   -0.4640 C.2     1  UNL1        0.0040
     10  C          6.0640   -0.7160    1.4240 C.2     1  UNL1        0.0000
     11  C          5.2950    1.4440    0.7850 C.2     1  UNL1        0.0000
     12  C          5.4170    0.4530    1.7350 C.2     1  UNL1        0.0000
@<TRIPOS>BOND
     1     5     4    1
     2     4     2    1
     3     3     2    2
     4     2     1    1
     5     1     6    1
     6     6     7    1
     7     7     9    2
     8     7     8    1
     9     9    11    1
    10     8    10    2
    11    11    12    2
    12    10    12    1
