@<TRIPOS>MOLECULE
/home/cewinharhar/GITHUB/reincatalyze/data/processed/docking_pred/2023-Apr-26-1657_maxeplen10_maxtrainstep1000_exh32_gamma099_lrac9e-4_lrcr1e-3/4f8338f1f65f27d68c3e57a6b5041c9c59ec4c55_ligand_2.pdbqt
 12 12 0 0 0
SMALL
GASTEIGER

@<TRIPOS>ATOM
      1  C          8.1610    0.2680   -2.1050 C.3     1  UNL1        0.1270
      2  C          9.3400    0.3620   -1.2130 C.2     1  UNL1        0.3030
      3  O          9.4670   -0.3950   -0.2190 O.2     1  UNL1       -0.2520
      4  O         10.3390    1.2920   -1.4520 O.3     1  UNL1       -0.4810
      5  H         10.0840    2.2270   -1.7840 H       1  UNL1        0.2960
      6  C          7.1250   -0.5760   -1.4280 C.3     1  UNL1        0.0470
      7  C          6.3450    0.1360   -0.4170 C.2     1  UNL1       -0.0470
      8  C          5.8010    1.3700   -0.6880 C.2     1  UNL1        0.0040
      9  C          6.1570   -0.4430    0.8170 C.2     1  UNL1        0.0040
     10  C          5.0670    1.9920    0.3240 C.2     1  UNL1        0.0000
     11  C          5.4320    0.1730    1.8170 C.2     1  UNL1        0.0000
     12  C          4.8840    1.4100    1.5530 C.2     1  UNL1        0.0000
@<TRIPOS>BOND
     1     1     6    1
     2     1     2    1
     3     5     4    1
     4     4     2    1
     5     6     7    1
     6     2     3    2
     7     8     7    2
     8     8    10    1
     9     7     9    1
    10    10    12    2
    11     9    11    2
    12    12    11    1
