@<TRIPOS>MOLECULE
/home/cewinharhar/GITHUB/reincatalyze/data/processed/docking_pred/2023-Apr-26-1657_maxeplen10_maxtrainstep1000_exh32_gamma099_lrac9e-4_lrcr1e-3/4f8338f1f65f27d68c3e57a6b5041c9c59ec4c55_ligand_2.pdbqt
 12 12 0 0 0
SMALL
GASTEIGER

@<TRIPOS>ATOM
      1  C          7.9030   -2.2970    0.8430 C.3     1  UNL1        0.1270
      2  C          8.7530   -3.4010    0.3380 C.2     1  UNL1        0.3030
      3  O          9.6430   -3.9190    1.0560 O.2     1  UNL1       -0.2520
      4  O          8.5870   -3.8930   -0.9470 O.3     1  UNL1       -0.4810
      5  H          8.6100   -3.2440   -1.7390 H       1  UNL1        0.2960
      6  C          7.4490   -1.4780   -0.3270 C.3     1  UNL1        0.0470
      7  C          6.5970   -0.3470    0.0340 C.2     1  UNL1       -0.0470
      8  C          6.3570    0.6680   -0.8630 C.2     1  UNL1        0.0040
      9  C          6.0310   -0.3050    1.2880 C.2     1  UNL1        0.0040
     10  C          5.5320    1.7170   -0.4510 C.2     1  UNL1        0.0000
     11  C          5.2170    0.7330    1.6940 C.2     1  UNL1        0.0000
     12  C          4.9720    1.7530    0.8010 C.2     1  UNL1        0.0000
@<TRIPOS>BOND
     1     5     4    1
     2     4     2    1
     3     8    10    1
     4     8     7    2
     5    10    12    2
     6     6     7    1
     7     6     1    1
     8     7     9    1
     9     2     1    1
    10     2     3    2
    11    12    11    1
    12     9    11    2
