@<TRIPOS>MOLECULE
/home/cewinharhar/GITHUB/reincatalyze/data/processed/docking_pred/2023-Apr-26-1657_maxeplen10_maxtrainstep1000_exh32_gamma099_lrac9e-4_lrcr1e-3/4f8338f1f65f27d68c3e57a6b5041c9c59ec4c55_ligand_2.pdbqt
 12 12 0 0 0
SMALL
GASTEIGER

@<TRIPOS>ATOM
      1  C          8.4000   -0.6460   -2.0890 C.3     1  UNL1        0.1270
      2  C          8.3720   -1.8960   -2.8860 C.2     1  UNL1        0.3030
      3  O          7.2860   -2.4100   -3.2510 O.2     1  UNL1       -0.2520
      4  O          9.5480   -2.5320   -3.2500 O.3     1  UNL1       -0.4810
      5  H         10.4170   -2.2940   -2.7650 H       1  UNL1        0.2960
      6  C          7.0190   -0.0640   -2.0780 C.3     1  UNL1        0.0470
      7  C          6.4550    0.1000   -0.7390 C.2     1  UNL1       -0.0470
      8  C          5.8070    1.2610   -0.3860 C.2     1  UNL1        0.0040
      9  C          6.5750   -0.9250    0.1700 C.2     1  UNL1        0.0040
     10  C          5.2920    1.3480    0.9090 C.2     1  UNL1        0.0000
     11  C          6.0650   -0.8380    1.4510 C.2     1  UNL1        0.0000
     12  C          5.4160    0.3230    1.8120 C.2     1  UNL1        0.0000
@<TRIPOS>BOND
     1     3     2    2
     2     4     2    1
     3     4     5    1
     4     2     1    1
     5     1     6    1
     6     6     7    1
     7     7     8    2
     8     7     9    1
     9     8    10    1
    10     9    11    2
    11    10    12    2
    12    11    12    1
