MODEL 1
REMARK VINA RESULT:      -7.4      0.000      0.000
REMARK SMILES O=C(O)CCc1ccccc1
REMARK SMILES IDX 4 1 2 2 1 3 3 4 5 6 6 7 7 8 11 9 8 10 10 11 9 12
REMARK H PARENT 3 5
REMARK Flexibility Score: inf
ROOT
ATOM      1  C   UNL     1       8.452  -0.618  -2.145  1.00  0.00     0.127 C 
ENDROOT
BRANCH   1   2
ATOM      2  C   UNL     1       8.488  -1.888  -2.908  1.00  0.00     0.303 C 
ATOM      3  O   UNL     1       9.568  -2.498  -3.107  1.00  0.00    -0.252 OA
BRANCH   2   4
ATOM      4  O   UNL     1       7.326  -2.439  -3.424  1.00  0.00    -0.481 OA
ATOM      5  H   UNL     1       7.380  -3.307  -3.965  1.00  0.00     0.296 HD
ENDBRANCH   2   4
ENDBRANCH   1   2
BRANCH   1   6
ATOM      6  C   UNL     1       7.039  -0.121  -2.124  1.00  0.00     0.047 C 
BRANCH   6   7
ATOM      7  C   UNL     1       6.488   0.048  -0.781  1.00  0.00    -0.047 A 
ATOM      8  C   UNL     1       6.614  -0.946   0.161  1.00  0.00     0.004 A 
ATOM      9  C   UNL     1       5.838   1.219  -0.464  1.00  0.00     0.004 A 
ATOM     10  C   UNL     1       6.064  -0.716   1.424  1.00  0.00     0.000 A 
ATOM     11  C   UNL     1       5.295   1.444   0.785  1.00  0.00     0.000 A 
ATOM     12  C   UNL     1       5.417   0.453   1.735  1.00  0.00     0.000 A 
ENDBRANCH   6   7
ENDBRANCH   1   6
TORSDOF 4
ENDMDL
MODEL 2
REMARK VINA RESULT:      -7.3      0.121      1.732
REMARK SMILES O=C(O)CCc1ccccc1
REMARK SMILES IDX 4 1 2 2 1 3 3 4 5 6 6 7 7 8 11 9 8 10 10 11 9 12
REMARK H PARENT 3 5
REMARK Flexibility Score: inf
ROOT
ATOM      1  C   UNL     1       8.400  -0.646  -2.089  1.00  0.00     0.127 C 
ENDROOT
BRANCH   1   2
ATOM      2  C   UNL     1       8.372  -1.896  -2.886  1.00  0.00     0.303 C 
ATOM      3  O   UNL     1       7.286  -2.410  -3.251  1.00  0.00    -0.252 OA
BRANCH   2   4
ATOM      4  O   UNL     1       9.548  -2.532  -3.250  1.00  0.00    -0.481 OA
ATOM      5  H   UNL     1      10.417  -2.294  -2.765  1.00  0.00     0.296 HD
ENDBRANCH   2   4
ENDBRANCH   1   2
BRANCH   1   6
ATOM      6  C   UNL     1       7.019  -0.064  -2.078  1.00  0.00     0.047 C 
BRANCH   6   7
ATOM      7  C   UNL     1       6.455   0.100  -0.739  1.00  0.00    -0.047 A 
ATOM      8  C   UNL     1       5.807   1.261  -0.386  1.00  0.00     0.004 A 
ATOM      9  C   UNL     1       6.575  -0.925   0.170  1.00  0.00     0.004 A 
ATOM     10  C   UNL     1       5.292   1.348   0.909  1.00  0.00     0.000 A 
ATOM     11  C   UNL     1       6.065  -0.838   1.451  1.00  0.00     0.000 A 
ATOM     12  C   UNL     1       5.416   0.323   1.812  1.00  0.00     0.000 A 
ENDBRANCH   6   7
ENDBRANCH   1   6
TORSDOF 4
ENDMDL
MODEL 3
REMARK VINA RESULT:      -6.8      3.377      5.068
REMARK SMILES O=C(O)CCc1ccccc1
REMARK SMILES IDX 4 1 2 2 1 3 3 4 5 6 6 7 7 8 11 9 8 10 10 11 9 12
REMARK H PARENT 3 5
REMARK Flexibility Score: inf
ROOT
ATOM      1  C   UNL     1       5.016   1.798   0.726  1.00  0.00     0.127 C 
ENDROOT
BRANCH   1   2
ATOM      2  C   UNL     1       4.482   1.109   1.924  1.00  0.00     0.303 C 
ATOM      3  O   UNL     1       5.126   0.191   2.488  1.00  0.00    -0.252 OA
BRANCH   2   4
ATOM      4  O   UNL     1       3.252   1.461   2.456  1.00  0.00    -0.481 OA
ATOM      5  H   UNL     1       3.214   2.125   3.235  1.00  0.00     0.296 HD
ENDBRANCH   2   4
ENDBRANCH   1   2
BRANCH   1   6
ATOM      6  C   UNL     1       6.512   1.744   0.779  1.00  0.00     0.047 C 
BRANCH   6   7
ATOM      7  C   UNL     1       7.120   1.001  -0.324  1.00  0.00    -0.047 A 
ATOM      8  C   UNL     1       6.389   0.079  -1.038  1.00  0.00     0.004 A 
ATOM      9  C   UNL     1       8.437   1.234  -0.645  1.00  0.00     0.004 A 
ATOM     10  C   UNL     1       7.034  -0.592  -2.079  1.00  0.00     0.000 A 
ATOM     11  C   UNL     1       9.072   0.569  -1.675  1.00  0.00     0.000 A 
ATOM     12  C   UNL     1       8.348  -0.356  -2.395  1.00  0.00     0.000 A 
ENDBRANCH   6   7
ENDBRANCH   1   6
TORSDOF 4
ENDMDL
MODEL 4
REMARK VINA RESULT:      -6.6      1.931      2.607
REMARK SMILES O=C(O)CCc1ccccc1
REMARK SMILES IDX 4 1 2 2 1 3 3 4 5 6 6 7 7 8 11 9 8 10 10 11 9 12
REMARK H PARENT 3 5
REMARK Flexibility Score: inf
ROOT
ATOM      1  C   UNL     1       8.161   0.268  -2.105  1.00  0.00     0.127 C 
ENDROOT
BRANCH   1   2
ATOM      2  C   UNL     1       9.340   0.362  -1.213  1.00  0.00     0.303 C 
ATOM      3  O   UNL     1       9.467  -0.395  -0.219  1.00  0.00    -0.252 OA
BRANCH   2   4
ATOM      4  O   UNL     1      10.339   1.292  -1.452  1.00  0.00    -0.481 OA
ATOM      5  H   UNL     1      10.084   2.227  -1.784  1.00  0.00     0.296 HD
ENDBRANCH   2   4
ENDBRANCH   1   2
BRANCH   1   6
ATOM      6  C   UNL     1       7.125  -0.576  -1.428  1.00  0.00     0.047 C 
BRANCH   6   7
ATOM      7  C   UNL     1       6.345   0.136  -0.417  1.00  0.00    -0.047 A 
ATOM      8  C   UNL     1       5.801   1.370  -0.688  1.00  0.00     0.004 A 
ATOM      9  C   UNL     1       6.157  -0.443   0.817  1.00  0.00     0.004 A 
ATOM     10  C   UNL     1       5.067   1.992   0.324  1.00  0.00     0.000 A 
ATOM     11  C   UNL     1       5.432   0.173   1.817  1.00  0.00     0.000 A 
ATOM     12  C   UNL     1       4.884   1.410   1.553  1.00  0.00     0.000 A 
ENDBRANCH   6   7
ENDBRANCH   1   6
TORSDOF 4
ENDMDL
MODEL 5
REMARK VINA RESULT:      -6.6      2.008      2.750
REMARK SMILES O=C(O)CCc1ccccc1
REMARK SMILES IDX 4 1 2 2 1 3 3 4 5 6 6 7 7 8 11 9 8 10 10 11 9 12
REMARK H PARENT 3 5
REMARK Flexibility Score: inf
ROOT
ATOM      1  C   UNL     1       7.903  -2.297   0.843  1.00  0.00     0.127 C 
ENDROOT
BRANCH   1   2
ATOM      2  C   UNL     1       8.753  -3.401   0.338  1.00  0.00     0.303 C 
ATOM      3  O   UNL     1       9.643  -3.919   1.056  1.00  0.00    -0.252 OA
BRANCH   2   4
ATOM      4  O   UNL     1       8.587  -3.893  -0.947  1.00  0.00    -0.481 OA
ATOM      5  H   UNL     1       8.610  -3.244  -1.739  1.00  0.00     0.296 HD
ENDBRANCH   2   4
ENDBRANCH   1   2
BRANCH   1   6
ATOM      6  C   UNL     1       7.449  -1.478  -0.327  1.00  0.00     0.047 C 
BRANCH   6   7
ATOM      7  C   UNL     1       6.597  -0.347   0.034  1.00  0.00    -0.047 A 
ATOM      8  C   UNL     1       6.357   0.668  -0.863  1.00  0.00     0.004 A 
ATOM      9  C   UNL     1       6.031  -0.305   1.288  1.00  0.00     0.004 A 
ATOM     10  C   UNL     1       5.532   1.717  -0.451  1.00  0.00     0.000 A 
ATOM     11  C   UNL     1       5.217   0.733   1.694  1.00  0.00     0.000 A 
ATOM     12  C   UNL     1       4.972   1.753   0.801  1.00  0.00     0.000 A 
ENDBRANCH   6   7
ENDBRANCH   1   6
TORSDOF 4
ENDMDL
