@<TRIPOS>MOLECULE
/home/cewinharhar/GITHUB/reincatalyze/data/processed/docking_pred/2023-Apr-26-1657_maxeplen10_maxtrainstep1000_exh32_gamma099_lrac9e-4_lrcr1e-3/4f8485ffa73320ccf1b94cd7b1ea99ef776c762b_ligand_2.pdbqt
 12 12 0 0 0
SMALL
GASTEIGER

@<TRIPOS>ATOM
      1  C          8.4680   -0.6130   -2.1600 C.3     1  UNL1        0.1270
      2  C          8.4890   -1.8970   -2.9010 C.2     1  UNL1        0.3030
      3  O          9.5620   -2.5190   -3.0950 O.2     1  UNL1       -0.2520
      4  O          7.3200   -2.4470   -3.4010 O.3     1  UNL1       -0.4810
      5  H          7.3340   -3.4000   -3.7740 H       1  UNL1        0.2960
      6  C          7.0650   -0.0880   -2.1680 C.3     1  UNL1        0.0470
      7  C          6.4930    0.0980   -0.8360 C.2     1  UNL1       -0.0470
      8  C          6.6120   -0.8800    0.1240 C.2     1  UNL1        0.0040
      9  C          5.8320    1.2700   -0.5470 C.2     1  UNL1        0.0040
     10  C          6.0420   -0.6340    1.3750 C.2     1  UNL1        0.0000
     11  C          5.2680    1.5110    0.6910 C.2     1  UNL1        0.0000
     12  C          5.3820    0.5360    1.6570 C.2     1  UNL1        0.0000
@<TRIPOS>BOND
     1     5     4    1
     2     4     2    1
     3     3     2    2
     4     2     1    1
     5     6     1    1
     6     6     7    1
     7     7     9    2
     8     7     8    1
     9     9    11    1
    10     8    10    2
    11    11    12    2
    12    10    12    1
