@<TRIPOS>MOLECULE
/home/cewinharhar/GITHUB/reincatalyze/data/processed/docking_pred/2023-Apr-26-1657_maxeplen10_maxtrainstep1000_exh32_gamma099_lrac9e-4_lrcr1e-3/4f8485ffa73320ccf1b94cd7b1ea99ef776c762b_ligand_2.pdbqt
 12 12 0 0 0
SMALL
GASTEIGER

@<TRIPOS>ATOM
      1  C          8.0190   -1.3220    2.2850 C.3     1  UNL1        0.1270
      2  C          8.7440   -2.4360    1.6280 C.2     1  UNL1        0.3030
      3  O          9.9450   -2.6800    1.8990 O.2     1  UNL1       -0.2520
      4  O          8.1120   -3.2400    0.6930 O.3     1  UNL1       -0.4810
      5  H          7.7600   -4.1580    0.9780 H       1  UNL1        0.2960
      6  C          6.5820   -1.3840    1.8670 C.3     1  UNL1        0.0470
      7  C          6.1370   -0.2240    1.0960 C.2     1  UNL1       -0.0470
      8  C          5.3180    0.7250    1.6620 C.2     1  UNL1        0.0040
      9  C          6.5500   -0.0880   -0.2100 C.2     1  UNL1        0.0040
     10  C          4.9340    1.8070    0.8660 C.2     1  UNL1        0.0000
     11  C          6.1680    0.9820   -0.9950 C.2     1  UNL1        0.0000
     12  C          5.3470    1.9370   -0.4350 C.2     1  UNL1        0.0000
@<TRIPOS>BOND
     1    11    12    2
     2    11     9    1
     3    12    10    1
     4     9     7    2
     5     4     5    1
     6     4     2    1
     7    10     8    2
     8     7     8    1
     9     7     6    1
    10     2     3    2
    11     2     1    1
    12     6     1    1
