@<TRIPOS>MOLECULE
/home/cewinharhar/GITHUB/reincatalyze/data/processed/docking_pred/2023-Apr-26-1657_maxeplen10_maxtrainstep1000_exh32_gamma099_lrac9e-4_lrcr1e-3/4f8485ffa73320ccf1b94cd7b1ea99ef776c762b_ligand_2.pdbqt
 12 12 0 0 0
SMALL
GASTEIGER

@<TRIPOS>ATOM
      1  C          8.1770   -1.4310    2.5750 C.3     1  UNL1        0.1270
      2  C          9.2140   -2.2550    1.9120 C.2     1  UNL1        0.3030
      3  O          8.9030   -3.1990    1.1430 O.2     1  UNL1       -0.2520
      4  O         10.5610   -2.0070    2.1230 O.3     1  UNL1       -0.4810
      5  H         11.0900   -2.6170    2.7510 H       1  UNL1        0.2960
      6  C          6.8710   -1.6690    1.8800 C.3     1  UNL1        0.0470
      7  C          6.3910   -0.5240    1.1080 C.2     1  UNL1       -0.0470
      8  C          6.7500   -0.3650   -0.2110 C.2     1  UNL1        0.0040
      9  C          5.5690    0.3970    1.7140 C.2     1  UNL1        0.0040
     10  C          6.2540    0.7520   -0.8870 C.2     1  UNL1        0.0000
     11  C          5.0800    1.5010    1.0440 C.2     1  UNL1        0.0000
     12  C          5.4350    1.6690   -0.2770 C.2     1  UNL1        0.0000
@<TRIPOS>BOND
     1    10    12    2
     2    10     8    1
     3    12    11    1
     4     8     7    2
     5    11     9    2
     6     7     9    1
     7     7     6    1
     8     3     2    2
     9     6     1    1
    10     2     4    1
    11     2     1    1
    12     4     5    1
