MODEL 1
REMARK VINA RESULT:      -7.1      0.000      0.000
REMARK SMILES O=C(O)CCc1ccccc1
REMARK SMILES IDX 4 1 2 2 1 3 3 4 5 6 6 7 7 8 11 9 8 10 10 11 9 12
REMARK H PARENT 3 5
REMARK Flexibility Score: inf
ROOT
ATOM      1  C   UNL     1       8.468  -0.613  -2.160  1.00  0.00     0.127 C 
ENDROOT
BRANCH   1   2
ATOM      2  C   UNL     1       8.489  -1.897  -2.901  1.00  0.00     0.303 C 
ATOM      3  O   UNL     1       9.562  -2.519  -3.095  1.00  0.00    -0.252 OA
BRANCH   2   4
ATOM      4  O   UNL     1       7.320  -2.447  -3.401  1.00  0.00    -0.481 OA
ATOM      5  H   UNL     1       7.334  -3.400  -3.774  1.00  0.00     0.296 HD
ENDBRANCH   2   4
ENDBRANCH   1   2
BRANCH   1   6
ATOM      6  C   UNL     1       7.065  -0.088  -2.168  1.00  0.00     0.047 C 
BRANCH   6   7
ATOM      7  C   UNL     1       6.493   0.098  -0.836  1.00  0.00    -0.047 A 
ATOM      8  C   UNL     1       6.612  -0.880   0.124  1.00  0.00     0.004 A 
ATOM      9  C   UNL     1       5.832   1.270  -0.547  1.00  0.00     0.004 A 
ATOM     10  C   UNL     1       6.042  -0.634   1.375  1.00  0.00     0.000 A 
ATOM     11  C   UNL     1       5.268   1.511   0.691  1.00  0.00     0.000 A 
ATOM     12  C   UNL     1       5.382   0.536   1.657  1.00  0.00     0.000 A 
ENDBRANCH   6   7
ENDBRANCH   1   6
TORSDOF 4
ENDMDL
MODEL 2
REMARK VINA RESULT:      -7.1      0.124      1.441
REMARK SMILES O=C(O)CCc1ccccc1
REMARK SMILES IDX 4 1 2 2 1 3 3 4 5 6 6 7 7 8 11 9 8 10 10 11 9 12
REMARK H PARENT 3 5
REMARK Flexibility Score: inf
ROOT
ATOM      1  C   UNL     1       8.428  -0.574  -2.208  1.00  0.00     0.127 C 
ENDROOT
BRANCH   1   2
ATOM      2  C   UNL     1       8.471  -1.875  -2.917  1.00  0.00     0.303 C 
ATOM      3  O   UNL     1       9.555  -2.483  -3.095  1.00  0.00    -0.252 OA
BRANCH   2   4
ATOM      4  O   UNL     1       7.312  -2.456  -3.406  1.00  0.00    -0.481 OA
ATOM      5  H   UNL     1       7.382  -3.210  -4.094  1.00  0.00     0.296 HD
ENDBRANCH   2   4
ENDBRANCH   1   2
BRANCH   1   6
ATOM      6  C   UNL     1       7.006  -0.102  -2.176  1.00  0.00     0.047 C 
BRANCH   6   7
ATOM      7  C   UNL     1       6.471   0.083  -0.829  1.00  0.00    -0.047 A 
ATOM      8  C   UNL     1       5.850   1.258  -0.474  1.00  0.00     0.004 A 
ATOM      9  C   UNL     1       6.592  -0.936   0.088  1.00  0.00     0.004 A 
ATOM     10  C   UNL     1       5.361   1.365   0.830  1.00  0.00     0.000 A 
ATOM     11  C   UNL     1       6.109  -0.829   1.377  1.00  0.00     0.000 A 
ATOM     12  C   UNL     1       5.486   0.345   1.740  1.00  0.00     0.000 A 
ENDBRANCH   6   7
ENDBRANCH   1   6
TORSDOF 4
ENDMDL
MODEL 3
REMARK VINA RESULT:      -7.0      0.622      1.577
REMARK SMILES O=C(O)CCc1ccccc1
REMARK SMILES IDX 4 1 2 2 1 3 3 4 5 6 6 7 7 8 11 9 8 10 10 11 9 12
REMARK H PARENT 3 5
REMARK Flexibility Score: inf
ROOT
ATOM      1  C   UNL     1       8.235  -0.901  -1.870  1.00  0.00     0.127 C 
ENDROOT
BRANCH   1   2
ATOM      2  C   UNL     1       8.421  -2.002  -2.845  1.00  0.00     0.303 C 
ATOM      3  O   UNL     1       9.563  -2.454  -3.106  1.00  0.00    -0.252 OA
BRANCH   2   4
ATOM      4  O   UNL     1       7.334  -2.564  -3.496  1.00  0.00    -0.481 OA
ATOM      5  H   UNL     1       6.387  -2.311  -3.201  1.00  0.00     0.296 HD
ENDBRANCH   2   4
ENDBRANCH   1   2
BRANCH   1   6
ATOM      6  C   UNL     1       7.242  -1.347  -0.840  1.00  0.00     0.047 C 
BRANCH   6   7
ATOM      7  C   UNL     1       6.475  -0.255  -0.243  1.00  0.00    -0.047 A 
ATOM      8  C   UNL     1       6.139   0.855  -0.982  1.00  0.00     0.004 A 
ATOM      9  C   UNL     1       6.088  -0.348   1.074  1.00  0.00     0.004 A 
ATOM     10  C   UNL     1       5.404   1.859  -0.347  1.00  0.00     0.000 A 
ATOM     11  C   UNL     1       5.362   0.646   1.701  1.00  0.00     0.000 A 
ATOM     12  C   UNL     1       5.022   1.761   0.967  1.00  0.00     0.000 A 
ENDBRANCH   6   7
ENDBRANCH   1   6
TORSDOF 4
ENDMDL
MODEL 4
REMARK VINA RESULT:      -6.5      2.514      3.678
REMARK SMILES O=C(O)CCc1ccccc1
REMARK SMILES IDX 4 1 2 2 1 3 3 4 5 6 6 7 7 8 11 9 8 10 10 11 9 12
REMARK H PARENT 3 5
REMARK Flexibility Score: inf
ROOT
ATOM      1  C   UNL     1       8.177  -1.431   2.575  1.00  0.00     0.127 C 
ENDROOT
BRANCH   1   2
ATOM      2  C   UNL     1       9.214  -2.255   1.912  1.00  0.00     0.303 C 
ATOM      3  O   UNL     1       8.903  -3.199   1.143  1.00  0.00    -0.252 OA
BRANCH   2   4
ATOM      4  O   UNL     1      10.561  -2.007   2.123  1.00  0.00    -0.481 OA
ATOM      5  H   UNL     1      11.090  -2.617   2.751  1.00  0.00     0.296 HD
ENDBRANCH   2   4
ENDBRANCH   1   2
BRANCH   1   6
ATOM      6  C   UNL     1       6.871  -1.669   1.880  1.00  0.00     0.047 C 
BRANCH   6   7
ATOM      7  C   UNL     1       6.391  -0.524   1.108  1.00  0.00    -0.047 A 
ATOM      8  C   UNL     1       6.750  -0.365  -0.211  1.00  0.00     0.004 A 
ATOM      9  C   UNL     1       5.569   0.397   1.714  1.00  0.00     0.004 A 
ATOM     10  C   UNL     1       6.254   0.752  -0.887  1.00  0.00     0.000 A 
ATOM     11  C   UNL     1       5.080   1.501   1.044  1.00  0.00     0.000 A 
ATOM     12  C   UNL     1       5.435   1.669  -0.277  1.00  0.00     0.000 A 
ENDBRANCH   6   7
ENDBRANCH   1   6
TORSDOF 4
ENDMDL
MODEL 5
REMARK VINA RESULT:      -6.5      2.383      3.483
REMARK SMILES O=C(O)CCc1ccccc1
REMARK SMILES IDX 4 1 2 2 1 3 3 4 5 6 6 7 7 8 11 9 8 10 10 11 9 12
REMARK H PARENT 3 5
REMARK Flexibility Score: inf
ROOT
ATOM      1  C   UNL     1       8.019  -1.322   2.285  1.00  0.00     0.127 C 
ENDROOT
BRANCH   1   2
ATOM      2  C   UNL     1       8.744  -2.436   1.628  1.00  0.00     0.303 C 
ATOM      3  O   UNL     1       9.945  -2.680   1.899  1.00  0.00    -0.252 OA
BRANCH   2   4
ATOM      4  O   UNL     1       8.112  -3.240   0.693  1.00  0.00    -0.481 OA
ATOM      5  H   UNL     1       7.760  -4.158   0.978  1.00  0.00     0.296 HD
ENDBRANCH   2   4
ENDBRANCH   1   2
BRANCH   1   6
ATOM      6  C   UNL     1       6.582  -1.384   1.867  1.00  0.00     0.047 C 
BRANCH   6   7
ATOM      7  C   UNL     1       6.137  -0.224   1.096  1.00  0.00    -0.047 A 
ATOM      8  C   UNL     1       5.318   0.725   1.662  1.00  0.00     0.004 A 
ATOM      9  C   UNL     1       6.550  -0.088  -0.210  1.00  0.00     0.004 A 
ATOM     10  C   UNL     1       4.934   1.807   0.866  1.00  0.00     0.000 A 
ATOM     11  C   UNL     1       6.168   0.982  -0.995  1.00  0.00     0.000 A 
ATOM     12  C   UNL     1       5.347   1.937  -0.435  1.00  0.00     0.000 A 
ENDBRANCH   6   7
ENDBRANCH   1   6
TORSDOF 4
ENDMDL
