@<TRIPOS>MOLECULE
/home/cewinharhar/GITHUB/reincatalyze/data/processed/docking_pred/2023-Apr-26-1657_maxeplen10_maxtrainstep1000_exh32_gamma099_lrac9e-4_lrcr1e-3/4f8485ffa73320ccf1b94cd7b1ea99ef776c762b_ligand_2.pdbqt
 12 12 0 0 0
SMALL
GASTEIGER

@<TRIPOS>ATOM
      1  C          8.2350   -0.9010   -1.8700 C.3     1  UNL1        0.1270
      2  C          8.4210   -2.0020   -2.8450 C.2     1  UNL1        0.3030
      3  O          9.5630   -2.4540   -3.1060 O.2     1  UNL1       -0.2520
      4  O          7.3340   -2.5640   -3.4960 O.3     1  UNL1       -0.4810
      5  H          6.3870   -2.3110   -3.2010 H       1  UNL1        0.2960
      6  C          7.2420   -1.3470   -0.8400 C.3     1  UNL1        0.0470
      7  C          6.4750   -0.2550   -0.2430 C.2     1  UNL1       -0.0470
      8  C          6.1390    0.8550   -0.9820 C.2     1  UNL1        0.0040
      9  C          6.0880   -0.3480    1.0740 C.2     1  UNL1        0.0040
     10  C          5.4040    1.8590   -0.3470 C.2     1  UNL1        0.0000
     11  C          5.3620    0.6460    1.7010 C.2     1  UNL1        0.0000
     12  C          5.0220    1.7610    0.9670 C.2     1  UNL1        0.0000
@<TRIPOS>BOND
     1     4     5    1
     2     4     2    1
     3     3     2    2
     4     2     1    1
     5     1     6    1
     6     8    10    1
     7     8     7    2
     8     6     7    1
     9    10    12    2
    10     7     9    1
    11    12    11    1
    12     9    11    2
