@<TRIPOS>MOLECULE
/home/cewinharhar/GITHUB/reincatalyze/data/processed/docking_pred/2023-Apr-26-1657_maxeplen10_maxtrainstep1000_exh32_gamma099_lrac9e-4_lrcr1e-3/4f8485ffa73320ccf1b94cd7b1ea99ef776c762b_ligand_2.pdbqt
 12 12 0 0 0
SMALL
GASTEIGER

@<TRIPOS>ATOM
      1  C          8.4280   -0.5740   -2.2080 C.3     1  UNL1        0.1270
      2  C          8.4710   -1.8750   -2.9170 C.2     1  UNL1        0.3030
      3  O          9.5550   -2.4830   -3.0950 O.2     1  UNL1       -0.2520
      4  O          7.3120   -2.4560   -3.4060 O.3     1  UNL1       -0.4810
      5  H          7.3820   -3.2100   -4.0940 H       1  UNL1        0.2960
      6  C          7.0060   -0.1020   -2.1760 C.3     1  UNL1        0.0470
      7  C          6.4710    0.0830   -0.8290 C.2     1  UNL1       -0.0470
      8  C          5.8500    1.2580   -0.4740 C.2     1  UNL1        0.0040
      9  C          6.5920   -0.9360    0.0880 C.2     1  UNL1        0.0040
     10  C          5.3610    1.3650    0.8300 C.2     1  UNL1        0.0000
     11  C          6.1090   -0.8290    1.3770 C.2     1  UNL1        0.0000
     12  C          5.4860    0.3450    1.7400 C.2     1  UNL1        0.0000
@<TRIPOS>BOND
     1     5     4    1
     2     4     2    1
     3     3     2    2
     4     2     1    1
     5     1     6    1
     6     6     7    1
     7     7     8    2
     8     7     9    1
     9     8    10    1
    10     9    11    2
    11    10    12    2
    12    11    12    1
