MODEL 1
REMARK VINA RESULT:      -7.4      0.000      0.000
REMARK SMILES O=C(O)CCc1ccccc1
REMARK SMILES IDX 4 1 2 2 1 3 3 4 5 6 6 7 7 8 11 9 8 10 10 11 9 12
REMARK H PARENT 3 5
REMARK Flexibility Score: inf
ROOT
ATOM      1  C   UNL     1       8.411  -0.634  -2.113  1.00  0.00     0.127 C 
ENDROOT
BRANCH   1   2
ATOM      2  C   UNL     1       8.453  -1.898  -2.885  1.00  0.00     0.303 C 
ATOM      3  O   UNL     1       9.536  -2.500  -3.090  1.00  0.00    -0.252 OA
BRANCH   2   4
ATOM      4  O   UNL     1       7.294  -2.452  -3.404  1.00  0.00    -0.481 OA
ATOM      5  H   UNL     1       6.573  -1.835  -3.790  1.00  0.00     0.296 HD
ENDBRANCH   2   4
ENDBRANCH   1   2
BRANCH   1   6
ATOM      6  C   UNL     1       6.995  -0.145  -2.087  1.00  0.00     0.047 C 
BRANCH   6   7
ATOM      7  C   UNL     1       6.454   0.040  -0.742  1.00  0.00    -0.047 A 
ATOM      8  C   UNL     1       5.830   1.214  -0.390  1.00  0.00     0.004 A 
ATOM      9  C   UNL     1       6.573  -0.979   0.175  1.00  0.00     0.004 A 
ATOM     10  C   UNL     1       5.336   1.321   0.912  1.00  0.00     0.000 A 
ATOM     11  C   UNL     1       6.084  -0.872   1.462  1.00  0.00     0.000 A 
ATOM     12  C   UNL     1       5.458   0.302   1.823  1.00  0.00     0.000 A 
ENDBRANCH   6   7
ENDBRANCH   1   6
TORSDOF 4
ENDMDL
MODEL 2
REMARK VINA RESULT:      -7.3      0.088      1.439
REMARK SMILES O=C(O)CCc1ccccc1
REMARK SMILES IDX 4 1 2 2 1 3 3 4 5 6 6 7 7 8 11 9 8 10 10 11 9 12
REMARK H PARENT 3 5
REMARK Flexibility Score: inf
ROOT
ATOM      1  C   UNL     1       8.451  -0.578  -2.170  1.00  0.00     0.127 C 
ENDROOT
BRANCH   1   2
ATOM      2  C   UNL     1       8.483  -1.864  -2.906  1.00  0.00     0.303 C 
ATOM      3  O   UNL     1       9.563  -2.474  -3.103  1.00  0.00    -0.252 OA
BRANCH   2   4
ATOM      4  O   UNL     1       7.318  -2.430  -3.398  1.00  0.00    -0.481 OA
ATOM      5  H   UNL     1       6.848  -3.160  -2.855  1.00  0.00     0.296 HD
ENDBRANCH   2   4
ENDBRANCH   1   2
BRANCH   1   6
ATOM      6  C   UNL     1       7.035  -0.092  -2.133  1.00  0.00     0.047 C 
BRANCH   6   7
ATOM      7  C   UNL     1       6.491   0.052  -0.784  1.00  0.00    -0.047 A 
ATOM      8  C   UNL     1       6.617  -0.962   0.137  1.00  0.00     0.004 A 
ATOM      9  C   UNL     1       5.848   1.219  -0.440  1.00  0.00     0.004 A 
ATOM     10  C   UNL     1       6.074  -0.755   1.407  1.00  0.00     0.000 A 
ATOM     11  C   UNL     1       5.312   1.422   0.816  1.00  0.00     0.000 A 
ATOM     12  C   UNL     1       5.434   0.411   1.744  1.00  0.00     0.000 A 
ENDBRANCH   6   7
ENDBRANCH   1   6
TORSDOF 4
ENDMDL
MODEL 3
REMARK VINA RESULT:      -7.1      0.665      1.889
REMARK SMILES O=C(O)CCc1ccccc1
REMARK SMILES IDX 4 1 2 2 1 3 3 4 5 6 6 7 7 8 11 9 8 10 10 11 9 12
REMARK H PARENT 3 5
REMARK Flexibility Score: inf
ROOT
ATOM      1  C   UNL     1       8.333  -0.988  -1.723  1.00  0.00     0.127 C 
ENDROOT
BRANCH   1   2
ATOM      2  C   UNL     1       8.347  -2.011  -2.796  1.00  0.00     0.303 C 
ATOM      3  O   UNL     1       7.280  -2.436  -3.304  1.00  0.00    -0.252 OA
BRANCH   2   4
ATOM      4  O   UNL     1       9.542  -2.529  -3.267  1.00  0.00    -0.481 OA
ATOM      5  H   UNL     1      10.359  -2.547  -2.650  1.00  0.00     0.296 HD
ENDBRANCH   2   4
ENDBRANCH   1   2
BRANCH   1   6
ATOM      6  C   UNL     1       7.401  -1.450  -0.645  1.00  0.00     0.047 C 
BRANCH   6   7
ATOM      7  C   UNL     1       6.576  -0.385  -0.076  1.00  0.00    -0.047 A 
ATOM      8  C   UNL     1       6.107  -0.472   1.214  1.00  0.00     0.004 A 
ATOM      9  C   UNL     1       6.273   0.714  -0.846  1.00  0.00     0.004 A 
ATOM     10  C   UNL     1       5.327   0.583   1.693  1.00  0.00     0.000 A 
ATOM     11  C   UNL     1       5.501   1.755  -0.372  1.00  0.00     0.000 A 
ATOM     12  C   UNL     1       5.027   1.676   0.919  1.00  0.00     0.000 A 
ENDBRANCH   6   7
ENDBRANCH   1   6
TORSDOF 4
ENDMDL
MODEL 4
REMARK VINA RESULT:      -7.1      0.666      1.475
REMARK SMILES O=C(O)CCc1ccccc1
REMARK SMILES IDX 4 1 2 2 1 3 3 4 5 6 6 7 7 8 11 9 8 10 10 11 9 12
REMARK H PARENT 3 5
REMARK Flexibility Score: inf
ROOT
ATOM      1  C   UNL     1       8.358  -0.930  -1.804  1.00  0.00     0.127 C 
ENDROOT
BRANCH   1   2
ATOM      2  C   UNL     1       8.364  -2.007  -2.822  1.00  0.00     0.303 C 
ATOM      3  O   UNL     1       7.293  -2.450  -3.307  1.00  0.00    -0.252 OA
BRANCH   2   4
ATOM      4  O   UNL     1       9.555  -2.556  -3.268  1.00  0.00    -0.481 OA
ATOM      5  H   UNL     1       9.545  -3.472  -3.725  1.00  0.00     0.296 HD
ENDBRANCH   2   4
ENDBRANCH   1   2
BRANCH   1   6
ATOM      6  C   UNL     1       7.498  -1.369  -0.659  1.00  0.00     0.047 C 
BRANCH   6   7
ATOM      7  C   UNL     1       6.631  -0.318  -0.129  1.00  0.00    -0.047 A 
ATOM      8  C   UNL     1       6.295   0.772  -0.899  1.00  0.00     0.004 A 
ATOM      9  C   UNL     1       6.149  -0.429   1.155  1.00  0.00     0.004 A 
ATOM     10  C   UNL     1       5.463   1.737  -0.328  1.00  0.00     0.000 A 
ATOM     11  C   UNL     1       5.327   0.527   1.718  1.00  0.00     0.000 A 
ATOM     12  C   UNL     1       4.986   1.622   0.953  1.00  0.00     0.000 A 
ENDBRANCH   6   7
ENDBRANCH   1   6
TORSDOF 4
ENDMDL
MODEL 5
REMARK VINA RESULT:      -6.8      3.369      5.044
REMARK SMILES O=C(O)CCc1ccccc1
REMARK SMILES IDX 4 1 2 2 1 3 3 4 5 6 6 7 7 8 11 9 8 10 10 11 9 12
REMARK H PARENT 3 5
REMARK Flexibility Score: inf
ROOT
ATOM      1  C   UNL     1       5.030   1.713   0.670  1.00  0.00     0.127 C 
ENDROOT
BRANCH   1   2
ATOM      2  C   UNL     1       4.504   1.082   1.903  1.00  0.00     0.303 C 
ATOM      3  O   UNL     1       5.146   0.181   2.498  1.00  0.00    -0.252 OA
BRANCH   2   4
ATOM      4  O   UNL     1       3.284   1.469   2.434  1.00  0.00    -0.481 OA
ATOM      5  H   UNL     1       2.932   2.411   2.245  1.00  0.00     0.296 HD
ENDBRANCH   2   4
ENDBRANCH   1   2
BRANCH   1   6
ATOM      6  C   UNL     1       6.526   1.716   0.744  1.00  0.00     0.047 C 
BRANCH   6   7
ATOM      7  C   UNL     1       7.177   0.985  -0.342  1.00  0.00    -0.047 A 
ATOM      8  C   UNL     1       8.493   1.225  -0.662  1.00  0.00     0.004 A 
ATOM      9  C   UNL     1       6.457   0.048  -1.046  1.00  0.00     0.004 A 
ATOM     10  C   UNL     1       9.050   0.489  -1.710  1.00  0.00     0.000 A 
ATOM     11  C   UNL     1       7.009  -0.678  -2.083  1.00  0.00     0.000 A 
ATOM     12  C   UNL     1       8.327  -0.444  -2.410  1.00  0.00     0.000 A 
ENDBRANCH   6   7
ENDBRANCH   1   6
TORSDOF 4
ENDMDL
