@<TRIPOS>MOLECULE
/home/cewinharhar/GITHUB/reincatalyze/data/processed/docking_pred/2023-Apr-26-1657_maxeplen10_maxtrainstep1000_exh32_gamma099_lrac9e-4_lrcr1e-3/4fd116288ae20ad94bf91d23a53b6bc9c92e4cae_ligand_2.pdbqt
 12 12 0 0 0
SMALL
GASTEIGER

@<TRIPOS>ATOM
      1  C          8.3580   -0.9300   -1.8040 C.3     1  UNL1        0.1270
      2  C          8.3640   -2.0070   -2.8220 C.2     1  UNL1        0.3030
      3  O          7.2930   -2.4500   -3.3070 O.2     1  UNL1       -0.2520
      4  O          9.5550   -2.5560   -3.2680 O.3     1  UNL1       -0.4810
      5  H          9.5450   -3.4720   -3.7250 H       1  UNL1        0.2960
      6  C          7.4980   -1.3690   -0.6590 C.3     1  UNL1        0.0470
      7  C          6.6310   -0.3180   -0.1290 C.2     1  UNL1       -0.0470
      8  C          6.2950    0.7720   -0.8990 C.2     1  UNL1        0.0040
      9  C          6.1490   -0.4290    1.1550 C.2     1  UNL1        0.0040
     10  C          5.4630    1.7370   -0.3280 C.2     1  UNL1        0.0000
     11  C          5.3270    0.5270    1.7180 C.2     1  UNL1        0.0000
     12  C          4.9860    1.6220    0.9530 C.2     1  UNL1        0.0000
@<TRIPOS>BOND
     1     5     4    1
     2     3     2    2
     3     4     2    1
     4     2     1    1
     5     1     6    1
     6     8    10    1
     7     8     7    2
     8     6     7    1
     9    10    12    2
    10     7     9    1
    11    12    11    1
    12     9    11    2
