@<TRIPOS>MOLECULE
/home/cewinharhar/GITHUB/reincatalyze/data/processed/docking_pred/2023-Apr-26-1657_maxeplen10_maxtrainstep1000_exh32_gamma099_lrac9e-4_lrcr1e-3/4fd116288ae20ad94bf91d23a53b6bc9c92e4cae_ligand_2.pdbqt
 12 12 0 0 0
SMALL
GASTEIGER

@<TRIPOS>ATOM
      1  C          5.0300    1.7130    0.6700 C.3     1  UNL1        0.1270
      2  C          4.5040    1.0820    1.9030 C.2     1  UNL1        0.3030
      3  O          5.1460    0.1810    2.4980 O.2     1  UNL1       -0.2520
      4  O          3.2840    1.4690    2.4340 O.3     1  UNL1       -0.4810
      5  H          2.9320    2.4110    2.2450 H       1  UNL1        0.2960
      6  C          6.5260    1.7160    0.7440 C.3     1  UNL1        0.0470
      7  C          7.1770    0.9850   -0.3420 C.2     1  UNL1       -0.0470
      8  C          8.4930    1.2250   -0.6620 C.2     1  UNL1        0.0040
      9  C          6.4570    0.0480   -1.0460 C.2     1  UNL1        0.0040
     10  C          9.0500    0.4890   -1.7100 C.2     1  UNL1        0.0000
     11  C          7.0090   -0.6780   -2.0830 C.2     1  UNL1        0.0000
     12  C          8.3270   -0.4440   -2.4100 C.2     1  UNL1        0.0000
@<TRIPOS>BOND
     1    12    11    2
     2    12    10    1
     3    11     9    1
     4    10     8    2
     5     9     7    2
     6     8     7    1
     7     7     6    1
     8     1     6    1
     9     1     2    1
    10     2     4    1
    11     2     3    2
    12     5     4    1
