@<TRIPOS>MOLECULE
/home/cewinharhar/GITHUB/reincatalyze/data/processed/docking_pred/2023-Apr-26-1657_maxeplen10_maxtrainstep1000_exh32_gamma099_lrac9e-4_lrcr1e-3/4fd116288ae20ad94bf91d23a53b6bc9c92e4cae_ligand_2.pdbqt
 12 12 0 0 0
SMALL
GASTEIGER

@<TRIPOS>ATOM
      1  C          8.4110   -0.6340   -2.1130 C.3     1  UNL1        0.1270
      2  C          8.4530   -1.8980   -2.8850 C.2     1  UNL1        0.3030
      3  O          9.5360   -2.5000   -3.0900 O.2     1  UNL1       -0.2520
      4  O          7.2940   -2.4520   -3.4040 O.3     1  UNL1       -0.4810
      5  H          6.5730   -1.8350   -3.7900 H       1  UNL1        0.2960
      6  C          6.9950   -0.1450   -2.0870 C.3     1  UNL1        0.0470
      7  C          6.4540    0.0400   -0.7420 C.2     1  UNL1       -0.0470
      8  C          5.8300    1.2140   -0.3900 C.2     1  UNL1        0.0040
      9  C          6.5730   -0.9790    0.1750 C.2     1  UNL1        0.0040
     10  C          5.3360    1.3210    0.9120 C.2     1  UNL1        0.0000
     11  C          6.0840   -0.8720    1.4620 C.2     1  UNL1        0.0000
     12  C          5.4580    0.3020    1.8230 C.2     1  UNL1        0.0000
@<TRIPOS>BOND
     1     5     4    1
     2     4     2    1
     3     3     2    2
     4     2     1    1
     5     1     6    1
     6     6     7    1
     7     7     8    2
     8     7     9    1
     9     8    10    1
    10     9    11    2
    11    10    12    2
    12    11    12    1
