@<TRIPOS>MOLECULE
/home/cewinharhar/GITHUB/reincatalyze/data/processed/docking_pred/2023-Apr-26-1657_maxeplen10_maxtrainstep1000_exh32_gamma099_lrac9e-4_lrcr1e-3/4fd116288ae20ad94bf91d23a53b6bc9c92e4cae_ligand_2.pdbqt
 12 12 0 0 0
SMALL
GASTEIGER

@<TRIPOS>ATOM
      1  C          8.3330   -0.9880   -1.7230 C.3     1  UNL1        0.1270
      2  C          8.3470   -2.0110   -2.7960 C.2     1  UNL1        0.3030
      3  O          7.2800   -2.4360   -3.3040 O.2     1  UNL1       -0.2520
      4  O          9.5420   -2.5290   -3.2670 O.3     1  UNL1       -0.4810
      5  H         10.3590   -2.5470   -2.6500 H       1  UNL1        0.2960
      6  C          7.4010   -1.4500   -0.6450 C.3     1  UNL1        0.0470
      7  C          6.5760   -0.3850   -0.0760 C.2     1  UNL1       -0.0470
      8  C          6.1070   -0.4720    1.2140 C.2     1  UNL1        0.0040
      9  C          6.2730    0.7140   -0.8460 C.2     1  UNL1        0.0040
     10  C          5.3270    0.5830    1.6930 C.2     1  UNL1        0.0000
     11  C          5.5010    1.7550   -0.3720 C.2     1  UNL1        0.0000
     12  C          5.0270    1.6760    0.9190 C.2     1  UNL1        0.0000
@<TRIPOS>BOND
     1     3     2    2
     2     4     2    1
     3     4     5    1
     4     2     1    1
     5     1     6    1
     6     9    11    1
     7     9     7    2
     8     6     7    1
     9    11    12    2
    10     7     8    1
    11    12    10    1
    12     8    10    2
