@<TRIPOS>MOLECULE
/home/cewinharhar/GITHUB/reincatalyze/data/processed/docking_pred/2023-Apr-26-1657_maxeplen10_maxtrainstep1000_exh32_gamma099_lrac9e-4_lrcr1e-3/4fd116288ae20ad94bf91d23a53b6bc9c92e4cae_ligand_2.pdbqt
 12 12 0 0 0
SMALL
GASTEIGER

@<TRIPOS>ATOM
      1  C          8.4510   -0.5780   -2.1700 C.3     1  UNL1        0.1270
      2  C          8.4830   -1.8640   -2.9060 C.2     1  UNL1        0.3030
      3  O          9.5630   -2.4740   -3.1030 O.2     1  UNL1       -0.2520
      4  O          7.3180   -2.4300   -3.3980 O.3     1  UNL1       -0.4810
      5  H          6.8480   -3.1600   -2.8550 H       1  UNL1        0.2960
      6  C          7.0350   -0.0920   -2.1330 C.3     1  UNL1        0.0470
      7  C          6.4910    0.0520   -0.7840 C.2     1  UNL1       -0.0470
      8  C          6.6170   -0.9620    0.1370 C.2     1  UNL1        0.0040
      9  C          5.8480    1.2190   -0.4400 C.2     1  UNL1        0.0040
     10  C          6.0740   -0.7550    1.4070 C.2     1  UNL1        0.0000
     11  C          5.3120    1.4220    0.8160 C.2     1  UNL1        0.0000
     12  C          5.4340    0.4110    1.7440 C.2     1  UNL1        0.0000
@<TRIPOS>BOND
     1     4     2    1
     2     4     5    1
     3     3     2    2
     4     2     1    1
     5     1     6    1
     6     6     7    1
     7     7     9    2
     8     7     8    1
     9     9    11    1
    10     8    10    2
    11    11    12    2
    12    10    12    1
