@<TRIPOS>MOLECULE
/home/cewinharhar/GITHUB/reincatalyze/data/processed/docking_pred/2023-Apr-26-1657_maxeplen10_maxtrainstep1000_exh32_gamma099_lrac9e-4_lrcr1e-3/5131ba4422f83928eab452067adeb3f7f7723c60_ligand_2.pdbqt
 12 12 0 0 0
SMALL
GASTEIGER

@<TRIPOS>ATOM
      1  C          8.2400    0.1720   -2.2000 C.3     1  UNL1        0.1270
      2  C          9.3590    0.3200   -1.2390 C.2     1  UNL1        0.3030
      3  O          9.4460   -0.4150   -0.2240 O.2     1  UNL1       -0.2520
      4  O         10.3420    1.2760   -1.4360 O.3     1  UNL1       -0.4810
      5  H         10.4870    1.9990   -0.7250 H       1  UNL1        0.2960
      6  C          7.1360   -0.5830   -1.5240 C.3     1  UNL1        0.0470
      7  C          6.3580    0.2180   -0.5810 C.2     1  UNL1       -0.0470
      8  C          6.1290   -0.2290    0.6990 C.2     1  UNL1        0.0040
      9  C          5.8550    1.4330   -0.9870 C.2     1  UNL1        0.0040
     10  C          5.3780    0.5890    1.5470 C.2     1  UNL1        0.0000
     11  C          5.1130    2.2400   -0.1480 C.2     1  UNL1        0.0000
     12  C          4.8780    1.7990    1.1360 C.2     1  UNL1        0.0000
@<TRIPOS>BOND
     1     1     6    1
     2     1     2    1
     3     6     7    1
     4     4     2    1
     5     4     5    1
     6     2     3    2
     7     9     7    2
     8     9    11    1
     9     7     8    1
    10    11    12    2
    11     8    10    2
    12    12    10    1
