@<TRIPOS>MOLECULE
/home/cewinharhar/GITHUB/reincatalyze/data/processed/docking_pred/2023-Apr-26-1657_maxeplen10_maxtrainstep1000_exh32_gamma099_lrac9e-4_lrcr1e-3/5131ba4422f83928eab452067adeb3f7f7723c60_ligand_2.pdbqt
 12 12 0 0 0
SMALL
GASTEIGER

@<TRIPOS>ATOM
      1  C          8.2760   -1.0690   -1.6810 C.3     1  UNL1        0.1270
      2  C          8.3960   -2.0570   -2.7800 C.2     1  UNL1        0.3030
      3  O          9.5140   -2.5120   -3.1270 O.2     1  UNL1       -0.2520
      4  O          7.2730   -2.5060   -3.4560 O.3     1  UNL1       -0.4810
      5  H          6.4380   -1.9150   -3.4890 H       1  UNL1        0.2960
      6  C          7.1940   -1.5270   -0.7520 C.3     1  UNL1        0.0470
      7  C          6.4570   -0.4370   -0.1140 C.2     1  UNL1       -0.0470
      8  C          6.0450   -0.5380    1.1940 C.2     1  UNL1        0.0040
      9  C          6.1790    0.6990   -0.8390 C.2     1  UNL1        0.0040
     10  C          5.3460    0.5420    1.7380 C.2     1  UNL1        0.0000
     11  C          5.4880    1.7650   -0.2990 C.2     1  UNL1        0.0000
     12  C          5.0710    1.6720    1.0110 C.2     1  UNL1        0.0000
@<TRIPOS>BOND
     1     5     4    1
     2     4     2    1
     3     3     2    2
     4     2     1    1
     5     1     6    1
     6     9    11    1
     7     9     7    2
     8     6     7    1
     9    11    12    2
    10     7     8    1
    11    12    10    1
    12     8    10    2
