@<TRIPOS>MOLECULE
/home/cewinharhar/GITHUB/reincatalyze/data/processed/docking_pred/2023-Apr-26-1657_maxeplen10_maxtrainstep1000_exh32_gamma099_lrac9e-4_lrcr1e-3/5131ba4422f83928eab452067adeb3f7f7723c60_ligand_2.pdbqt
 12 12 0 0 0
SMALL
GASTEIGER

@<TRIPOS>ATOM
      1  C          5.0540    1.7710    0.7060 C.3     1  UNL1        0.1270
      2  C          4.5070    1.1020    1.9100 C.2     1  UNL1        0.3030
      3  O          5.1420    0.1860    2.4900 O.2     1  UNL1       -0.2520
      4  O          3.2770    1.4700    2.4300 O.3     1  UNL1       -0.4810
      5  H          3.0900    1.3250    3.4260 H       1  UNL1        0.2960
      6  C          6.5500    1.7210    0.7780 C.3     1  UNL1        0.0470
      7  C          7.1740    0.9880   -0.3220 C.2     1  UNL1       -0.0470
      8  C          8.4800    1.2300   -0.6770 C.2     1  UNL1        0.0040
      9  C          6.4390    0.0460   -1.0030 C.2     1  UNL1        0.0040
     10  C          9.0120    0.4920   -1.7370 C.2     1  UNL1        0.0000
     11  C          6.9650   -0.6830   -2.0510 C.2     1  UNL1        0.0000
     12  C          8.2730   -0.4460   -2.4130 C.2     1  UNL1        0.0000
@<TRIPOS>BOND
     1    12    11    2
     2    12    10    1
     3    11     9    1
     4    10     8    2
     5     9     7    2
     6     8     7    1
     7     7     6    1
     8     1     6    1
     9     1     2    1
    10     2     4    1
    11     2     3    2
    12     4     5    1
