@<TRIPOS>MOLECULE
/home/cewinharhar/GITHUB/reincatalyze/data/processed/docking_pred/2023-Apr-26-1657_maxeplen10_maxtrainstep1000_exh32_gamma099_lrac9e-4_lrcr1e-3/5131ba4422f83928eab452067adeb3f7f7723c60_ligand_2.pdbqt
 12 12 0 0 0
SMALL
GASTEIGER

@<TRIPOS>ATOM
      1  C          8.4740   -0.6500   -2.1000 C.3     1  UNL1        0.1270
      2  C          8.4820   -1.9040   -2.8900 C.2     1  UNL1        0.3030
      3  O          9.5490   -2.5300   -3.1060 O.2     1  UNL1       -0.2520
      4  O          7.3080   -2.4220   -3.4130 O.3     1  UNL1       -0.4810
      5  H          7.1960   -3.4370   -3.4850 H       1  UNL1        0.2960
      6  C          7.0790   -0.1040   -2.1000 C.3     1  UNL1        0.0470
      7  C          6.5030    0.0550   -0.7650 C.2     1  UNL1       -0.0470
      8  C          6.6260   -0.9400    0.1770 C.2     1  UNL1        0.0040
      9  C          5.8340    1.2170   -0.4570 C.2     1  UNL1        0.0040
     10  C          6.0510   -0.7200    1.4310 C.2     1  UNL1        0.0000
     11  C          5.2670    1.4320    0.7840 C.2     1  UNL1        0.0000
     12  C          5.3850    0.4400    1.7330 C.2     1  UNL1        0.0000
@<TRIPOS>BOND
     1     5     4    1
     2     4     2    1
     3     3     2    2
     4     2     1    1
     5     1     6    1
     6     6     7    1
     7     7     9    2
     8     7     8    1
     9     9    11    1
    10     8    10    2
    11    11    12    2
    12    10    12    1
