@<TRIPOS>MOLECULE
/home/cewinharhar/GITHUB/reincatalyze/data/processed/docking_pred/2023-Apr-26-1657_maxeplen10_maxtrainstep1000_exh32_gamma099_lrac9e-4_lrcr1e-3/51335195432d6c3c52ef841bfe8bb9323d602809_ligand_2.pdbqt
 12 12 0 0 0
SMALL
GASTEIGER

@<TRIPOS>ATOM
      1  C          7.8780   -2.2760    0.8430 C.3     1  UNL1        0.1270
      2  C          8.7360   -3.3750    0.3400 C.2     1  UNL1        0.3030
      3  O          9.6390   -3.8750    1.0550 O.2     1  UNL1       -0.2520
      4  O          8.5630   -3.8830   -0.9370 O.3     1  UNL1       -0.4810
      5  H          8.9490   -4.8030   -1.1670 H       1  UNL1        0.2960
      6  C          7.4570   -1.4360   -0.3250 C.3     1  UNL1        0.0470
      7  C          6.5980   -0.3090    0.0330 C.2     1  UNL1       -0.0470
      8  C          6.3280    0.6860   -0.8770 C.2     1  UNL1        0.0040
      9  C          6.0560   -0.2520    1.2960 C.2     1  UNL1        0.0040
     10  C          5.4980    1.7320   -0.4670 C.2     1  UNL1        0.0000
     11  C          5.2360    0.7830    1.7000 C.2     1  UNL1        0.0000
     12  C          4.9610    1.7840    0.7940 C.2     1  UNL1        0.0000
@<TRIPOS>BOND
     1     5     4    1
     2     4     2    1
     3     8    10    1
     4     8     7    2
     5    10    12    2
     6     6     7    1
     7     6     1    1
     8     7     9    1
     9     2     1    1
    10     2     3    2
    11    12    11    1
    12     9    11    2
