@<TRIPOS>MOLECULE
/home/cewinharhar/GITHUB/reincatalyze/data/processed/docking_pred/2023-Apr-26-1657_maxeplen10_maxtrainstep1000_exh32_gamma099_lrac9e-4_lrcr1e-3/51335195432d6c3c52ef841bfe8bb9323d602809_ligand_2.pdbqt
 12 12 0 0 0
SMALL
GASTEIGER

@<TRIPOS>ATOM
      1  C          8.4240   -0.6520   -2.0890 C.3     1  UNL1        0.1270
      2  C          8.3860   -1.9050   -2.8790 C.2     1  UNL1        0.3030
      3  O          7.2970   -2.4130   -3.2440 O.2     1  UNL1       -0.2520
      4  O          9.5570   -2.5540   -3.2370 O.3     1  UNL1       -0.4810
      5  H         10.1340   -2.9850   -2.5090 H       1  UNL1        0.2960
      6  C          7.0480   -0.0590   -2.0820 C.3     1  UNL1        0.0470
      7  C          6.4740    0.0930   -0.7460 C.2     1  UNL1       -0.0470
      8  C          6.5910   -0.9100    0.1890 C.2     1  UNL1        0.0040
      9  C          5.8120    1.2570   -0.4280 C.2     1  UNL1        0.0040
     10  C          6.0190   -0.6950    1.4450 C.2     1  UNL1        0.0000
     11  C          5.2470    1.4670    0.8140 C.2     1  UNL1        0.0000
     12  C          5.3590    0.4670    1.7560 C.2     1  UNL1        0.0000
@<TRIPOS>BOND
     1     3     2    2
     2     4     2    1
     3     4     5    1
     4     2     1    1
     5     1     6    1
     6     6     7    1
     7     7     9    2
     8     7     8    1
     9     9    11    1
    10     8    10    2
    11    11    12    2
    12    10    12    1
