@<TRIPOS>MOLECULE
/home/cewinharhar/GITHUB/reincatalyze/data/processed/docking_pred/2023-Apr-26-1657_maxeplen10_maxtrainstep1000_exh32_gamma099_lrac9e-4_lrcr1e-3/51335195432d6c3c52ef841bfe8bb9323d602809_ligand_2.pdbqt
 12 12 0 0 0
SMALL
GASTEIGER

@<TRIPOS>ATOM
      1  C          8.2330    0.2420   -2.2180 C.3     1  UNL1        0.1270
      2  C          9.3570    0.3460   -1.2580 C.2     1  UNL1        0.3030
      3  O          9.4380   -0.4200   -0.2660 O.2     1  UNL1       -0.2520
      4  O         10.3530    1.2940   -1.4290 O.3     1  UNL1       -0.4810
      5  H         10.6170    1.8910   -0.6410 H       1  UNL1        0.2960
      6  C          7.1140   -0.5000   -1.5550 C.3     1  UNL1        0.0470
      7  C          6.3320    0.3120   -0.6230 C.2     1  UNL1       -0.0470
      8  C          5.8200    1.5280   -1.0090 C.2     1  UNL1        0.0040
      9  C          6.1100   -0.1560    0.6510 C.2     1  UNL1        0.0040
     10  C          5.0820    2.2490   -0.0680 C.2     1  UNL1        0.0000
     11  C          5.3810    0.5580    1.5810 C.2     1  UNL1        0.0000
     12  C          4.8640    1.7780    1.2020 C.2     1  UNL1        0.0000
@<TRIPOS>BOND
     1     1     6    1
     2     1     2    1
     3     6     7    1
     4     4     2    1
     5     4     5    1
     6     2     3    2
     7     8     7    2
     8     8    10    1
     9     7     9    1
    10    10    12    2
    11     9    11    2
    12    12    11    1
