@<TRIPOS>MOLECULE
/home/cewinharhar/GITHUB/reincatalyze/data/processed/docking_pred/2023-Apr-26-1657_maxeplen10_maxtrainstep1000_exh32_gamma099_lrac9e-4_lrcr1e-3/51335195432d6c3c52ef841bfe8bb9323d602809_ligand_2.pdbqt
 12 12 0 0 0
SMALL
GASTEIGER

@<TRIPOS>ATOM
      1  C          5.0500    1.7280    0.6740 C.3     1  UNL1        0.1270
      2  C          4.6010    1.0460    1.9110 C.2     1  UNL1        0.3030
      3  O          5.3240    0.1960    2.4850 O.2     1  UNL1       -0.2520
      4  O          3.3640    1.3300    2.4690 O.3     1  UNL1       -0.4810
      5  H          3.2190    2.2320    2.9310 H       1  UNL1        0.2960
      6  C          6.5470    1.7930    0.6900 C.3     1  UNL1        0.0470
      7  C          7.1870    1.0270   -0.3770 C.2     1  UNL1       -0.0470
      8  C          8.5190    1.2070   -0.6720 C.2     1  UNL1        0.0040
      9  C          6.4420    0.1150   -1.0890 C.2     1  UNL1        0.0040
     10  C          9.0640    0.4400   -1.7040 C.2     1  UNL1        0.0000
     11  C          6.9830   -0.6420   -2.1090 C.2     1  UNL1        0.0000
     12  C          8.3160   -0.4670   -2.4110 C.2     1  UNL1        0.0000
@<TRIPOS>BOND
     1    12    11    2
     2    12    10    1
     3    11     9    1
     4    10     8    2
     5     9     7    2
     6     8     7    1
     7     7     6    1
     8     1     6    1
     9     1     2    1
    10     2     4    1
    11     2     3    2
    12     4     5    1
