MODEL 1
REMARK VINA RESULT:      -7.4      0.000      0.000
REMARK SMILES O=C(O)CCc1ccccc1
REMARK SMILES IDX 4 1 2 2 1 3 3 4 5 6 6 7 7 8 11 9 8 10 10 11 9 12
REMARK H PARENT 3 5
REMARK Flexibility Score: inf
ROOT
ATOM      1  C   UNL     1       8.424  -0.698  -2.088  1.00  0.00     0.127 C 
ENDROOT
BRANCH   1   2
ATOM      2  C   UNL     1       8.463  -1.938  -2.898  1.00  0.00     0.303 C 
ATOM      3  O   UNL     1       9.542  -2.547  -3.104  1.00  0.00    -0.252 OA
BRANCH   2   4
ATOM      4  O   UNL     1       7.305  -2.461  -3.451  1.00  0.00    -0.481 OA
ATOM      5  H   UNL     1       6.562  -1.824  -3.751  1.00  0.00     0.296 HD
ENDBRANCH   2   4
ENDBRANCH   1   2
BRANCH   1   6
ATOM      6  C   UNL     1       7.021  -0.172  -2.099  1.00  0.00     0.047 C 
BRANCH   6   7
ATOM      7  C   UNL     1       6.462   0.057  -0.768  1.00  0.00    -0.047 A 
ATOM      8  C   UNL     1       5.818   1.236  -0.469  1.00  0.00     0.004 A 
ATOM      9  C   UNL     1       6.583  -0.923   0.189  1.00  0.00     0.004 A 
ATOM     10  C   UNL     1       5.307   1.386   0.822  1.00  0.00     0.000 A 
ATOM     11  C   UNL     1       6.078  -0.773   1.466  1.00  0.00     0.000 A 
ATOM     12  C   UNL     1       5.432   0.405   1.773  1.00  0.00     0.000 A 
ENDBRANCH   6   7
ENDBRANCH   1   6
TORSDOF 4
ENDMDL
MODEL 2
REMARK VINA RESULT:      -7.3      0.105      1.731
REMARK SMILES O=C(O)CCc1ccccc1
REMARK SMILES IDX 4 1 2 2 1 3 3 4 5 6 6 7 7 8 11 9 8 10 10 11 9 12
REMARK H PARENT 3 5
REMARK Flexibility Score: inf
ROOT
ATOM      1  C   UNL     1       8.424  -0.652  -2.089  1.00  0.00     0.127 C 
ENDROOT
BRANCH   1   2
ATOM      2  C   UNL     1       8.386  -1.905  -2.879  1.00  0.00     0.303 C 
ATOM      3  O   UNL     1       7.297  -2.413  -3.244  1.00  0.00    -0.252 OA
BRANCH   2   4
ATOM      4  O   UNL     1       9.557  -2.554  -3.237  1.00  0.00    -0.481 OA
ATOM      5  H   UNL     1      10.134  -2.985  -2.509  1.00  0.00     0.296 HD
ENDBRANCH   2   4
ENDBRANCH   1   2
BRANCH   1   6
ATOM      6  C   UNL     1       7.048  -0.059  -2.082  1.00  0.00     0.047 C 
BRANCH   6   7
ATOM      7  C   UNL     1       6.474   0.093  -0.746  1.00  0.00    -0.047 A 
ATOM      8  C   UNL     1       6.591  -0.910   0.189  1.00  0.00     0.004 A 
ATOM      9  C   UNL     1       5.812   1.257  -0.428  1.00  0.00     0.004 A 
ATOM     10  C   UNL     1       6.019  -0.695   1.445  1.00  0.00     0.000 A 
ATOM     11  C   UNL     1       5.247   1.467   0.814  1.00  0.00     0.000 A 
ATOM     12  C   UNL     1       5.359   0.467   1.756  1.00  0.00     0.000 A 
ENDBRANCH   6   7
ENDBRANCH   1   6
TORSDOF 4
ENDMDL
MODEL 3
REMARK VINA RESULT:      -6.7      3.354      5.032
REMARK SMILES O=C(O)CCc1ccccc1
REMARK SMILES IDX 4 1 2 2 1 3 3 4 5 6 6 7 7 8 11 9 8 10 10 11 9 12
REMARK H PARENT 3 5
REMARK Flexibility Score: inf
ROOT
ATOM      1  C   UNL     1       5.050   1.728   0.674  1.00  0.00     0.127 C 
ENDROOT
BRANCH   1   2
ATOM      2  C   UNL     1       4.601   1.046   1.911  1.00  0.00     0.303 C 
ATOM      3  O   UNL     1       5.324   0.196   2.485  1.00  0.00    -0.252 OA
BRANCH   2   4
ATOM      4  O   UNL     1       3.364   1.330   2.469  1.00  0.00    -0.481 OA
ATOM      5  H   UNL     1       3.219   2.232   2.931  1.00  0.00     0.296 HD
ENDBRANCH   2   4
ENDBRANCH   1   2
BRANCH   1   6
ATOM      6  C   UNL     1       6.547   1.793   0.690  1.00  0.00     0.047 C 
BRANCH   6   7
ATOM      7  C   UNL     1       7.187   1.027  -0.377  1.00  0.00    -0.047 A 
ATOM      8  C   UNL     1       8.519   1.207  -0.672  1.00  0.00     0.004 A 
ATOM      9  C   UNL     1       6.442   0.115  -1.089  1.00  0.00     0.004 A 
ATOM     10  C   UNL     1       9.064   0.440  -1.704  1.00  0.00     0.000 A 
ATOM     11  C   UNL     1       6.983  -0.642  -2.109  1.00  0.00     0.000 A 
ATOM     12  C   UNL     1       8.316  -0.467  -2.411  1.00  0.00     0.000 A 
ENDBRANCH   6   7
ENDBRANCH   1   6
TORSDOF 4
ENDMDL
MODEL 4
REMARK VINA RESULT:      -6.6      1.935      2.297
REMARK SMILES O=C(O)CCc1ccccc1
REMARK SMILES IDX 4 1 2 2 1 3 3 4 5 6 6 7 7 8 11 9 8 10 10 11 9 12
REMARK H PARENT 3 5
REMARK Flexibility Score: inf
ROOT
ATOM      1  C   UNL     1       8.233   0.242  -2.218  1.00  0.00     0.127 C 
ENDROOT
BRANCH   1   2
ATOM      2  C   UNL     1       9.357   0.346  -1.258  1.00  0.00     0.303 C 
ATOM      3  O   UNL     1       9.438  -0.420  -0.266  1.00  0.00    -0.252 OA
BRANCH   2   4
ATOM      4  O   UNL     1      10.353   1.294  -1.429  1.00  0.00    -0.481 OA
ATOM      5  H   UNL     1      10.617   1.891  -0.641  1.00  0.00     0.296 HD
ENDBRANCH   2   4
ENDBRANCH   1   2
BRANCH   1   6
ATOM      6  C   UNL     1       7.114  -0.500  -1.555  1.00  0.00     0.047 C 
BRANCH   6   7
ATOM      7  C   UNL     1       6.332   0.312  -0.623  1.00  0.00    -0.047 A 
ATOM      8  C   UNL     1       5.820   1.528  -1.009  1.00  0.00     0.004 A 
ATOM      9  C   UNL     1       6.110  -0.156   0.651  1.00  0.00     0.004 A 
ATOM     10  C   UNL     1       5.082   2.249  -0.068  1.00  0.00     0.000 A 
ATOM     11  C   UNL     1       5.381   0.558   1.581  1.00  0.00     0.000 A 
ATOM     12  C   UNL     1       4.864   1.778   1.202  1.00  0.00     0.000 A 
ENDBRANCH   6   7
ENDBRANCH   1   6
TORSDOF 4
ENDMDL
MODEL 5
REMARK VINA RESULT:      -6.6      2.008      2.513
REMARK SMILES O=C(O)CCc1ccccc1
REMARK SMILES IDX 4 1 2 2 1 3 3 4 5 6 6 7 7 8 11 9 8 10 10 11 9 12
REMARK H PARENT 3 5
REMARK Flexibility Score: inf
ROOT
ATOM      1  C   UNL     1       7.878  -2.276   0.843  1.00  0.00     0.127 C 
ENDROOT
BRANCH   1   2
ATOM      2  C   UNL     1       8.736  -3.375   0.340  1.00  0.00     0.303 C 
ATOM      3  O   UNL     1       9.639  -3.875   1.055  1.00  0.00    -0.252 OA
BRANCH   2   4
ATOM      4  O   UNL     1       8.563  -3.883  -0.937  1.00  0.00    -0.481 OA
ATOM      5  H   UNL     1       8.949  -4.803  -1.167  1.00  0.00     0.296 HD
ENDBRANCH   2   4
ENDBRANCH   1   2
BRANCH   1   6
ATOM      6  C   UNL     1       7.457  -1.436  -0.325  1.00  0.00     0.047 C 
BRANCH   6   7
ATOM      7  C   UNL     1       6.598  -0.309   0.033  1.00  0.00    -0.047 A 
ATOM      8  C   UNL     1       6.328   0.686  -0.877  1.00  0.00     0.004 A 
ATOM      9  C   UNL     1       6.056  -0.252   1.296  1.00  0.00     0.004 A 
ATOM     10  C   UNL     1       5.498   1.732  -0.467  1.00  0.00     0.000 A 
ATOM     11  C   UNL     1       5.236   0.783   1.700  1.00  0.00     0.000 A 
ATOM     12  C   UNL     1       4.961   1.784   0.794  1.00  0.00     0.000 A 
ENDBRANCH   6   7
ENDBRANCH   1   6
TORSDOF 4
ENDMDL
