@<TRIPOS>MOLECULE
/home/cewinharhar/GITHUB/reincatalyze/data/processed/docking_pred/2023-Apr-26-1657_maxeplen10_maxtrainstep1000_exh32_gamma099_lrac9e-4_lrcr1e-3/51cadb519a72bd0ce332fe372f57097c9ba117cb_ligand_2.pdbqt
 12 12 0 0 0
SMALL
GASTEIGER

@<TRIPOS>ATOM
      1  C          8.4250   -0.6380   -2.1190 C.3     1  UNL1        0.1270
      2  C          8.4700   -1.9030   -2.8900 C.2     1  UNL1        0.3030
      3  O          9.5540   -2.5020   -3.0950 O.2     1  UNL1       -0.2520
      4  O          7.3120   -2.4600   -3.4090 O.3     1  UNL1       -0.4810
      5  H          6.4030   -2.1370   -3.0650 H       1  UNL1        0.2960
      6  C          7.0080   -0.1530   -2.0920 C.3     1  UNL1        0.0470
      7  C          6.4680    0.0330   -0.7460 C.2     1  UNL1       -0.0470
      8  C          5.8500    1.2100   -0.3930 C.2     1  UNL1        0.0040
      9  C          6.5840   -0.9870    0.1700 C.2     1  UNL1        0.0040
     10  C          5.3580    1.3180    0.9100 C.2     1  UNL1        0.0000
     11  C          6.0970   -0.8780    1.4580 C.2     1  UNL1        0.0000
     12  C          5.4770    0.2980    1.8200 C.2     1  UNL1        0.0000
@<TRIPOS>BOND
     1     4     5    1
     2     4     2    1
     3     3     2    2
     4     2     1    1
     5     1     6    1
     6     6     7    1
     7     7     8    2
     8     7     9    1
     9     8    10    1
    10     9    11    2
    11    10    12    2
    12    11    12    1
