@<TRIPOS>MOLECULE
/home/cewinharhar/GITHUB/reincatalyze/data/processed/docking_pred/2023-Apr-26-1657_maxeplen10_maxtrainstep1000_exh32_gamma099_lrac9e-4_lrcr1e-3/51cadb519a72bd0ce332fe372f57097c9ba117cb_ligand_2.pdbqt
 12 12 0 0 0
SMALL
GASTEIGER

@<TRIPOS>ATOM
      1  C          8.1860   -0.8330   -1.9860 C.3     1  UNL1        0.1270
      2  C          8.3750   -1.9960   -2.8850 C.2     1  UNL1        0.3030
      3  O          9.5130   -2.4930   -3.0760 O.2     1  UNL1       -0.2520
      4  O          7.2980   -2.5670   -3.5420 O.3     1  UNL1       -0.4810
      5  H          6.9060   -3.4460   -3.1920 H       1  UNL1        0.2960
      6  C          7.4310   -1.2910   -0.7760 C.3     1  UNL1        0.0470
      7  C          6.5820   -0.2600   -0.1800 C.2     1  UNL1       -0.0470
      8  C          6.2190    0.8550   -0.8990 C.2     1  UNL1        0.0040
      9  C          6.1460   -0.4170    1.1150 C.2     1  UNL1        0.0040
     10  C          5.4060    1.7980   -0.2660 C.2     1  UNL1        0.0000
     11  C          5.3420    0.5160    1.7400 C.2     1  UNL1        0.0000
     12  C          4.9740    1.6360    1.0270 C.2     1  UNL1        0.0000
@<TRIPOS>BOND
     1     4     5    1
     2     4     2    1
     3     3     2    2
     4     2     1    1
     5     1     6    1
     6     8    10    1
     7     8     7    2
     8     6     7    1
     9    10    12    2
    10     7     9    1
    11    12    11    1
    12     9    11    2
