@<TRIPOS>MOLECULE
/home/cewinharhar/GITHUB/reincatalyze/data/processed/docking_pred/2023-Apr-26-1657_maxeplen10_maxtrainstep1000_exh32_gamma099_lrac9e-4_lrcr1e-3/51cadb519a72bd0ce332fe372f57097c9ba117cb_ligand_2.pdbqt
 12 12 0 0 0
SMALL
GASTEIGER

@<TRIPOS>ATOM
      1  C          5.0480    1.7380    0.6730 C.3     1  UNL1        0.1270
      2  C          4.5680    1.0660    1.9040 C.2     1  UNL1        0.3030
      3  O          3.4480    1.3430    2.4020 O.2     1  UNL1       -0.2520
      4  O          5.3440    0.1110    2.5410 O.3     1  UNL1       -0.4810
      5  H          5.5200   -0.7830    2.0750 H       1  UNL1        0.2960
      6  C          6.5450    1.7720    0.7090 C.3     1  UNL1        0.0470
      7  C          7.1830    1.0130   -0.3650 C.2     1  UNL1       -0.0470
      8  C          8.5060    1.2180   -0.6820 C.2     1  UNL1        0.0040
      9  C          6.4450    0.0830   -1.0600 C.2     1  UNL1        0.0040
     10  C          9.0500    0.4560   -1.7190 C.2     1  UNL1        0.0000
     11  C          6.9840   -0.6690   -2.0850 C.2     1  UNL1        0.0000
     12  C          8.3080   -0.4690   -2.4090 C.2     1  UNL1        0.0000
@<TRIPOS>BOND
     1    12    11    2
     2    12    10    1
     3    11     9    1
     4    10     8    2
     5     9     7    2
     6     8     7    1
     7     7     6    1
     8     1     6    1
     9     1     2    1
    10     2     3    2
    11     2     4    1
    12     5     4    1
