@<TRIPOS>MOLECULE
/home/cewinharhar/GITHUB/reincatalyze/data/processed/docking_pred/2023-Apr-26-1657_maxeplen10_maxtrainstep1000_exh32_gamma099_lrac9e-4_lrcr1e-3/51cadb519a72bd0ce332fe372f57097c9ba117cb_ligand_2.pdbqt
 12 12 0 0 0
SMALL
GASTEIGER

@<TRIPOS>ATOM
      1  C          5.0260    1.8440    0.7330 C.3     1  UNL1        0.1270
      2  C          4.4990    1.1320    1.9210 C.2     1  UNL1        0.3030
      3  O          5.1580    0.2190    2.4770 O.2     1  UNL1       -0.2520
      4  O          3.2600    1.4550    2.4510 O.3     1  UNL1       -0.4810
      5  H          3.0200    1.1370    3.3940 H       1  UNL1        0.2960
      6  C          6.5220    1.7840    0.7730 C.3     1  UNL1        0.0470
      7  C          7.1170    1.0380   -0.3340 C.2     1  UNL1       -0.0470
      8  C          6.3620    0.1630   -1.0790 C.2     1  UNL1        0.0040
      9  C          8.4490    1.2210   -0.6280 C.2     1  UNL1        0.0040
     10  C          6.9960   -0.5150   -2.1230 C.2     1  UNL1        0.0000
     11  C          9.0740    0.5500   -1.6600 C.2     1  UNL1        0.0000
     12  C          8.3240   -0.3290   -2.4110 C.2     1  UNL1        0.0000
@<TRIPOS>BOND
     1    12    10    2
     2    12    11    1
     3    10     8    1
     4    11     9    2
     5     8     7    2
     6     9     7    1
     7     7     6    1
     8     1     6    1
     9     1     2    1
    10     2     4    1
    11     2     3    2
    12     4     5    1
