MODEL 1
REMARK VINA RESULT:      -7.4      0.000      0.000
REMARK SMILES O=C(O)CCc1ccccc1
REMARK SMILES IDX 4 1 2 2 1 3 3 4 5 6 6 7 7 8 11 9 8 10 10 11 9 12
REMARK H PARENT 3 5
REMARK Flexibility Score: inf
ROOT
ATOM      1  C   UNL     1       8.461  -0.653  -2.105  1.00  0.00     0.127 C 
ENDROOT
BRANCH   1   2
ATOM      2  C   UNL     1       8.469  -1.914  -2.883  1.00  0.00     0.303 C 
ATOM      3  O   UNL     1       9.532  -2.555  -3.073  1.00  0.00    -0.252 OA
BRANCH   2   4
ATOM      4  O   UNL     1       7.298  -2.422  -3.424  1.00  0.00    -0.481 OA
ATOM      5  H   UNL     1       6.422  -1.911  -3.290  1.00  0.00     0.296 HD
ENDBRANCH   2   4
ENDBRANCH   1   2
BRANCH   1   6
ATOM      6  C   UNL     1       7.065  -0.109  -2.103  1.00  0.00     0.047 C 
BRANCH   6   7
ATOM      7  C   UNL     1       6.491   0.049  -0.768  1.00  0.00    -0.047 A 
ATOM      8  C   UNL     1       6.590  -0.957   0.165  1.00  0.00     0.004 A 
ATOM      9  C   UNL     1       5.847   1.223  -0.449  1.00  0.00     0.004 A 
ATOM     10  C   UNL     1       6.020  -0.736   1.420  1.00  0.00     0.000 A 
ATOM     11  C   UNL     1       5.284   1.440   0.792  1.00  0.00     0.000 A 
ATOM     12  C   UNL     1       5.378   0.437   1.732  1.00  0.00     0.000 A 
ENDBRANCH   6   7
ENDBRANCH   1   6
TORSDOF 4
ENDMDL
MODEL 2
REMARK VINA RESULT:      -7.3      0.103      1.440
REMARK SMILES O=C(O)CCc1ccccc1
REMARK SMILES IDX 4 1 2 2 1 3 3 4 5 6 6 7 7 8 11 9 8 10 10 11 9 12
REMARK H PARENT 3 5
REMARK Flexibility Score: inf
ROOT
ATOM      1  C   UNL     1       8.425  -0.638  -2.119  1.00  0.00     0.127 C 
ENDROOT
BRANCH   1   2
ATOM      2  C   UNL     1       8.470  -1.903  -2.890  1.00  0.00     0.303 C 
ATOM      3  O   UNL     1       9.554  -2.502  -3.095  1.00  0.00    -0.252 OA
BRANCH   2   4
ATOM      4  O   UNL     1       7.312  -2.460  -3.409  1.00  0.00    -0.481 OA
ATOM      5  H   UNL     1       6.403  -2.137  -3.065  1.00  0.00     0.296 HD
ENDBRANCH   2   4
ENDBRANCH   1   2
BRANCH   1   6
ATOM      6  C   UNL     1       7.008  -0.153  -2.092  1.00  0.00     0.047 C 
BRANCH   6   7
ATOM      7  C   UNL     1       6.468   0.033  -0.746  1.00  0.00    -0.047 A 
ATOM      8  C   UNL     1       5.850   1.210  -0.393  1.00  0.00     0.004 A 
ATOM      9  C   UNL     1       6.584  -0.987   0.170  1.00  0.00     0.004 A 
ATOM     10  C   UNL     1       5.358   1.318   0.910  1.00  0.00     0.000 A 
ATOM     11  C   UNL     1       6.097  -0.878   1.458  1.00  0.00     0.000 A 
ATOM     12  C   UNL     1       5.477   0.298   1.820  1.00  0.00     0.000 A 
ENDBRANCH   6   7
ENDBRANCH   1   6
TORSDOF 4
ENDMDL
MODEL 3
REMARK VINA RESULT:      -7.2      0.596      1.572
REMARK SMILES O=C(O)CCc1ccccc1
REMARK SMILES IDX 4 1 2 2 1 3 3 4 5 6 6 7 7 8 11 9 8 10 10 11 9 12
REMARK H PARENT 3 5
REMARK Flexibility Score: inf
ROOT
ATOM      1  C   UNL     1       8.186  -0.833  -1.986  1.00  0.00     0.127 C 
ENDROOT
BRANCH   1   2
ATOM      2  C   UNL     1       8.375  -1.996  -2.885  1.00  0.00     0.303 C 
ATOM      3  O   UNL     1       9.513  -2.493  -3.076  1.00  0.00    -0.252 OA
BRANCH   2   4
ATOM      4  O   UNL     1       7.298  -2.567  -3.542  1.00  0.00    -0.481 OA
ATOM      5  H   UNL     1       6.906  -3.446  -3.192  1.00  0.00     0.296 HD
ENDBRANCH   2   4
ENDBRANCH   1   2
BRANCH   1   6
ATOM      6  C   UNL     1       7.431  -1.291  -0.776  1.00  0.00     0.047 C 
BRANCH   6   7
ATOM      7  C   UNL     1       6.582  -0.260  -0.180  1.00  0.00    -0.047 A 
ATOM      8  C   UNL     1       6.219   0.855  -0.899  1.00  0.00     0.004 A 
ATOM      9  C   UNL     1       6.146  -0.417   1.115  1.00  0.00     0.004 A 
ATOM     10  C   UNL     1       5.406   1.798  -0.266  1.00  0.00     0.000 A 
ATOM     11  C   UNL     1       5.342   0.516   1.740  1.00  0.00     0.000 A 
ATOM     12  C   UNL     1       4.974   1.636   1.027  1.00  0.00     0.000 A 
ENDBRANCH   6   7
ENDBRANCH   1   6
TORSDOF 4
ENDMDL
MODEL 4
REMARK VINA RESULT:      -6.8      3.367      5.065
REMARK SMILES O=C(O)CCc1ccccc1
REMARK SMILES IDX 4 1 2 2 1 3 3 4 5 6 6 7 7 8 11 9 8 10 10 11 9 12
REMARK H PARENT 3 5
REMARK Flexibility Score: inf
ROOT
ATOM      1  C   UNL     1       5.026   1.844   0.733  1.00  0.00     0.127 C 
ENDROOT
BRANCH   1   2
ATOM      2  C   UNL     1       4.499   1.132   1.921  1.00  0.00     0.303 C 
ATOM      3  O   UNL     1       5.158   0.219   2.477  1.00  0.00    -0.252 OA
BRANCH   2   4
ATOM      4  O   UNL     1       3.260   1.455   2.451  1.00  0.00    -0.481 OA
ATOM      5  H   UNL     1       3.020   1.137   3.394  1.00  0.00     0.296 HD
ENDBRANCH   2   4
ENDBRANCH   1   2
BRANCH   1   6
ATOM      6  C   UNL     1       6.522   1.784   0.773  1.00  0.00     0.047 C 
BRANCH   6   7
ATOM      7  C   UNL     1       7.117   1.038  -0.334  1.00  0.00    -0.047 A 
ATOM      8  C   UNL     1       6.362   0.163  -1.079  1.00  0.00     0.004 A 
ATOM      9  C   UNL     1       8.449   1.221  -0.628  1.00  0.00     0.004 A 
ATOM     10  C   UNL     1       6.996  -0.515  -2.123  1.00  0.00     0.000 A 
ATOM     11  C   UNL     1       9.074   0.550  -1.660  1.00  0.00     0.000 A 
ATOM     12  C   UNL     1       8.324  -0.329  -2.411  1.00  0.00     0.000 A 
ENDBRANCH   6   7
ENDBRANCH   1   6
TORSDOF 4
ENDMDL
MODEL 5
REMARK VINA RESULT:      -6.6      3.316      5.109
REMARK SMILES O=C(O)CCc1ccccc1
REMARK SMILES IDX 4 1 2 2 1 3 3 4 5 6 6 7 7 8 11 9 8 10 10 11 9 12
REMARK H PARENT 3 5
REMARK Flexibility Score: inf
ROOT
ATOM      1  C   UNL     1       5.048   1.738   0.673  1.00  0.00     0.127 C 
ENDROOT
BRANCH   1   2
ATOM      2  C   UNL     1       4.568   1.066   1.904  1.00  0.00     0.303 C 
ATOM      3  O   UNL     1       3.448   1.343   2.402  1.00  0.00    -0.252 OA
BRANCH   2   4
ATOM      4  O   UNL     1       5.344   0.111   2.541  1.00  0.00    -0.481 OA
ATOM      5  H   UNL     1       5.520  -0.783   2.075  1.00  0.00     0.296 HD
ENDBRANCH   2   4
ENDBRANCH   1   2
BRANCH   1   6
ATOM      6  C   UNL     1       6.545   1.772   0.709  1.00  0.00     0.047 C 
BRANCH   6   7
ATOM      7  C   UNL     1       7.183   1.013  -0.365  1.00  0.00    -0.047 A 
ATOM      8  C   UNL     1       8.506   1.218  -0.682  1.00  0.00     0.004 A 
ATOM      9  C   UNL     1       6.445   0.083  -1.060  1.00  0.00     0.004 A 
ATOM     10  C   UNL     1       9.050   0.456  -1.719  1.00  0.00     0.000 A 
ATOM     11  C   UNL     1       6.984  -0.669  -2.085  1.00  0.00     0.000 A 
ATOM     12  C   UNL     1       8.308  -0.469  -2.409  1.00  0.00     0.000 A 
ENDBRANCH   6   7
ENDBRANCH   1   6
TORSDOF 4
ENDMDL
