MODEL 1
REMARK VINA RESULT:      -7.3      0.000      0.000
REMARK SMILES O=C(O)CCc1ccccc1
REMARK SMILES IDX 4 1 2 2 1 3 3 4 5 6 6 7 7 8 11 9 8 10 10 11 9 12
REMARK H PARENT 3 5
REMARK Flexibility Score: inf
ROOT
ATOM      1  C   UNL     1       8.442  -0.665  -2.080  1.00  0.00     0.127 C 
ENDROOT
BRANCH   1   2
ATOM      2  C   UNL     1       8.467  -1.913  -2.878  1.00  0.00     0.303 C 
ATOM      3  O   UNL     1       9.540  -2.531  -3.087  1.00  0.00    -0.252 OA
BRANCH   2   4
ATOM      4  O   UNL     1       7.302  -2.434  -3.418  1.00  0.00    -0.481 OA
ATOM      5  H   UNL     1       6.870  -1.968  -4.221  1.00  0.00     0.296 HD
ENDBRANCH   2   4
ENDBRANCH   1   2
BRANCH   1   6
ATOM      6  C   UNL     1       7.042  -0.131  -2.084  1.00  0.00     0.047 C 
BRANCH   6   7
ATOM      7  C   UNL     1       6.473   0.056  -0.751  1.00  0.00    -0.047 A 
ATOM      8  C   UNL     1       5.826   1.224  -0.420  1.00  0.00     0.004 A 
ATOM      9  C   UNL     1       6.590  -0.953   0.177  1.00  0.00     0.004 A 
ATOM     10  C   UNL     1       5.307   1.334   0.872  1.00  0.00     0.000 A 
ATOM     11  C   UNL     1       6.076  -0.843   1.454  1.00  0.00     0.000 A 
ATOM     12  C   UNL     1       5.427   0.324   1.793  1.00  0.00     0.000 A 
ENDBRANCH   6   7
ENDBRANCH   1   6
TORSDOF 4
ENDMDL
MODEL 2
REMARK VINA RESULT:      -7.3      0.103      1.731
REMARK SMILES O=C(O)CCc1ccccc1
REMARK SMILES IDX 4 1 2 2 1 3 3 4 5 6 6 7 7 8 11 9 8 10 10 11 9 12
REMARK H PARENT 3 5
REMARK Flexibility Score: inf
ROOT
ATOM      1  C   UNL     1       8.403  -0.611  -2.152  1.00  0.00     0.127 C 
ENDROOT
BRANCH   1   2
ATOM      2  C   UNL     1       8.374  -1.885  -2.908  1.00  0.00     0.303 C 
ATOM      3  O   UNL     1       7.288  -2.415  -3.251  1.00  0.00    -0.252 OA
BRANCH   2   4
ATOM      4  O   UNL     1       9.550  -2.530  -3.258  1.00  0.00    -0.481 OA
ATOM      5  H   UNL     1      10.271  -2.677  -2.546  1.00  0.00     0.296 HD
ENDBRANCH   2   4
ENDBRANCH   1   2
BRANCH   1   6
ATOM      6  C   UNL     1       7.011  -0.059  -2.108  1.00  0.00     0.047 C 
BRANCH   6   7
ATOM      7  C   UNL     1       6.468   0.076  -0.757  1.00  0.00    -0.047 A 
ATOM      8  C   UNL     1       6.595  -0.943   0.158  1.00  0.00     0.004 A 
ATOM      9  C   UNL     1       5.826   1.241  -0.405  1.00  0.00     0.004 A 
ATOM     10  C   UNL     1       6.054  -0.745   1.430  1.00  0.00     0.000 A 
ATOM     11  C   UNL     1       5.291   1.436   0.853  1.00  0.00     0.000 A 
ATOM     12  C   UNL     1       5.414   0.419   1.775  1.00  0.00     0.000 A 
ENDBRANCH   6   7
ENDBRANCH   1   6
TORSDOF 4
ENDMDL
MODEL 3
REMARK VINA RESULT:      -6.7      3.344      5.067
REMARK SMILES O=C(O)CCc1ccccc1
REMARK SMILES IDX 4 1 2 2 1 3 3 4 5 6 6 7 7 8 11 9 8 10 10 11 9 12
REMARK H PARENT 3 5
REMARK Flexibility Score: inf
ROOT
ATOM      1  C   UNL     1       5.067   1.791   0.718  1.00  0.00     0.127 C 
ENDROOT
BRANCH   1   2
ATOM      2  C   UNL     1       4.540   1.054   1.890  1.00  0.00     0.303 C 
ATOM      3  O   UNL     1       5.177   0.099   2.399  1.00  0.00    -0.252 OA
BRANCH   2   4
ATOM      4  O   UNL     1       3.324   1.399   2.458  1.00  0.00    -0.481 OA
ATOM      5  H   UNL     1       3.226   1.390   3.477  1.00  0.00     0.296 HD
ENDBRANCH   2   4
ENDBRANCH   1   2
BRANCH   1   6
ATOM      6  C   UNL     1       6.564   1.735   0.761  1.00  0.00     0.047 C 
BRANCH   6   7
ATOM      7  C   UNL     1       7.165   1.014  -0.359  1.00  0.00    -0.047 A 
ATOM      8  C   UNL     1       6.432   0.102  -1.083  1.00  0.00     0.004 A 
ATOM      9  C   UNL     1       8.478   1.259  -0.689  1.00  0.00     0.004 A 
ATOM     10  C   UNL     1       7.070  -0.549  -2.141  1.00  0.00     0.000 A 
ATOM     11  C   UNL     1       9.107   0.614  -1.735  1.00  0.00     0.000 A 
ATOM     12  C   UNL     1       8.380  -0.302  -2.464  1.00  0.00     0.000 A 
ENDBRANCH   6   7
ENDBRANCH   1   6
TORSDOF 4
ENDMDL
MODEL 4
REMARK VINA RESULT:      -6.6      3.710      5.066
REMARK SMILES O=C(O)CCc1ccccc1
REMARK SMILES IDX 4 1 2 2 1 3 3 4 5 6 6 7 7 8 11 9 8 10 10 11 9 12
REMARK H PARENT 3 5
REMARK Flexibility Score: inf
ROOT
ATOM      1  C   UNL     1       5.331   2.945   0.045  1.00  0.00     0.127 C 
ENDROOT
BRANCH   1   2
ATOM      2  C   UNL     1       6.204   3.855   0.824  1.00  0.00     0.303 C 
ATOM      3  O   UNL     1       6.850   4.775   0.263  1.00  0.00    -0.252 OA
BRANCH   2   4
ATOM      4  O   UNL     1       6.331   3.715   2.196  1.00  0.00    -0.481 OA
ATOM      5  H   UNL     1       5.715   4.252   2.814  1.00  0.00     0.296 HD
ENDBRANCH   2   4
ENDBRANCH   1   2
BRANCH   1   6
ATOM      6  C   UNL     1       5.148   1.682   0.831  1.00  0.00     0.047 C 
BRANCH   6   7
ATOM      7  C   UNL     1       5.969   0.567   0.362  1.00  0.00    -0.047 A 
ATOM      8  C   UNL     1       6.363  -0.428   1.227  1.00  0.00     0.004 A 
ATOM      9  C   UNL     1       6.345   0.519  -0.960  1.00  0.00     0.004 A 
ATOM     10  C   UNL     1       7.145  -1.464   0.710  1.00  0.00     0.000 A 
ATOM     11  C   UNL     1       7.119  -0.506  -1.469  1.00  0.00     0.000 A 
ATOM     12  C   UNL     1       7.518  -1.506  -0.609  1.00  0.00     0.000 A 
ENDBRANCH   6   7
ENDBRANCH   1   6
TORSDOF 4
ENDMDL
MODEL 5
REMARK VINA RESULT:      -6.5      1.884      2.836
REMARK SMILES O=C(O)CCc1ccccc1
REMARK SMILES IDX 4 1 2 2 1 3 3 4 5 6 6 7 7 8 11 9 8 10 10 11 9 12
REMARK H PARENT 3 5
REMARK Flexibility Score: inf
ROOT
ATOM      1  C   UNL     1       8.157  -1.591   1.190  1.00  0.00     0.127 C 
ENDROOT
BRANCH   1   2
ATOM      2  C   UNL     1       8.486  -2.787   0.379  1.00  0.00     0.303 C 
ATOM      3  O   UNL     1       9.150  -3.737   0.861  1.00  0.00    -0.252 OA
BRANCH   2   4
ATOM      4  O   UNL     1       8.068  -2.888  -0.938  1.00  0.00    -0.481 OA
ATOM      5  H   UNL     1       7.553  -3.721  -1.237  1.00  0.00     0.296 HD
ENDBRANCH   2   4
ENDBRANCH   1   2
BRANCH   1   6
ATOM      6  C   UNL     1       6.665  -1.480   1.282  1.00  0.00     0.047 C 
BRANCH   6   7
ATOM      7  C   UNL     1       6.132  -0.209   0.795  1.00  0.00    -0.047 A 
ATOM      8  C   UNL     1       5.380   0.599   1.615  1.00  0.00     0.004 A 
ATOM      9  C   UNL     1       6.393   0.176  -0.500  1.00  0.00     0.004 A 
ATOM     10  C   UNL     1       4.904   1.799   1.084  1.00  0.00     0.000 A 
ATOM     11  C   UNL     1       5.921   1.363  -1.024  1.00  0.00     0.000 A 
ATOM     12  C   UNL     1       5.166   2.178  -0.209  1.00  0.00     0.000 A 
ENDBRANCH   6   7
ENDBRANCH   1   6
TORSDOF 4
ENDMDL
