@<TRIPOS>MOLECULE
/home/cewinharhar/GITHUB/reincatalyze/data/processed/docking_pred/2023-Apr-26-1657_maxeplen10_maxtrainstep1000_exh32_gamma099_lrac9e-4_lrcr1e-3/53c3fbcdd7c01d09a3e8b21e27d629f70ce21da9_ligand_2.pdbqt
 12 12 0 0 0
SMALL
GASTEIGER

@<TRIPOS>ATOM
      1  C          8.4030   -0.6110   -2.1520 C.3     1  UNL1        0.1270
      2  C          8.3740   -1.8850   -2.9080 C.2     1  UNL1        0.3030
      3  O          7.2880   -2.4150   -3.2510 O.2     1  UNL1       -0.2520
      4  O          9.5500   -2.5300   -3.2580 O.3     1  UNL1       -0.4810
      5  H         10.2710   -2.6770   -2.5460 H       1  UNL1        0.2960
      6  C          7.0110   -0.0590   -2.1080 C.3     1  UNL1        0.0470
      7  C          6.4680    0.0760   -0.7570 C.2     1  UNL1       -0.0470
      8  C          6.5950   -0.9430    0.1580 C.2     1  UNL1        0.0040
      9  C          5.8260    1.2410   -0.4050 C.2     1  UNL1        0.0040
     10  C          6.0540   -0.7450    1.4300 C.2     1  UNL1        0.0000
     11  C          5.2910    1.4360    0.8530 C.2     1  UNL1        0.0000
     12  C          5.4140    0.4190    1.7750 C.2     1  UNL1        0.0000
@<TRIPOS>BOND
     1     4     2    1
     2     4     5    1
     3     3     2    2
     4     2     1    1
     5     1     6    1
     6     6     7    1
     7     7     9    2
     8     7     8    1
     9     9    11    1
    10     8    10    2
    11    11    12    2
    12    10    12    1
