@<TRIPOS>MOLECULE
/home/cewinharhar/GITHUB/reincatalyze/data/processed/docking_pred/2023-Apr-26-1657_maxeplen10_maxtrainstep1000_exh32_gamma099_lrac9e-4_lrcr1e-3/53c3fbcdd7c01d09a3e8b21e27d629f70ce21da9_ligand_2.pdbqt
 12 12 0 0 0
SMALL
GASTEIGER

@<TRIPOS>ATOM
      1  C          5.0670    1.7910    0.7180 C.3     1  UNL1        0.1270
      2  C          4.5400    1.0540    1.8900 C.2     1  UNL1        0.3030
      3  O          5.1770    0.0990    2.3990 O.2     1  UNL1       -0.2520
      4  O          3.3240    1.3990    2.4580 O.3     1  UNL1       -0.4810
      5  H          3.2260    1.3900    3.4770 H       1  UNL1        0.2960
      6  C          6.5640    1.7350    0.7610 C.3     1  UNL1        0.0470
      7  C          7.1650    1.0140   -0.3590 C.2     1  UNL1       -0.0470
      8  C          6.4320    0.1020   -1.0830 C.2     1  UNL1        0.0040
      9  C          8.4780    1.2590   -0.6890 C.2     1  UNL1        0.0040
     10  C          7.0700   -0.5490   -2.1410 C.2     1  UNL1        0.0000
     11  C          9.1070    0.6140   -1.7350 C.2     1  UNL1        0.0000
     12  C          8.3800   -0.3020   -2.4640 C.2     1  UNL1        0.0000
@<TRIPOS>BOND
     1    12    10    2
     2    12    11    1
     3    10     8    1
     4    11     9    2
     5     8     7    2
     6     9     7    1
     7     7     6    1
     8     1     6    1
     9     1     2    1
    10     2     3    2
    11     2     4    1
    12     4     5    1
