@<TRIPOS>MOLECULE
/home/cewinharhar/GITHUB/reincatalyze/data/processed/docking_pred/2023-Apr-26-1657_maxeplen10_maxtrainstep1000_exh32_gamma099_lrac9e-4_lrcr1e-3/53c3fbcdd7c01d09a3e8b21e27d629f70ce21da9_ligand_2.pdbqt
 12 12 0 0 0
SMALL
GASTEIGER

@<TRIPOS>ATOM
      1  C          8.1570   -1.5910    1.1900 C.3     1  UNL1        0.1270
      2  C          8.4860   -2.7870    0.3790 C.2     1  UNL1        0.3030
      3  O          9.1500   -3.7370    0.8610 O.2     1  UNL1       -0.2520
      4  O          8.0680   -2.8880   -0.9380 O.3     1  UNL1       -0.4810
      5  H          7.5530   -3.7210   -1.2370 H       1  UNL1        0.2960
      6  C          6.6650   -1.4800    1.2820 C.3     1  UNL1        0.0470
      7  C          6.1320   -0.2090    0.7950 C.2     1  UNL1       -0.0470
      8  C          5.3800    0.5990    1.6150 C.2     1  UNL1        0.0040
      9  C          6.3930    0.1760   -0.5000 C.2     1  UNL1        0.0040
     10  C          4.9040    1.7990    1.0840 C.2     1  UNL1        0.0000
     11  C          5.9210    1.3630   -1.0240 C.2     1  UNL1        0.0000
     12  C          5.1660    2.1780   -0.2090 C.2     1  UNL1        0.0000
@<TRIPOS>BOND
     1     5     4    1
     2    11     9    1
     3    11    12    2
     4     4     2    1
     5     9     7    2
     6    12    10    1
     7     2     3    2
     8     2     1    1
     9     7     6    1
    10     7     8    1
    11    10     8    2
    12     1     6    1
