@<TRIPOS>MOLECULE
/home/cewinharhar/GITHUB/reincatalyze/data/processed/docking_pred/2023-Apr-26-1657_maxeplen10_maxtrainstep1000_exh32_gamma099_lrac9e-4_lrcr1e-3/53c3fbcdd7c01d09a3e8b21e27d629f70ce21da9_ligand_2.pdbqt
 12 12 0 0 0
SMALL
GASTEIGER

@<TRIPOS>ATOM
      1  C          5.3310    2.9450    0.0450 C.3     1  UNL1        0.1270
      2  C          6.2040    3.8550    0.8240 C.2     1  UNL1        0.3030
      3  O          6.8500    4.7750    0.2630 O.2     1  UNL1       -0.2520
      4  O          6.3310    3.7150    2.1960 O.3     1  UNL1       -0.4810
      5  H          5.7150    4.2520    2.8140 H       1  UNL1        0.2960
      6  C          5.1480    1.6820    0.8310 C.3     1  UNL1        0.0470
      7  C          5.9690    0.5670    0.3620 C.2     1  UNL1       -0.0470
      8  C          6.3630   -0.4280    1.2270 C.2     1  UNL1        0.0040
      9  C          6.3450    0.5190   -0.9600 C.2     1  UNL1        0.0040
     10  C          7.1450   -1.4640    0.7100 C.2     1  UNL1        0.0000
     11  C          7.1190   -0.5060   -1.4690 C.2     1  UNL1        0.0000
     12  C          7.5180   -1.5060   -0.6090 C.2     1  UNL1        0.0000
@<TRIPOS>BOND
     1    11     9    1
     2    11    12    2
     3     9     7    2
     4    12    10    1
     5     1     2    1
     6     1     6    1
     7     3     2    2
     8     7     6    1
     9     7     8    1
    10    10     8    2
    11     2     4    1
    12     4     5    1
