@<TRIPOS>MOLECULE
/home/cewinharhar/GITHUB/reincatalyze/data/processed/docking_pred/2023-Apr-26-1657_maxeplen10_maxtrainstep1000_exh32_gamma099_lrac9e-4_lrcr1e-3/53c3fbcdd7c01d09a3e8b21e27d629f70ce21da9_ligand_2.pdbqt
 12 12 0 0 0
SMALL
GASTEIGER

@<TRIPOS>ATOM
      1  C          8.4420   -0.6650   -2.0800 C.3     1  UNL1        0.1270
      2  C          8.4670   -1.9130   -2.8780 C.2     1  UNL1        0.3030
      3  O          9.5400   -2.5310   -3.0870 O.2     1  UNL1       -0.2520
      4  O          7.3020   -2.4340   -3.4180 O.3     1  UNL1       -0.4810
      5  H          6.8700   -1.9680   -4.2210 H       1  UNL1        0.2960
      6  C          7.0420   -0.1310   -2.0840 C.3     1  UNL1        0.0470
      7  C          6.4730    0.0560   -0.7510 C.2     1  UNL1       -0.0470
      8  C          5.8260    1.2240   -0.4200 C.2     1  UNL1        0.0040
      9  C          6.5900   -0.9530    0.1770 C.2     1  UNL1        0.0040
     10  C          5.3070    1.3340    0.8720 C.2     1  UNL1        0.0000
     11  C          6.0760   -0.8430    1.4540 C.2     1  UNL1        0.0000
     12  C          5.4270    0.3240    1.7930 C.2     1  UNL1        0.0000
@<TRIPOS>BOND
     1     5     4    1
     2     4     2    1
     3     3     2    2
     4     2     1    1
     5     6     1    1
     6     6     7    1
     7     7     8    2
     8     7     9    1
     9     8    10    1
    10     9    11    2
    11    10    12    2
    12    11    12    1
