@<TRIPOS>MOLECULE
/home/cewinharhar/GITHUB/reincatalyze/data/processed/docking_pred/2023-Apr-26-1657_maxeplen10_maxtrainstep1000_exh32_gamma099_lrac9e-4_lrcr1e-3/544f4ddee7da09465e084ab518e20d4fbc72de61_ligand_2.pdbqt
 12 12 0 0 0
SMALL
GASTEIGER

@<TRIPOS>ATOM
      1  C          8.2660   -0.8730   -1.8830 C.3     1  UNL1        0.1270
      2  C          8.4300   -1.9840   -2.8500 C.2     1  UNL1        0.3030
      3  O          9.5650   -2.4480   -3.1230 O.2     1  UNL1       -0.2520
      4  O          7.3310   -2.5430   -3.4820 O.3     1  UNL1       -0.4810
      5  H          7.3260   -3.5470   -3.6840 H       1  UNL1        0.2960
      6  C          7.3280   -1.3220   -0.8050 C.3     1  UNL1        0.0470
      7  C          6.5350   -0.2420   -0.2190 C.2     1  UNL1       -0.0470
      8  C          6.1840    0.8570   -0.9670 C.2     1  UNL1        0.0040
      9  C          6.1390   -0.3370    1.0950 C.2     1  UNL1        0.0040
     10  C          5.4250    1.8500   -0.3430 C.2     1  UNL1        0.0000
     11  C          5.3900    0.6450    1.7110 C.2     1  UNL1        0.0000
     12  C          5.0340    1.7510    0.9690 C.2     1  UNL1        0.0000
@<TRIPOS>BOND
     1     5     4    1
     2     4     2    1
     3     3     2    2
     4     2     1    1
     5     1     6    1
     6     8    10    1
     7     8     7    2
     8     6     7    1
     9    10    12    2
    10     7     9    1
    11    12    11    1
    12     9    11    2
