@<TRIPOS>MOLECULE
/home/cewinharhar/GITHUB/reincatalyze/data/processed/docking_pred/2023-Apr-26-1657_maxeplen10_maxtrainstep1000_exh32_gamma099_lrac9e-4_lrcr1e-3/544f4ddee7da09465e084ab518e20d4fbc72de61_ligand_2.pdbqt
 12 12 0 0 0
SMALL
GASTEIGER

@<TRIPOS>ATOM
      1  C          8.4320   -0.6120   -2.1640 C.3     1  UNL1        0.1270
      2  C          8.4780   -1.8940   -2.9050 C.2     1  UNL1        0.3030
      3  O          9.5620   -2.5010   -3.0890 O.2     1  UNL1       -0.2520
      4  O          7.3210   -2.4610   -3.4160 O.3     1  UNL1       -0.4810
      5  H          7.2620   -3.4790   -3.5110 H       1  UNL1        0.2960
      6  C          7.0100   -0.1400   -2.1280 C.3     1  UNL1        0.0470
      7  C          6.4790    0.0430   -0.7780 C.2     1  UNL1       -0.0470
      8  C          5.8650    1.2200   -0.4170 C.2     1  UNL1        0.0040
      9  C          6.5960   -0.9810    0.1340 C.2     1  UNL1        0.0040
     10  C          5.3800    1.3240    0.8890 C.2     1  UNL1        0.0000
     11  C          6.1170   -0.8760    1.4240 C.2     1  UNL1        0.0000
     12  C          5.5010    0.3000    1.7940 C.2     1  UNL1        0.0000
@<TRIPOS>BOND
     1     5     4    1
     2     4     2    1
     3     3     2    2
     4     2     1    1
     5     1     6    1
     6     6     7    1
     7     7     8    2
     8     7     9    1
     9     8    10    1
    10     9    11    2
    11    10    12    2
    12    11    12    1
