@<TRIPOS>MOLECULE
/home/cewinharhar/GITHUB/reincatalyze/data/processed/docking_pred/2023-Apr-26-1657_maxeplen10_maxtrainstep1000_exh32_gamma099_lrac9e-4_lrcr1e-3/544f4ddee7da09465e084ab518e20d4fbc72de61_ligand_2.pdbqt
 12 12 0 0 0
SMALL
GASTEIGER

@<TRIPOS>ATOM
      1  C          8.1810   -0.8910   -1.8790 C.3     1  UNL1        0.1270
      2  C          8.2700   -1.9790   -2.8810 C.2     1  UNL1        0.3030
      3  O          7.2390   -2.4560   -3.4180 O.2     1  UNL1       -0.2520
      4  O          9.4980   -2.5020   -3.2540 O.3     1  UNL1       -0.4810
      5  H         10.2360   -1.8690   -3.5740 H       1  UNL1        0.2960
      6  C          7.3220   -1.3640   -0.7460 C.3     1  UNL1        0.0470
      7  C          6.5180   -0.3100   -0.1290 C.2     1  UNL1       -0.0470
      8  C          6.0790   -0.4290    1.1690 C.2     1  UNL1        0.0040
      9  C          6.2030    0.8100   -0.8630 C.2     1  UNL1        0.0040
     10  C          5.3160    0.6160    1.6930 C.2     1  UNL1        0.0000
     11  C          5.4480    1.8430   -0.3430 C.2     1  UNL1        0.0000
     12  C          5.0040    1.7310    0.9570 C.2     1  UNL1        0.0000
@<TRIPOS>BOND
     1     5     4    1
     2     3     2    2
     3     4     2    1
     4     2     1    1
     5     1     6    1
     6     9    11    1
     7     9     7    2
     8     6     7    1
     9    11    12    2
    10     7     8    1
    11    12    10    1
    12     8    10    2
