@<TRIPOS>MOLECULE
/home/cewinharhar/GITHUB/reincatalyze/data/processed/docking_pred/2023-Apr-26-1657_maxeplen10_maxtrainstep1000_exh32_gamma099_lrac9e-4_lrcr1e-3/544f4ddee7da09465e084ab518e20d4fbc72de61_ligand_2.pdbqt
 12 12 0 0 0
SMALL
GASTEIGER

@<TRIPOS>ATOM
      1  C          5.0320    1.7760    0.6350 C.3     1  UNL1        0.1270
      2  C          4.5350    1.1370    1.8770 C.2     1  UNL1        0.3030
      3  O          5.2150    0.2700    2.4790 O.2     1  UNL1       -0.2520
      4  O          3.3020    1.4810    2.4070 O.3     1  UNL1       -0.4810
      5  H          2.6550    2.0430    1.8470 H       1  UNL1        0.2960
      6  C          6.5300    1.7950    0.6830 C.3     1  UNL1        0.0470
      7  C          7.1680    1.0320   -0.3880 C.2     1  UNL1       -0.0470
      8  C          8.4990    1.2140   -0.6850 C.2     1  UNL1        0.0040
      9  C          6.4220    0.1210   -1.0990 C.2     1  UNL1        0.0040
     10  C          9.0430    0.4500   -1.7190 C.2     1  UNL1        0.0000
     11  C          6.9620   -0.6340   -2.1220 C.2     1  UNL1        0.0000
     12  C          8.2940   -0.4570   -2.4260 C.2     1  UNL1        0.0000
@<TRIPOS>BOND
     1    12    11    2
     2    12    10    1
     3    11     9    1
     4    10     8    2
     5     9     7    2
     6     8     7    1
     7     7     6    1
     8     1     6    1
     9     1     2    1
    10     5     4    1
    11     2     4    1
    12     2     3    2
