@<TRIPOS>MOLECULE
/home/cewinharhar/GITHUB/reincatalyze/data/processed/docking_pred/2023-Apr-26-1657_maxeplen10_maxtrainstep1000_exh32_gamma099_lrac9e-4_lrcr1e-3/544f4ddee7da09465e084ab518e20d4fbc72de61_ligand_2.pdbqt
 12 12 0 0 0
SMALL
GASTEIGER

@<TRIPOS>ATOM
      1  C          8.4670   -0.6530   -2.0870 C.3     1  UNL1        0.1270
      2  C          8.4840   -1.9080   -2.8750 C.2     1  UNL1        0.3030
      3  O          9.5540   -2.5320   -3.0830 O.2     1  UNL1       -0.2520
      4  O          7.3150   -2.4300   -3.4050 O.3     1  UNL1       -0.4810
      5  H          7.3290   -2.8380   -4.3430 H       1  UNL1        0.2960
      6  C          7.0680   -0.1170   -2.0860 C.3     1  UNL1        0.0470
      7  C          6.4940    0.0430   -0.7510 C.2     1  UNL1       -0.0470
      8  C          6.5840   -0.9670    0.1790 C.2     1  UNL1        0.0040
      9  C          5.8600    1.2210   -0.4300 C.2     1  UNL1        0.0040
     10  C          6.0140   -0.7440    1.4340 C.2     1  UNL1        0.0000
     11  C          5.2960    1.4390    0.8120 C.2     1  UNL1        0.0000
     12  C          5.3810    0.4320    1.7490 C.2     1  UNL1        0.0000
@<TRIPOS>BOND
     1     5     4    1
     2     4     2    1
     3     3     2    2
     4     2     1    1
     5     1     6    1
     6     6     7    1
     7     7     9    2
     8     7     8    1
     9     9    11    1
    10     8    10    2
    11    11    12    2
    12    10    12    1
