MODEL 1
REMARK VINA RESULT:      -7.3      0.000      0.000
REMARK SMILES O=C(O)CCc1ccccc1
REMARK SMILES IDX 4 1 2 2 1 3 3 4 5 6 6 7 7 8 11 9 8 10 10 11 9 12
REMARK H PARENT 3 5
REMARK Flexibility Score: inf
ROOT
ATOM      1  C   UNL     1       8.424  -0.594  -2.149  1.00  0.00     0.127 C 
ENDROOT
BRANCH   1   2
ATOM      2  C   UNL     1       8.475  -1.871  -2.899  1.00  0.00     0.303 C 
ATOM      3  O   UNL     1       9.562  -2.470  -3.092  1.00  0.00    -0.252 OA
BRANCH   2   4
ATOM      4  O   UNL     1       7.320  -2.441  -3.411  1.00  0.00    -0.481 OA
ATOM      5  H   UNL     1       7.117  -3.425  -3.215  1.00  0.00     0.296 HD
ENDBRANCH   2   4
ENDBRANCH   1   2
BRANCH   1   6
ATOM      6  C   UNL     1       7.000  -0.130  -2.106  1.00  0.00     0.047 C 
BRANCH   6   7
ATOM      7  C   UNL     1       6.471   0.044  -0.754  1.00  0.00    -0.047 A 
ATOM      8  C   UNL     1       5.851   1.215  -0.387  1.00  0.00     0.004 A 
ATOM      9  C   UNL     1       6.598  -0.983   0.153  1.00  0.00     0.004 A 
ATOM     10  C   UNL     1       5.369   1.311   0.921  1.00  0.00     0.000 A 
ATOM     11  C   UNL     1       6.122  -0.886   1.445  1.00  0.00     0.000 A 
ATOM     12  C   UNL     1       5.500   0.284   1.822  1.00  0.00     0.000 A 
ENDBRANCH   6   7
ENDBRANCH   1   6
TORSDOF 4
ENDMDL
MODEL 2
REMARK VINA RESULT:      -7.3      0.055      1.437
REMARK SMILES O=C(O)CCc1ccccc1
REMARK SMILES IDX 4 1 2 2 1 3 3 4 5 6 6 7 7 8 11 9 8 10 10 11 9 12
REMARK H PARENT 3 5
REMARK Flexibility Score: inf
ROOT
ATOM      1  C   UNL     1       8.431  -0.580  -2.185  1.00  0.00     0.127 C 
ENDROOT
BRANCH   1   2
ATOM      2  C   UNL     1       8.486  -1.872  -2.908  1.00  0.00     0.303 C 
ATOM      3  O   UNL     1       9.575  -2.470  -3.091  1.00  0.00    -0.252 OA
BRANCH   2   4
ATOM      4  O   UNL     1       7.332  -2.458  -3.404  1.00  0.00    -0.481 OA
ATOM      5  H   UNL     1       6.652  -1.880  -3.905  1.00  0.00     0.296 HD
ENDBRANCH   2   4
ENDBRANCH   1   2
BRANCH   1   6
ATOM      6  C   UNL     1       7.001  -0.136  -2.123  1.00  0.00     0.047 C 
BRANCH   6   7
ATOM      7  C   UNL     1       6.481   0.008  -0.765  1.00  0.00    -0.047 A 
ATOM      8  C   UNL     1       6.616  -1.010   0.151  1.00  0.00     0.004 A 
ATOM      9  C   UNL     1       5.853   1.178  -0.406  1.00  0.00     0.004 A 
ATOM     10  C   UNL     1       6.096  -0.803   1.431  1.00  0.00     0.000 A 
ATOM     11  C   UNL     1       5.339   1.380   0.859  1.00  0.00     0.000 A 
ATOM     12  C   UNL     1       5.469   0.366   1.783  1.00  0.00     0.000 A 
ENDBRANCH   6   7
ENDBRANCH   1   6
TORSDOF 4
ENDMDL
MODEL 3
REMARK VINA RESULT:      -7.3      0.650      1.623
REMARK SMILES O=C(O)CCc1ccccc1
REMARK SMILES IDX 4 1 2 2 1 3 3 4 5 6 6 7 7 8 11 9 8 10 10 11 9 12
REMARK H PARENT 3 5
REMARK Flexibility Score: inf
ROOT
ATOM      1  C   UNL     1       8.199  -0.893  -1.894  1.00  0.00     0.127 C 
ENDROOT
BRANCH   1   2
ATOM      2  C   UNL     1       8.388  -2.004  -2.857  1.00  0.00     0.303 C 
ATOM      3  O   UNL     1       9.529  -2.473  -3.094  1.00  0.00    -0.252 OA
BRANCH   2   4
ATOM      4  O   UNL     1       7.307  -2.557  -3.524  1.00  0.00    -0.481 OA
ATOM      5  H   UNL     1       7.473  -3.254  -4.255  1.00  0.00     0.296 HD
ENDBRANCH   2   4
ENDBRANCH   1   2
BRANCH   1   6
ATOM      6  C   UNL     1       7.306  -1.373  -0.791  1.00  0.00     0.047 C 
BRANCH   6   7
ATOM      7  C   UNL     1       6.517  -0.315  -0.163  1.00  0.00    -0.047 A 
ATOM      8  C   UNL     1       6.096  -0.431   1.142  1.00  0.00     0.004 A 
ATOM      9  C   UNL     1       6.197   0.807  -0.892  1.00  0.00     0.004 A 
ATOM     10  C   UNL     1       5.347   0.618   1.678  1.00  0.00     0.000 A 
ATOM     11  C   UNL     1       5.455   1.844  -0.361  1.00  0.00     0.000 A 
ATOM     12  C   UNL     1       5.030   1.735   0.945  1.00  0.00     0.000 A 
ENDBRANCH   6   7
ENDBRANCH   1   6
TORSDOF 4
ENDMDL
MODEL 4
REMARK VINA RESULT:      -6.8      3.370      5.041
REMARK SMILES O=C(O)CCc1ccccc1
REMARK SMILES IDX 4 1 2 2 1 3 3 4 5 6 6 7 7 8 11 9 8 10 10 11 9 12
REMARK H PARENT 3 5
REMARK Flexibility Score: inf
ROOT
ATOM      1  C   UNL     1       5.016   1.750   0.647  1.00  0.00     0.127 C 
ENDROOT
BRANCH   1   2
ATOM      2  C   UNL     1       4.520   1.110   1.888  1.00  0.00     0.303 C 
ATOM      3  O   UNL     1       5.195   0.235   2.484  1.00  0.00    -0.252 OA
BRANCH   2   4
ATOM      4  O   UNL     1       3.292   1.462   2.427  1.00  0.00    -0.481 OA
ATOM      5  H   UNL     1       2.502   0.818   2.333  1.00  0.00     0.296 HD
ENDBRANCH   2   4
ENDBRANCH   1   2
BRANCH   1   6
ATOM      6  C   UNL     1       6.512   1.788   0.703  1.00  0.00     0.047 C 
BRANCH   6   7
ATOM      7  C   UNL     1       7.167   1.032  -0.364  1.00  0.00    -0.047 A 
ATOM      8  C   UNL     1       8.502   1.215  -0.639  1.00  0.00     0.004 A 
ATOM      9  C   UNL     1       6.431   0.128  -1.095  1.00  0.00     0.004 A 
ATOM     10  C   UNL     1       9.061   0.459  -1.671  1.00  0.00     0.000 A 
ATOM     11  C   UNL     1       6.985  -0.619  -2.115  1.00  0.00     0.000 A 
ATOM     12  C   UNL     1       8.322  -0.441  -2.397  1.00  0.00     0.000 A 
ENDBRANCH   6   7
ENDBRANCH   1   6
TORSDOF 4
ENDMDL
MODEL 5
REMARK VINA RESULT:      -6.7      3.802      4.944
REMARK SMILES O=C(O)CCc1ccccc1
REMARK SMILES IDX 4 1 2 2 1 3 3 4 5 6 6 7 7 8 11 9 8 10 10 11 9 12
REMARK H PARENT 3 5
REMARK Flexibility Score: inf
ROOT
ATOM      1  C   UNL     1       5.474   2.896  -0.001  1.00  0.00     0.127 C 
ENDROOT
BRANCH   1   2
ATOM      2  C   UNL     1       6.289   3.815   0.828  1.00  0.00     0.303 C 
ATOM      3  O   UNL     1       6.915   4.774   0.313  1.00  0.00    -0.252 OA
BRANCH   2   4
ATOM      4  O   UNL     1       6.383   3.639   2.199  1.00  0.00    -0.481 OA
ATOM      5  H   UNL     1       5.557   3.338   2.724  1.00  0.00     0.296 HD
ENDBRANCH   2   4
ENDBRANCH   1   2
BRANCH   1   6
ATOM      6  C   UNL     1       4.937   1.813   0.885  1.00  0.00     0.047 C 
BRANCH   6   7
ATOM      7  C   UNL     1       5.747   0.597   0.895  1.00  0.00    -0.047 A 
ATOM      8  C   UNL     1       5.836  -0.180   2.028  1.00  0.00     0.004 A 
ATOM      9  C   UNL     1       6.424   0.231  -0.245  1.00  0.00     0.004 A 
ATOM     10  C   UNL     1       6.627  -1.329   1.966  1.00  0.00     0.000 A 
ATOM     11  C   UNL     1       7.207  -0.905  -0.304  1.00  0.00     0.000 A 
ATOM     12  C   UNL     1       7.301  -1.688   0.826  1.00  0.00     0.000 A 
ENDBRANCH   6   7
ENDBRANCH   1   6
TORSDOF 4
ENDMDL
