@<TRIPOS>MOLECULE
/home/cewinharhar/GITHUB/reincatalyze/data/processed/docking_pred/2023-Apr-26-1657_maxeplen10_maxtrainstep1000_exh32_gamma099_lrac9e-4_lrcr1e-3/54a2e3ceee1b2a6ac8591f20fd198e2f201bb612_ligand_2.pdbqt
 12 12 0 0 0
SMALL
GASTEIGER

@<TRIPOS>ATOM
      1  C          8.1990   -0.8930   -1.8940 C.3     1  UNL1        0.1270
      2  C          8.3880   -2.0040   -2.8570 C.2     1  UNL1        0.3030
      3  O          9.5290   -2.4730   -3.0940 O.2     1  UNL1       -0.2520
      4  O          7.3070   -2.5570   -3.5240 O.3     1  UNL1       -0.4810
      5  H          7.4730   -3.2540   -4.2550 H       1  UNL1        0.2960
      6  C          7.3060   -1.3730   -0.7910 C.3     1  UNL1        0.0470
      7  C          6.5170   -0.3150   -0.1630 C.2     1  UNL1       -0.0470
      8  C          6.0960   -0.4310    1.1420 C.2     1  UNL1        0.0040
      9  C          6.1970    0.8070   -0.8920 C.2     1  UNL1        0.0040
     10  C          5.3470    0.6180    1.6780 C.2     1  UNL1        0.0000
     11  C          5.4550    1.8440   -0.3610 C.2     1  UNL1        0.0000
     12  C          5.0300    1.7350    0.9450 C.2     1  UNL1        0.0000
@<TRIPOS>BOND
     1     5     4    1
     2     4     2    1
     3     3     2    2
     4     2     1    1
     5     1     6    1
     6     9    11    1
     7     9     7    2
     8     6     7    1
     9    11    12    2
    10     7     8    1
    11    12    10    1
    12     8    10    2
