@<TRIPOS>MOLECULE
/home/cewinharhar/GITHUB/reincatalyze/data/processed/docking_pred/2023-Apr-26-1657_maxeplen10_maxtrainstep1000_exh32_gamma099_lrac9e-4_lrcr1e-3/54a2e3ceee1b2a6ac8591f20fd198e2f201bb612_ligand_2.pdbqt
 12 12 0 0 0
SMALL
GASTEIGER

@<TRIPOS>ATOM
      1  C          8.4310   -0.5800   -2.1850 C.3     1  UNL1        0.1270
      2  C          8.4860   -1.8720   -2.9080 C.2     1  UNL1        0.3030
      3  O          9.5750   -2.4700   -3.0910 O.2     1  UNL1       -0.2520
      4  O          7.3320   -2.4580   -3.4040 O.3     1  UNL1       -0.4810
      5  H          6.6520   -1.8800   -3.9050 H       1  UNL1        0.2960
      6  C          7.0010   -0.1360   -2.1230 C.3     1  UNL1        0.0470
      7  C          6.4810    0.0080   -0.7650 C.2     1  UNL1       -0.0470
      8  C          6.6160   -1.0100    0.1510 C.2     1  UNL1        0.0040
      9  C          5.8530    1.1780   -0.4060 C.2     1  UNL1        0.0040
     10  C          6.0960   -0.8030    1.4310 C.2     1  UNL1        0.0000
     11  C          5.3390    1.3800    0.8590 C.2     1  UNL1        0.0000
     12  C          5.4690    0.3660    1.7830 C.2     1  UNL1        0.0000
@<TRIPOS>BOND
     1     5     4    1
     2     4     2    1
     3     3     2    2
     4     2     1    1
     5     1     6    1
     6     6     7    1
     7     7     9    2
     8     7     8    1
     9     9    11    1
    10     8    10    2
    11    11    12    2
    12    10    12    1
