@<TRIPOS>MOLECULE
/home/cewinharhar/GITHUB/reincatalyze/data/processed/docking_pred/2023-Apr-26-1657_maxeplen10_maxtrainstep1000_exh32_gamma099_lrac9e-4_lrcr1e-3/54a2e3ceee1b2a6ac8591f20fd198e2f201bb612_ligand_2.pdbqt
 12 12 0 0 0
SMALL
GASTEIGER

@<TRIPOS>ATOM
      1  C          5.0160    1.7500    0.6470 C.3     1  UNL1        0.1270
      2  C          4.5200    1.1100    1.8880 C.2     1  UNL1        0.3030
      3  O          5.1950    0.2350    2.4840 O.2     1  UNL1       -0.2520
      4  O          3.2920    1.4620    2.4270 O.3     1  UNL1       -0.4810
      5  H          2.5020    0.8180    2.3330 H       1  UNL1        0.2960
      6  C          6.5120    1.7880    0.7030 C.3     1  UNL1        0.0470
      7  C          7.1670    1.0320   -0.3640 C.2     1  UNL1       -0.0470
      8  C          8.5020    1.2150   -0.6390 C.2     1  UNL1        0.0040
      9  C          6.4310    0.1280   -1.0950 C.2     1  UNL1        0.0040
     10  C          9.0610    0.4590   -1.6710 C.2     1  UNL1        0.0000
     11  C          6.9850   -0.6190   -2.1150 C.2     1  UNL1        0.0000
     12  C          8.3220   -0.4410   -2.3970 C.2     1  UNL1        0.0000
@<TRIPOS>BOND
     1    12    11    2
     2    12    10    1
     3    11     9    1
     4    10     8    2
     5     9     7    2
     6     8     7    1
     7     7     6    1
     8     1     6    1
     9     1     2    1
    10     2     4    1
    11     2     3    2
    12     5     4    1
