@<TRIPOS>MOLECULE
/home/cewinharhar/GITHUB/reincatalyze/data/processed/docking_pred/2023-Apr-26-1657_maxeplen10_maxtrainstep1000_exh32_gamma099_lrac9e-4_lrcr1e-3/54a2e3ceee1b2a6ac8591f20fd198e2f201bb612_ligand_2.pdbqt
 12 12 0 0 0
SMALL
GASTEIGER

@<TRIPOS>ATOM
      1  C          8.4240   -0.5940   -2.1490 C.3     1  UNL1        0.1270
      2  C          8.4750   -1.8710   -2.8990 C.2     1  UNL1        0.3030
      3  O          9.5620   -2.4700   -3.0920 O.2     1  UNL1       -0.2520
      4  O          7.3200   -2.4410   -3.4110 O.3     1  UNL1       -0.4810
      5  H          7.1170   -3.4250   -3.2150 H       1  UNL1        0.2960
      6  C          7.0000   -0.1300   -2.1060 C.3     1  UNL1        0.0470
      7  C          6.4710    0.0440   -0.7540 C.2     1  UNL1       -0.0470
      8  C          5.8510    1.2150   -0.3870 C.2     1  UNL1        0.0040
      9  C          6.5980   -0.9830    0.1530 C.2     1  UNL1        0.0040
     10  C          5.3690    1.3110    0.9210 C.2     1  UNL1        0.0000
     11  C          6.1220   -0.8860    1.4450 C.2     1  UNL1        0.0000
     12  C          5.5000    0.2840    1.8220 C.2     1  UNL1        0.0000
@<TRIPOS>BOND
     1     4     5    1
     2     4     2    1
     3     3     2    2
     4     2     1    1
     5     1     6    1
     6     6     7    1
     7     7     8    2
     8     7     9    1
     9     8    10    1
    10     9    11    2
    11    10    12    2
    12    11    12    1
