@<TRIPOS>MOLECULE
/home/cewinharhar/GITHUB/reincatalyze/data/processed/docking_pred/2023-Apr-26-1657_maxeplen10_maxtrainstep1000_exh32_gamma099_lrac9e-4_lrcr1e-3/54a2e3ceee1b2a6ac8591f20fd198e2f201bb612_ligand_2.pdbqt
 12 12 0 0 0
SMALL
GASTEIGER

@<TRIPOS>ATOM
      1  C          5.4740    2.8960   -0.0010 C.3     1  UNL1        0.1270
      2  C          6.2890    3.8150    0.8280 C.2     1  UNL1        0.3030
      3  O          6.9150    4.7740    0.3130 O.2     1  UNL1       -0.2520
      4  O          6.3830    3.6390    2.1990 O.3     1  UNL1       -0.4810
      5  H          5.5570    3.3380    2.7240 H       1  UNL1        0.2960
      6  C          4.9370    1.8130    0.8850 C.3     1  UNL1        0.0470
      7  C          5.7470    0.5970    0.8950 C.2     1  UNL1       -0.0470
      8  C          5.8360   -0.1800    2.0280 C.2     1  UNL1        0.0040
      9  C          6.4240    0.2310   -0.2450 C.2     1  UNL1        0.0040
     10  C          6.6270   -1.3290    1.9660 C.2     1  UNL1        0.0000
     11  C          7.2070   -0.9050   -0.3040 C.2     1  UNL1        0.0000
     12  C          7.3010   -1.6880    0.8260 C.2     1  UNL1        0.0000
@<TRIPOS>BOND
     1    11     9    1
     2    11    12    2
     3     9     7    2
     4     1     2    1
     5     1     6    1
     6     3     2    2
     7    12    10    1
     8     2     4    1
     9     6     7    1
    10     7     8    1
    11    10     8    2
    12     4     5    1
