@<TRIPOS>MOLECULE
/home/cewinharhar/GITHUB/reincatalyze/data/processed/docking_pred/2023-Apr-26-1657_maxeplen10_maxtrainstep1000_exh32_gamma099_lrac9e-4_lrcr1e-3/54c3cf531f582f2d935f1daccafc2f163e83168d_ligand_2.pdbqt
 12 12 0 0 0
SMALL
GASTEIGER

@<TRIPOS>ATOM
      1  C          8.4360   -0.6080   -2.1620 C.3     1  UNL1        0.1270
      2  C          8.4920   -1.8960   -2.8930 C.2     1  UNL1        0.3030
      3  O          9.5820   -2.4900   -3.0830 O.2     1  UNL1       -0.2520
      4  O          7.3380   -2.4820   -3.3880 O.3     1  UNL1       -0.4810
      5  H          6.7110   -2.9740   -2.7460 H       1  UNL1        0.2960
      6  C          7.0140   -0.1370   -2.1470 C.3     1  UNL1        0.0470
      7  C          6.4680    0.0620   -0.8050 C.2     1  UNL1       -0.0470
      8  C          5.8300    1.2340   -0.4720 C.2     1  UNL1        0.0040
      9  C          6.5970   -0.9410    0.1270 C.2     1  UNL1        0.0040
     10  C          5.3330    1.3550    0.8280 C.2     1  UNL1        0.0000
     11  C          6.1050   -0.8200    1.4120 C.2     1  UNL1        0.0000
     12  C          5.4650    0.3510    1.7540 C.2     1  UNL1        0.0000
@<TRIPOS>BOND
     1     4     2    1
     2     4     5    1
     3     3     2    2
     4     2     1    1
     5     1     6    1
     6     6     7    1
     7     7     8    2
     8     7     9    1
     9     8    10    1
    10     9    11    2
    11    10    12    2
    12    11    12    1
