MODEL 1
REMARK VINA RESULT:      -7.1      0.000      0.000
REMARK SMILES O=C(O)CCc1ccccc1
REMARK SMILES IDX 4 1 2 2 1 3 3 4 5 6 6 7 7 8 11 9 8 10 10 11 9 12
REMARK H PARENT 3 5
REMARK Flexibility Score: inf
ROOT
ATOM      1  C   UNL     1       8.445  -0.612  -2.157  1.00  0.00     0.127 C 
ENDROOT
BRANCH   1   2
ATOM      2  C   UNL     1       8.480  -1.893  -2.901  1.00  0.00     0.303 C 
ATOM      3  O   UNL     1       9.559  -2.509  -3.086  1.00  0.00    -0.252 OA
BRANCH   2   4
ATOM      4  O   UNL     1       7.320  -2.447  -3.417  1.00  0.00    -0.481 OA
ATOM      5  H   UNL     1       6.424  -1.982  -3.246  1.00  0.00     0.296 HD
ENDBRANCH   2   4
ENDBRANCH   1   2
BRANCH   1   6
ATOM      6  C   UNL     1       7.028  -0.126  -2.124  1.00  0.00     0.047 C 
BRANCH   6   7
ATOM      7  C   UNL     1       6.482   0.024  -0.776  1.00  0.00    -0.047 A 
ATOM      8  C   UNL     1       6.609  -0.985   0.150  1.00  0.00     0.004 A 
ATOM      9  C   UNL     1       5.837   1.191  -0.439  1.00  0.00     0.004 A 
ATOM     10  C   UNL     1       6.063  -0.774   1.418  1.00  0.00     0.000 A 
ATOM     11  C   UNL     1       5.298   1.399   0.815  1.00  0.00     0.000 A 
ATOM     12  C   UNL     1       5.420   0.393   1.749  1.00  0.00     0.000 A 
ENDBRANCH   6   7
ENDBRANCH   1   6
TORSDOF 4
ENDMDL
MODEL 2
REMARK VINA RESULT:      -7.1      0.046      1.437
REMARK SMILES O=C(O)CCc1ccccc1
REMARK SMILES IDX 4 1 2 2 1 3 3 4 5 6 6 7 7 8 11 9 8 10 10 11 9 12
REMARK H PARENT 3 5
REMARK Flexibility Score: inf
ROOT
ATOM      1  C   UNL     1       8.436  -0.608  -2.162  1.00  0.00     0.127 C 
ENDROOT
BRANCH   1   2
ATOM      2  C   UNL     1       8.492  -1.896  -2.893  1.00  0.00     0.303 C 
ATOM      3  O   UNL     1       9.582  -2.490  -3.083  1.00  0.00    -0.252 OA
BRANCH   2   4
ATOM      4  O   UNL     1       7.338  -2.482  -3.388  1.00  0.00    -0.481 OA
ATOM      5  H   UNL     1       6.711  -2.974  -2.746  1.00  0.00     0.296 HD
ENDBRANCH   2   4
ENDBRANCH   1   2
BRANCH   1   6
ATOM      6  C   UNL     1       7.014  -0.137  -2.147  1.00  0.00     0.047 C 
BRANCH   6   7
ATOM      7  C   UNL     1       6.468   0.062  -0.805  1.00  0.00    -0.047 A 
ATOM      8  C   UNL     1       5.830   1.234  -0.472  1.00  0.00     0.004 A 
ATOM      9  C   UNL     1       6.597  -0.941   0.127  1.00  0.00     0.004 A 
ATOM     10  C   UNL     1       5.333   1.355   0.828  1.00  0.00     0.000 A 
ATOM     11  C   UNL     1       6.105  -0.820   1.412  1.00  0.00     0.000 A 
ATOM     12  C   UNL     1       5.465   0.351   1.754  1.00  0.00     0.000 A 
ENDBRANCH   6   7
ENDBRANCH   1   6
TORSDOF 4
ENDMDL
MODEL 3
REMARK VINA RESULT:      -6.9      0.593      1.575
REMARK SMILES O=C(O)CCc1ccccc1
REMARK SMILES IDX 4 1 2 2 1 3 3 4 5 6 6 7 7 8 11 9 8 10 10 11 9 12
REMARK H PARENT 3 5
REMARK Flexibility Score: inf
ROOT
ATOM      1  C   UNL     1       8.127  -0.827  -2.037  1.00  0.00     0.127 C 
ENDROOT
BRANCH   1   2
ATOM      2  C   UNL     1       8.329  -2.005  -2.914  1.00  0.00     0.303 C 
ATOM      3  O   UNL     1       9.466  -2.514  -3.069  1.00  0.00    -0.252 OA
BRANCH   2   4
ATOM      4  O   UNL     1       7.263  -2.579  -3.588  1.00  0.00    -0.481 OA
ATOM      5  H   UNL     1       6.307  -2.346  -3.304  1.00  0.00     0.296 HD
ENDBRANCH   2   4
ENDBRANCH   1   2
BRANCH   1   6
ATOM      6  C   UNL     1       7.477  -1.290  -0.769  1.00  0.00     0.047 C 
BRANCH   6   7
ATOM      7  C   UNL     1       6.603  -0.294  -0.151  1.00  0.00    -0.047 A 
ATOM      8  C   UNL     1       6.237   0.842  -0.835  1.00  0.00     0.004 A 
ATOM      9  C   UNL     1       6.144  -0.505   1.128  1.00  0.00     0.004 A 
ATOM     10  C   UNL     1       5.399   1.749  -0.184  1.00  0.00     0.000 A 
ATOM     11  C   UNL     1       5.315   0.393   1.771  1.00  0.00     0.000 A 
ATOM     12  C   UNL     1       4.945   1.534   1.093  1.00  0.00     0.000 A 
ENDBRANCH   6   7
ENDBRANCH   1   6
TORSDOF 4
ENDMDL
MODEL 4
REMARK VINA RESULT:      -6.7      1.359      1.784
REMARK SMILES O=C(O)CCc1ccccc1
REMARK SMILES IDX 4 1 2 2 1 3 3 4 5 6 6 7 7 8 11 9 8 10 10 11 9 12
REMARK H PARENT 3 5
REMARK Flexibility Score: inf
ROOT
ATOM      1  C   UNL     1       8.323  -0.507  -2.260  1.00  0.00     0.127 C 
ENDROOT
BRANCH   1   2
ATOM      2  C   UNL     1       8.413  -1.822  -2.937  1.00  0.00     0.303 C 
ATOM      3  O   UNL     1       9.515  -2.407  -3.080  1.00  0.00    -0.252 OA
BRANCH   2   4
ATOM      4  O   UNL     1       7.279  -2.444  -3.434  1.00  0.00    -0.481 OA
ATOM      5  H   UNL     1       7.156  -3.450  -3.291  1.00  0.00     0.296 HD
ENDBRANCH   2   4
ENDBRANCH   1   2
BRANCH   1   6
ATOM      6  C   UNL     1       7.153  -0.539  -1.324  1.00  0.00     0.047 C 
BRANCH   6   7
ATOM      7  C   UNL     1       6.895   0.733  -0.652  1.00  0.00    -0.047 A 
ATOM      8  C   UNL     1       7.902   1.395   0.012  1.00  0.00     0.004 A 
ATOM      9  C   UNL     1       5.629   1.268  -0.691  1.00  0.00     0.004 A 
ATOM     10  C   UNL     1       7.584   2.606   0.630  1.00  0.00     0.000 A 
ATOM     11  C   UNL     1       5.316   2.466  -0.078  1.00  0.00     0.000 A 
ATOM     12  C   UNL     1       6.319   3.135   0.589  1.00  0.00     0.000 A 
ENDBRANCH   6   7
ENDBRANCH   1   6
TORSDOF 4
ENDMDL
MODEL 5
REMARK VINA RESULT:      -6.4      3.425      5.106
REMARK SMILES O=C(O)CCc1ccccc1
REMARK SMILES IDX 4 1 2 2 1 3 3 4 5 6 6 7 7 8 11 9 8 10 10 11 9 12
REMARK H PARENT 3 5
REMARK Flexibility Score: inf
ROOT
ATOM      1  C   UNL     1       4.942   1.840   0.771  1.00  0.00     0.127 C 
ENDROOT
BRANCH   1   2
ATOM      2  C   UNL     1       4.430   1.111   1.956  1.00  0.00     0.303 C 
ATOM      3  O   UNL     1       5.091   0.183   2.484  1.00  0.00    -0.252 OA
BRANCH   2   4
ATOM      4  O   UNL     1       3.205   1.436   2.515  1.00  0.00    -0.481 OA
ATOM      5  H   UNL     1       3.160   2.156   3.241  1.00  0.00     0.296 HD
ENDBRANCH   2   4
ENDBRANCH   1   2
BRANCH   1   6
ATOM      6  C   UNL     1       6.431   1.949   0.892  1.00  0.00     0.047 C 
BRANCH   6   7
ATOM      7  C   UNL     1       7.165   1.265  -0.171  1.00  0.00    -0.047 A 
ATOM      8  C   UNL     1       8.535   1.363  -0.256  1.00  0.00     0.004 A 
ATOM      9  C   UNL     1       6.470   0.515  -1.092  1.00  0.00     0.004 A 
ATOM     10  C   UNL     1       9.170   0.682  -1.297  1.00  0.00     0.000 A 
ATOM     11  C   UNL     1       7.100  -0.157  -2.120  1.00  0.00     0.000 A 
ATOM     12  C   UNL     1       8.472  -0.064  -2.213  1.00  0.00     0.000 A 
ENDBRANCH   6   7
ENDBRANCH   1   6
TORSDOF 4
ENDMDL
