@<TRIPOS>MOLECULE
/home/cewinharhar/GITHUB/reincatalyze/data/processed/docking_pred/2023-Apr-26-1657_maxeplen10_maxtrainstep1000_exh32_gamma099_lrac9e-4_lrcr1e-3/54c3cf531f582f2d935f1daccafc2f163e83168d_ligand_2.pdbqt
 12 12 0 0 0
SMALL
GASTEIGER

@<TRIPOS>ATOM
      1  C          8.4450   -0.6120   -2.1570 C.3     1  UNL1        0.1270
      2  C          8.4800   -1.8930   -2.9010 C.2     1  UNL1        0.3030
      3  O          9.5590   -2.5090   -3.0860 O.2     1  UNL1       -0.2520
      4  O          7.3200   -2.4470   -3.4170 O.3     1  UNL1       -0.4810
      5  H          6.4240   -1.9820   -3.2460 H       1  UNL1        0.2960
      6  C          7.0280   -0.1260   -2.1240 C.3     1  UNL1        0.0470
      7  C          6.4820    0.0240   -0.7760 C.2     1  UNL1       -0.0470
      8  C          6.6090   -0.9850    0.1500 C.2     1  UNL1        0.0040
      9  C          5.8370    1.1910   -0.4390 C.2     1  UNL1        0.0040
     10  C          6.0630   -0.7740    1.4180 C.2     1  UNL1        0.0000
     11  C          5.2980    1.3990    0.8150 C.2     1  UNL1        0.0000
     12  C          5.4200    0.3930    1.7490 C.2     1  UNL1        0.0000
@<TRIPOS>BOND
     1     4     5    1
     2     4     2    1
     3     3     2    2
     4     2     1    1
     5     1     6    1
     6     6     7    1
     7     7     9    2
     8     7     8    1
     9     9    11    1
    10     8    10    2
    11    11    12    2
    12    10    12    1
