@<TRIPOS>MOLECULE
/home/cewinharhar/GITHUB/reincatalyze/data/processed/docking_pred/2023-Apr-26-1657_maxeplen10_maxtrainstep1000_exh32_gamma099_lrac9e-4_lrcr1e-3/54c3cf531f582f2d935f1daccafc2f163e83168d_ligand_2.pdbqt
 12 12 0 0 0
SMALL
GASTEIGER

@<TRIPOS>ATOM
      1  C          8.3230   -0.5070   -2.2600 C.3     1  UNL1        0.1270
      2  C          8.4130   -1.8220   -2.9370 C.2     1  UNL1        0.3030
      3  O          9.5150   -2.4070   -3.0800 O.2     1  UNL1       -0.2520
      4  O          7.2790   -2.4440   -3.4340 O.3     1  UNL1       -0.4810
      5  H          7.1560   -3.4500   -3.2910 H       1  UNL1        0.2960
      6  C          7.1530   -0.5390   -1.3240 C.3     1  UNL1        0.0470
      7  C          6.8950    0.7330   -0.6520 C.2     1  UNL1       -0.0470
      8  C          7.9020    1.3950    0.0120 C.2     1  UNL1        0.0040
      9  C          5.6290    1.2680   -0.6910 C.2     1  UNL1        0.0040
     10  C          7.5840    2.6060    0.6300 C.2     1  UNL1        0.0000
     11  C          5.3160    2.4660   -0.0780 C.2     1  UNL1        0.0000
     12  C          6.3190    3.1350    0.5890 C.2     1  UNL1        0.0000
@<TRIPOS>BOND
     1     4     5    1
     2     4     2    1
     3     3     2    2
     4     2     1    1
     5     1     6    1
     6     6     7    1
     7     9     7    2
     8     9    11    1
     9     7     8    1
    10    11    12    2
    11     8    10    2
    12    12    10    1
