@<TRIPOS>MOLECULE
/home/cewinharhar/GITHUB/reincatalyze/data/processed/docking_pred/2023-Apr-26-1657_maxeplen10_maxtrainstep1000_exh32_gamma099_lrac9e-4_lrcr1e-3/54c3cf531f582f2d935f1daccafc2f163e83168d_ligand_2.pdbqt
 12 12 0 0 0
SMALL
GASTEIGER

@<TRIPOS>ATOM
      1  C          4.9420    1.8400    0.7710 C.3     1  UNL1        0.1270
      2  C          4.4300    1.1110    1.9560 C.2     1  UNL1        0.3030
      3  O          5.0910    0.1830    2.4840 O.2     1  UNL1       -0.2520
      4  O          3.2050    1.4360    2.5150 O.3     1  UNL1       -0.4810
      5  H          3.1600    2.1560    3.2410 H       1  UNL1        0.2960
      6  C          6.4310    1.9490    0.8920 C.3     1  UNL1        0.0470
      7  C          7.1650    1.2650   -0.1710 C.2     1  UNL1       -0.0470
      8  C          8.5350    1.3630   -0.2560 C.2     1  UNL1        0.0040
      9  C          6.4700    0.5150   -1.0920 C.2     1  UNL1        0.0040
     10  C          9.1700    0.6820   -1.2970 C.2     1  UNL1        0.0000
     11  C          7.1000   -0.1570   -2.1200 C.2     1  UNL1        0.0000
     12  C          8.4720   -0.0640   -2.2130 C.2     1  UNL1        0.0000
@<TRIPOS>BOND
     1    12    11    2
     2    12    10    1
     3    11     9    1
     4    10     8    2
     5     9     7    2
     6     8     7    1
     7     7     6    1
     8     1     6    1
     9     1     2    1
    10     2     3    2
    11     2     4    1
    12     4     5    1
