@<TRIPOS>MOLECULE
/home/cewinharhar/GITHUB/reincatalyze/data/processed/docking_pred/2023-Apr-26-1657_maxeplen10_maxtrainstep1000_exh32_gamma099_lrac9e-4_lrcr1e-3/54c3cf531f582f2d935f1daccafc2f163e83168d_ligand_2.pdbqt
 12 12 0 0 0
SMALL
GASTEIGER

@<TRIPOS>ATOM
      1  C          8.1270   -0.8270   -2.0370 C.3     1  UNL1        0.1270
      2  C          8.3290   -2.0050   -2.9140 C.2     1  UNL1        0.3030
      3  O          9.4660   -2.5140   -3.0690 O.2     1  UNL1       -0.2520
      4  O          7.2630   -2.5790   -3.5880 O.3     1  UNL1       -0.4810
      5  H          6.3070   -2.3460   -3.3040 H       1  UNL1        0.2960
      6  C          7.4770   -1.2900   -0.7690 C.3     1  UNL1        0.0470
      7  C          6.6030   -0.2940   -0.1510 C.2     1  UNL1       -0.0470
      8  C          6.2370    0.8420   -0.8350 C.2     1  UNL1        0.0040
      9  C          6.1440   -0.5050    1.1280 C.2     1  UNL1        0.0040
     10  C          5.3990    1.7490   -0.1840 C.2     1  UNL1        0.0000
     11  C          5.3150    0.3930    1.7710 C.2     1  UNL1        0.0000
     12  C          4.9450    1.5340    1.0930 C.2     1  UNL1        0.0000
@<TRIPOS>BOND
     1     4     5    1
     2     4     2    1
     3     3     2    2
     4     2     1    1
     5     1     6    1
     6     8    10    1
     7     8     7    2
     8     6     7    1
     9    10    12    2
    10     7     9    1
    11    12    11    1
    12     9    11    2
