@<TRIPOS>MOLECULE
/home/cewinharhar/GITHUB/reincatalyze/data/processed/docking_pred/2023-Apr-26-1657_maxeplen10_maxtrainstep1000_exh32_gamma099_lrac9e-4_lrcr1e-3/551c5941f3bf749be32b1159c48b101be233bdbe_ligand_2.pdbqt
 12 12 0 0 0
SMALL
GASTEIGER

@<TRIPOS>ATOM
      1  C          5.4060    2.9030    0.0050 C.3     1  UNL1        0.1270
      2  C          6.2110    3.8670    0.7930 C.2     1  UNL1        0.3030
      3  O          6.8720    4.7750    0.2310 O.2     1  UNL1       -0.2520
      4  O          6.2570    3.7910    2.1760 O.3     1  UNL1       -0.4810
      5  H          5.5500    4.2850    2.7280 H       1  UNL1        0.2960
      6  C          4.9070    1.8390    0.9330 C.3     1  UNL1        0.0470
      7  C          5.7020    0.6130    0.9150 C.2     1  UNL1       -0.0470
      8  C          6.3790    0.2300   -0.2200 C.2     1  UNL1        0.0040
      9  C          5.7710   -0.1600    2.0520 C.2     1  UNL1        0.0040
     10  C          7.1210   -0.9520   -0.1650 C.2     1  UNL1        0.0000
     11  C          6.5050   -1.3290    2.1040 C.2     1  UNL1        0.0000
     12  C          7.1850   -1.7190    0.9710 C.2     1  UNL1        0.0000
@<TRIPOS>BOND
     1     8    10    1
     2     8     7    2
     3    10    12    2
     4     1     2    1
     5     1     6    1
     6     3     2    2
     7     2     4    1
     8     7     6    1
     9     7     9    1
    10    12    11    1
    11     9    11    2
    12     4     5    1
