MODEL 1
REMARK VINA RESULT:      -7.4      0.000      0.000
REMARK SMILES O=C(O)CCc1ccccc1
REMARK SMILES IDX 4 1 2 2 1 3 3 4 5 6 6 7 7 8 11 9 8 10 10 11 9 12
REMARK H PARENT 3 5
REMARK Flexibility Score: inf
ROOT
ATOM      1  C   UNL     1       8.445  -0.664  -2.107  1.00  0.00     0.127 C 
ENDROOT
BRANCH   1   2
ATOM      2  C   UNL     1       8.476  -1.911  -2.906  1.00  0.00     0.303 C 
ATOM      3  O   UNL     1       9.551  -2.529  -3.106  1.00  0.00    -0.252 OA
BRANCH   2   4
ATOM      4  O   UNL     1       7.315  -2.431  -3.456  1.00  0.00    -0.481 OA
ATOM      5  H   UNL     1       7.265  -3.432  -3.666  1.00  0.00     0.296 HD
ENDBRANCH   2   4
ENDBRANCH   1   2
BRANCH   1   6
ATOM      6  C   UNL     1       7.044  -0.132  -2.118  1.00  0.00     0.047 C 
BRANCH   6   7
ATOM      7  C   UNL     1       6.475   0.072  -0.787  1.00  0.00    -0.047 A 
ATOM      8  C   UNL     1       5.822   1.241  -0.472  1.00  0.00     0.004 A 
ATOM      9  C   UNL     1       6.597  -0.924   0.155  1.00  0.00     0.004 A 
ATOM     10  C   UNL     1       5.303   1.367   0.818  1.00  0.00     0.000 A 
ATOM     11  C   UNL     1       6.083  -0.798   1.430  1.00  0.00     0.000 A 
ATOM     12  C   UNL     1       5.428   0.371   1.754  1.00  0.00     0.000 A 
ENDBRANCH   6   7
ENDBRANCH   1   6
TORSDOF 4
ENDMDL
MODEL 2
REMARK VINA RESULT:      -7.3      0.091      1.439
REMARK SMILES O=C(O)CCc1ccccc1
REMARK SMILES IDX 4 1 2 2 1 3 3 4 5 6 6 7 7 8 11 9 8 10 10 11 9 12
REMARK H PARENT 3 5
REMARK Flexibility Score: inf
ROOT
ATOM      1  C   UNL     1       8.401  -0.532  -2.260  1.00  0.00     0.127 C 
ENDROOT
BRANCH   1   2
ATOM      2  C   UNL     1       8.457  -1.859  -2.918  1.00  0.00     0.303 C 
ATOM      3  O   UNL     1       9.544  -2.472  -3.055  1.00  0.00    -0.252 OA
BRANCH   2   4
ATOM      4  O   UNL     1       7.306  -2.461  -3.402  1.00  0.00    -0.481 OA
ATOM      5  H   UNL     1       6.642  -1.905  -3.948  1.00  0.00     0.296 HD
ENDBRANCH   2   4
ENDBRANCH   1   2
BRANCH   1   6
ATOM      6  C   UNL     1       6.967  -0.104  -2.185  1.00  0.00     0.047 C 
BRANCH   6   7
ATOM      7  C   UNL     1       6.462   0.046  -0.821  1.00  0.00    -0.047 A 
ATOM      8  C   UNL     1       6.601  -0.970   0.096  1.00  0.00     0.004 A 
ATOM      9  C   UNL     1       5.844   1.221  -0.460  1.00  0.00     0.004 A 
ATOM     10  C   UNL     1       6.095  -0.756   1.381  1.00  0.00     0.000 A 
ATOM     11  C   UNL     1       5.345   1.430   0.810  1.00  0.00     0.000 A 
ATOM     12  C   UNL     1       5.479   0.417   1.735  1.00  0.00     0.000 A 
ENDBRANCH   6   7
ENDBRANCH   1   6
TORSDOF 4
ENDMDL
MODEL 3
REMARK VINA RESULT:      -6.8      3.387      5.088
REMARK SMILES O=C(O)CCc1ccccc1
REMARK SMILES IDX 4 1 2 2 1 3 3 4 5 6 6 7 7 8 11 9 8 10 10 11 9 12
REMARK H PARENT 3 5
REMARK Flexibility Score: inf
ROOT
ATOM      1  C   UNL     1       4.972   1.792   0.680  1.00  0.00     0.127 C 
ENDROOT
BRANCH   1   2
ATOM      2  C   UNL     1       4.475   1.115   1.901  1.00  0.00     0.303 C 
ATOM      3  O   UNL     1       5.143   0.213   2.463  1.00  0.00    -0.252 OA
BRANCH   2   4
ATOM      4  O   UNL     1       3.253   1.460   2.456  1.00  0.00    -0.481 OA
ATOM      5  H   UNL     1       2.716   2.230   2.047  1.00  0.00     0.296 HD
ENDBRANCH   2   4
ENDBRANCH   1   2
BRANCH   1   6
ATOM      6  C   UNL     1       6.470   1.805   0.727  1.00  0.00     0.047 C 
BRANCH   6   7
ATOM      7  C   UNL     1       7.105   1.049  -0.351  1.00  0.00    -0.047 A 
ATOM      8  C   UNL     1       6.380   0.157  -1.106  1.00  0.00     0.004 A 
ATOM      9  C   UNL     1       8.443   1.241  -0.608  1.00  0.00     0.004 A 
ATOM     10  C   UNL     1       7.052  -0.530  -2.120  1.00  0.00     0.000 A 
ATOM     11  C   UNL     1       9.105   0.562  -1.610  1.00  0.00     0.000 A 
ATOM     12  C   UNL     1       8.387  -0.335  -2.371  1.00  0.00     0.000 A 
ENDBRANCH   6   7
ENDBRANCH   1   6
TORSDOF 4
ENDMDL
MODEL 4
REMARK VINA RESULT:      -6.7      3.830      4.938
REMARK SMILES O=C(O)CCc1ccccc1
REMARK SMILES IDX 4 1 2 2 1 3 3 4 5 6 6 7 7 8 11 9 8 10 10 11 9 12
REMARK H PARENT 3 5
REMARK Flexibility Score: inf
ROOT
ATOM      1  C   UNL     1       5.406   2.903   0.005  1.00  0.00     0.127 C 
ENDROOT
BRANCH   1   2
ATOM      2  C   UNL     1       6.211   3.867   0.793  1.00  0.00     0.303 C 
ATOM      3  O   UNL     1       6.872   4.775   0.231  1.00  0.00    -0.252 OA
BRANCH   2   4
ATOM      4  O   UNL     1       6.257   3.791   2.176  1.00  0.00    -0.481 OA
ATOM      5  H   UNL     1       5.550   4.285   2.728  1.00  0.00     0.296 HD
ENDBRANCH   2   4
ENDBRANCH   1   2
BRANCH   1   6
ATOM      6  C   UNL     1       4.907   1.839   0.933  1.00  0.00     0.047 C 
BRANCH   6   7
ATOM      7  C   UNL     1       5.702   0.613   0.915  1.00  0.00    -0.047 A 
ATOM      8  C   UNL     1       6.379   0.230  -0.220  1.00  0.00     0.004 A 
ATOM      9  C   UNL     1       5.771  -0.160   2.052  1.00  0.00     0.004 A 
ATOM     10  C   UNL     1       7.121  -0.952  -0.165  1.00  0.00     0.000 A 
ATOM     11  C   UNL     1       6.505  -1.329   2.104  1.00  0.00     0.000 A 
ATOM     12  C   UNL     1       7.185  -1.719   0.971  1.00  0.00     0.000 A 
ENDBRANCH   6   7
ENDBRANCH   1   6
TORSDOF 4
ENDMDL
MODEL 5
REMARK VINA RESULT:      -6.7      1.939      2.656
REMARK SMILES O=C(O)CCc1ccccc1
REMARK SMILES IDX 4 1 2 2 1 3 3 4 5 6 6 7 7 8 11 9 8 10 10 11 9 12
REMARK H PARENT 3 5
REMARK Flexibility Score: inf
ROOT
ATOM      1  C   UNL     1       8.229   0.245  -2.175  1.00  0.00     0.127 C 
ENDROOT
BRANCH   1   2
ATOM      2  C   UNL     1       9.369   0.353  -1.235  1.00  0.00     0.303 C 
ATOM      3  O   UNL     1       9.458  -0.396  -0.231  1.00  0.00    -0.252 OA
BRANCH   2   4
ATOM      4  O   UNL     1      10.372   1.287  -1.440  1.00  0.00    -0.481 OA
ATOM      5  H   UNL     1      10.579   1.600  -2.392  1.00  0.00     0.296 HD
ENDBRANCH   2   4
ENDBRANCH   1   2
BRANCH   1   6
ATOM      6  C   UNL     1       7.141  -0.540  -1.508  1.00  0.00     0.047 C 
BRANCH   6   7
ATOM      7  C   UNL     1       6.355   0.232  -0.546  1.00  0.00    -0.047 A 
ATOM      8  C   UNL     1       6.143  -0.239   0.728  1.00  0.00     0.004 A 
ATOM      9  C   UNL     1       5.828   1.444  -0.929  1.00  0.00     0.004 A 
ATOM     10  C   UNL     1       5.384   0.551   1.594  1.00  0.00     0.000 A 
ATOM     11  C   UNL     1       5.077   2.224  -0.072  1.00  0.00     0.000 A 
ATOM     12  C   UNL     1       4.859   1.758   1.206  1.00  0.00     0.000 A 
ENDBRANCH   6   7
ENDBRANCH   1   6
TORSDOF 4
ENDMDL
