@<TRIPOS>MOLECULE
/home/cewinharhar/GITHUB/reincatalyze/data/processed/docking_pred/2023-Apr-26-1657_maxeplen10_maxtrainstep1000_exh32_gamma099_lrac9e-4_lrcr1e-3/551c5941f3bf749be32b1159c48b101be233bdbe_ligand_2.pdbqt
 12 12 0 0 0
SMALL
GASTEIGER

@<TRIPOS>ATOM
      1  C          8.2290    0.2450   -2.1750 C.3     1  UNL1        0.1270
      2  C          9.3690    0.3530   -1.2350 C.2     1  UNL1        0.3030
      3  O          9.4580   -0.3960   -0.2310 O.2     1  UNL1       -0.2520
      4  O         10.3720    1.2870   -1.4400 O.3     1  UNL1       -0.4810
      5  H         10.5790    1.6000   -2.3920 H       1  UNL1        0.2960
      6  C          7.1410   -0.5400   -1.5080 C.3     1  UNL1        0.0470
      7  C          6.3550    0.2320   -0.5460 C.2     1  UNL1       -0.0470
      8  C          6.1430   -0.2390    0.7280 C.2     1  UNL1        0.0040
      9  C          5.8280    1.4440   -0.9290 C.2     1  UNL1        0.0040
     10  C          5.3840    0.5510    1.5940 C.2     1  UNL1        0.0000
     11  C          5.0770    2.2240   -0.0720 C.2     1  UNL1        0.0000
     12  C          4.8590    1.7580    1.2060 C.2     1  UNL1        0.0000
@<TRIPOS>BOND
     1     5     4    1
     2     1     6    1
     3     1     2    1
     4     6     7    1
     5     4     2    1
     6     2     3    2
     7     9     7    2
     8     9    11    1
     9     7     8    1
    10    11    12    2
    11     8    10    2
    12    12    10    1
