@<TRIPOS>MOLECULE
/home/cewinharhar/GITHUB/reincatalyze/data/processed/docking_pred/2023-Apr-26-1657_maxeplen10_maxtrainstep1000_exh32_gamma099_lrac9e-4_lrcr1e-3/551c5941f3bf749be32b1159c48b101be233bdbe_ligand_2.pdbqt
 12 12 0 0 0
SMALL
GASTEIGER

@<TRIPOS>ATOM
      1  C          8.4450   -0.6640   -2.1070 C.3     1  UNL1        0.1270
      2  C          8.4760   -1.9110   -2.9060 C.2     1  UNL1        0.3030
      3  O          9.5510   -2.5290   -3.1060 O.2     1  UNL1       -0.2520
      4  O          7.3150   -2.4310   -3.4560 O.3     1  UNL1       -0.4810
      5  H          7.2650   -3.4320   -3.6660 H       1  UNL1        0.2960
      6  C          7.0440   -0.1320   -2.1180 C.3     1  UNL1        0.0470
      7  C          6.4750    0.0720   -0.7870 C.2     1  UNL1       -0.0470
      8  C          5.8220    1.2410   -0.4720 C.2     1  UNL1        0.0040
      9  C          6.5970   -0.9240    0.1550 C.2     1  UNL1        0.0040
     10  C          5.3030    1.3670    0.8180 C.2     1  UNL1        0.0000
     11  C          6.0830   -0.7980    1.4300 C.2     1  UNL1        0.0000
     12  C          5.4280    0.3710    1.7540 C.2     1  UNL1        0.0000
@<TRIPOS>BOND
     1     5     4    1
     2     4     2    1
     3     3     2    2
     4     2     1    1
     5     6     1    1
     6     6     7    1
     7     7     8    2
     8     7     9    1
     9     8    10    1
    10     9    11    2
    11    10    12    2
    12    11    12    1
