@<TRIPOS>MOLECULE
/home/cewinharhar/GITHUB/reincatalyze/data/processed/docking_pred/2023-Apr-26-1657_maxeplen10_maxtrainstep1000_exh32_gamma099_lrac9e-4_lrcr1e-3/551c5941f3bf749be32b1159c48b101be233bdbe_ligand_2.pdbqt
 12 12 0 0 0
SMALL
GASTEIGER

@<TRIPOS>ATOM
      1  C          8.4010   -0.5320   -2.2600 C.3     1  UNL1        0.1270
      2  C          8.4570   -1.8590   -2.9180 C.2     1  UNL1        0.3030
      3  O          9.5440   -2.4720   -3.0550 O.2     1  UNL1       -0.2520
      4  O          7.3060   -2.4610   -3.4020 O.3     1  UNL1       -0.4810
      5  H          6.6420   -1.9050   -3.9480 H       1  UNL1        0.2960
      6  C          6.9670   -0.1040   -2.1850 C.3     1  UNL1        0.0470
      7  C          6.4620    0.0460   -0.8210 C.2     1  UNL1       -0.0470
      8  C          6.6010   -0.9700    0.0960 C.2     1  UNL1        0.0040
      9  C          5.8440    1.2210   -0.4600 C.2     1  UNL1        0.0040
     10  C          6.0950   -0.7560    1.3810 C.2     1  UNL1        0.0000
     11  C          5.3450    1.4300    0.8100 C.2     1  UNL1        0.0000
     12  C          5.4790    0.4170    1.7350 C.2     1  UNL1        0.0000
@<TRIPOS>BOND
     1     5     4    1
     2     4     2    1
     3     3     2    2
     4     2     1    1
     5     1     6    1
     6     6     7    1
     7     7     9    2
     8     7     8    1
     9     9    11    1
    10     8    10    2
    11    11    12    2
    12    10    12    1
