@<TRIPOS>MOLECULE
/home/cewinharhar/GITHUB/reincatalyze/data/processed/docking_pred/2023-Apr-26-1657_maxeplen10_maxtrainstep1000_exh32_gamma099_lrac9e-4_lrcr1e-3/551e6d8a024554ec32308953f7464105b503c37a_ligand_2.pdbqt
 12 12 0 0 0
SMALL
GASTEIGER

@<TRIPOS>ATOM
      1  C          4.9900    1.8040    0.7090 C.3     1  UNL1        0.1270
      2  C          4.4860    1.1080    1.9170 C.2     1  UNL1        0.3030
      3  O          5.1540    0.2010    2.4730 O.2     1  UNL1       -0.2520
      4  O          3.2580    1.4410    2.4670 O.3     1  UNL1       -0.4810
      5  H          2.4120    0.9810    2.1190 H       1  UNL1        0.2960
      6  C          6.4880    1.7940    0.7520 C.3     1  UNL1        0.0470
      7  C          7.1090    1.0420   -0.3380 C.2     1  UNL1       -0.0470
      8  C          6.3730    0.1550   -1.0890 C.2     1  UNL1        0.0040
      9  C          8.4440    1.2320   -0.6090 C.2     1  UNL1        0.0040
     10  C          7.0310   -0.5270   -2.1140 C.2     1  UNL1        0.0000
     11  C          9.0930    0.5570   -1.6230 C.2     1  UNL1        0.0000
     12  C          8.3640   -0.3340   -2.3800 C.2     1  UNL1        0.0000
@<TRIPOS>BOND
     1    12    10    2
     2    12    11    1
     3    10     8    1
     4    11     9    2
     5     8     7    2
     6     9     7    1
     7     7     6    1
     8     1     6    1
     9     1     2    1
    10     2     4    1
    11     2     3    2
    12     5     4    1
