@<TRIPOS>MOLECULE
/home/cewinharhar/GITHUB/reincatalyze/data/processed/docking_pred/2023-Apr-26-1657_maxeplen10_maxtrainstep1000_exh32_gamma099_lrac9e-4_lrcr1e-3/551e6d8a024554ec32308953f7464105b503c37a_ligand_2.pdbqt
 12 12 0 0 0
SMALL
GASTEIGER

@<TRIPOS>ATOM
      1  C          8.4460   -0.6720   -2.0320 C.3     1  UNL1        0.1270
      2  C          8.3880   -1.9010   -2.8580 C.2     1  UNL1        0.3030
      3  O          7.2890   -2.3940   -3.2130 O.2     1  UNL1       -0.2520
      4  O          9.5480   -2.5410   -3.2620 O.3     1  UNL1       -0.4810
      5  H         10.0620   -2.1830   -4.0710 H       1  UNL1        0.2960
      6  C          7.0970   -0.0210   -2.0600 C.3     1  UNL1        0.0470
      7  C          6.4910    0.1470   -0.7400 C.2     1  UNL1       -0.0470
      8  C          5.8080    1.2980   -0.4210 C.2     1  UNL1        0.0040
      9  C          6.6070   -0.8640    0.1850 C.2     1  UNL1        0.0040
     10  C          5.2530    1.3890    0.8580 C.2     1  UNL1        0.0000
     11  C          6.0580   -0.7720    1.4490 C.2     1  UNL1        0.0000
     12  C          5.3730    0.3780    1.7770 C.2     1  UNL1        0.0000
@<TRIPOS>BOND
     1     5     4    1
     2     4     2    1
     3     3     2    2
     4     2     1    1
     5     6     1    1
     6     6     7    1
     7     7     8    2
     8     7     9    1
     9     8    10    1
    10     9    11    2
    11    10    12    2
    12    11    12    1
