MODEL 1
REMARK VINA RESULT:      -7.4      0.000      0.000
REMARK SMILES O=C(O)CCc1ccccc1
REMARK SMILES IDX 4 1 2 2 1 3 3 4 5 6 6 7 7 8 11 9 8 10 10 11 9 12
REMARK H PARENT 3 5
REMARK Flexibility Score: inf
ROOT
ATOM      1  C   UNL     1       8.479  -0.629  -2.128  1.00  0.00     0.127 C 
ENDROOT
BRANCH   1   2
ATOM      2  C   UNL     1       8.493  -1.898  -2.892  1.00  0.00     0.303 C 
ATOM      3  O   UNL     1       9.563  -2.524  -3.094  1.00  0.00    -0.252 OA
BRANCH   2   4
ATOM      4  O   UNL     1       7.322  -2.431  -3.407  1.00  0.00    -0.481 OA
ATOM      5  H   UNL     1       7.367  -3.036  -4.231  1.00  0.00     0.296 HD
ENDBRANCH   2   4
ENDBRANCH   1   2
BRANCH   1   6
ATOM      6  C   UNL     1       7.075  -0.105  -2.112  1.00  0.00     0.047 C 
BRANCH   6   7
ATOM      7  C   UNL     1       6.512   0.045  -0.771  1.00  0.00    -0.047 A 
ATOM      8  C   UNL     1       6.626  -0.964   0.157  1.00  0.00     0.004 A 
ATOM      9  C   UNL     1       5.864   1.213  -0.442  1.00  0.00     0.004 A 
ATOM     10  C   UNL     1       6.065  -0.752   1.418  1.00  0.00     0.000 A 
ATOM     11  C   UNL     1       5.310   1.421   0.805  1.00  0.00     0.000 A 
ATOM     12  C   UNL     1       5.419   0.415   1.741  1.00  0.00     0.000 A 
ENDBRANCH   6   7
ENDBRANCH   1   6
TORSDOF 4
ENDMDL
MODEL 2
REMARK VINA RESULT:      -7.3      0.117      1.731
REMARK SMILES O=C(O)CCc1ccccc1
REMARK SMILES IDX 4 1 2 2 1 3 3 4 5 6 6 7 7 8 11 9 8 10 10 11 9 12
REMARK H PARENT 3 5
REMARK Flexibility Score: inf
ROOT
ATOM      1  C   UNL     1       8.446  -0.672  -2.032  1.00  0.00     0.127 C 
ENDROOT
BRANCH   1   2
ATOM      2  C   UNL     1       8.388  -1.901  -2.858  1.00  0.00     0.303 C 
ATOM      3  O   UNL     1       7.289  -2.394  -3.213  1.00  0.00    -0.252 OA
BRANCH   2   4
ATOM      4  O   UNL     1       9.548  -2.541  -3.262  1.00  0.00    -0.481 OA
ATOM      5  H   UNL     1      10.062  -2.183  -4.071  1.00  0.00     0.296 HD
ENDBRANCH   2   4
ENDBRANCH   1   2
BRANCH   1   6
ATOM      6  C   UNL     1       7.097  -0.021  -2.060  1.00  0.00     0.047 C 
BRANCH   6   7
ATOM      7  C   UNL     1       6.491   0.147  -0.740  1.00  0.00    -0.047 A 
ATOM      8  C   UNL     1       5.808   1.298  -0.421  1.00  0.00     0.004 A 
ATOM      9  C   UNL     1       6.607  -0.864   0.185  1.00  0.00     0.004 A 
ATOM     10  C   UNL     1       5.253   1.389   0.858  1.00  0.00     0.000 A 
ATOM     11  C   UNL     1       6.058  -0.772   1.449  1.00  0.00     0.000 A 
ATOM     12  C   UNL     1       5.373   0.378   1.777  1.00  0.00     0.000 A 
ENDBRANCH   6   7
ENDBRANCH   1   6
TORSDOF 4
ENDMDL
MODEL 3
REMARK VINA RESULT:      -7.3      0.589      1.046
REMARK SMILES O=C(O)CCc1ccccc1
REMARK SMILES IDX 4 1 2 2 1 3 3 4 5 6 6 7 7 8 11 9 8 10 10 11 9 12
REMARK H PARENT 3 5
REMARK Flexibility Score: inf
ROOT
ATOM      1  C   UNL     1       8.158  -0.822  -1.983  1.00  0.00     0.127 C 
ENDROOT
BRANCH   1   2
ATOM      2  C   UNL     1       8.359  -1.968  -2.901  1.00  0.00     0.303 C 
ATOM      3  O   UNL     1       9.499  -2.460  -3.089  1.00  0.00    -0.252 OA
BRANCH   2   4
ATOM      4  O   UNL     1       7.290  -2.530  -3.580  1.00  0.00    -0.481 OA
ATOM      5  H   UNL     1       7.231  -3.548  -3.667  1.00  0.00     0.296 HD
ENDBRANCH   2   4
ENDBRANCH   1   2
BRANCH   1   6
ATOM      6  C   UNL     1       7.432  -1.314  -0.769  1.00  0.00     0.047 C 
BRANCH   6   7
ATOM      7  C   UNL     1       6.586  -0.305  -0.133  1.00  0.00    -0.047 A 
ATOM      8  C   UNL     1       6.155  -0.464   1.164  1.00  0.00     0.004 A 
ATOM      9  C   UNL     1       6.223   0.814  -0.847  1.00  0.00     0.004 A 
ATOM     10  C   UNL     1       5.351   0.540   1.707  1.00  0.00     0.000 A 
ATOM     11  C   UNL     1       5.428   1.805  -0.308  1.00  0.00     0.000 A 
ATOM     12  C   UNL     1       4.991   1.654   0.990  1.00  0.00     0.000 A 
ENDBRANCH   6   7
ENDBRANCH   1   6
TORSDOF 4
ENDMDL
MODEL 4
REMARK VINA RESULT:      -6.8      3.366      5.064
REMARK SMILES O=C(O)CCc1ccccc1
REMARK SMILES IDX 4 1 2 2 1 3 3 4 5 6 6 7 7 8 11 9 8 10 10 11 9 12
REMARK H PARENT 3 5
REMARK Flexibility Score: inf
ROOT
ATOM      1  C   UNL     1       4.990   1.804   0.709  1.00  0.00     0.127 C 
ENDROOT
BRANCH   1   2
ATOM      2  C   UNL     1       4.486   1.108   1.917  1.00  0.00     0.303 C 
ATOM      3  O   UNL     1       5.154   0.201   2.473  1.00  0.00    -0.252 OA
BRANCH   2   4
ATOM      4  O   UNL     1       3.258   1.441   2.467  1.00  0.00    -0.481 OA
ATOM      5  H   UNL     1       2.412   0.981   2.119  1.00  0.00     0.296 HD
ENDBRANCH   2   4
ENDBRANCH   1   2
BRANCH   1   6
ATOM      6  C   UNL     1       6.488   1.794   0.752  1.00  0.00     0.047 C 
BRANCH   6   7
ATOM      7  C   UNL     1       7.109   1.042  -0.338  1.00  0.00    -0.047 A 
ATOM      8  C   UNL     1       6.373   0.155  -1.089  1.00  0.00     0.004 A 
ATOM      9  C   UNL     1       8.444   1.232  -0.609  1.00  0.00     0.004 A 
ATOM     10  C   UNL     1       7.031  -0.527  -2.114  1.00  0.00     0.000 A 
ATOM     11  C   UNL     1       9.093   0.557  -1.623  1.00  0.00     0.000 A 
ATOM     12  C   UNL     1       8.364  -0.334  -2.380  1.00  0.00     0.000 A 
ENDBRANCH   6   7
ENDBRANCH   1   6
TORSDOF 4
ENDMDL
MODEL 5
REMARK VINA RESULT:      -6.8      3.824      4.993
REMARK SMILES O=C(O)CCc1ccccc1
REMARK SMILES IDX 4 1 2 2 1 3 3 4 5 6 6 7 7 8 11 9 8 10 10 11 9 12
REMARK H PARENT 3 5
REMARK Flexibility Score: inf
ROOT
ATOM      1  C   UNL     1       5.442   2.905  -0.016  1.00  0.00     0.127 C 
ENDROOT
BRANCH   1   2
ATOM      2  C   UNL     1       6.228   3.873   0.785  1.00  0.00     0.303 C 
ATOM      3  O   UNL     1       6.906   4.775   0.234  1.00  0.00    -0.252 OA
BRANCH   2   4
ATOM      4  O   UNL     1       6.235   3.809   2.169  1.00  0.00    -0.481 OA
ATOM      5  H   UNL     1       5.994   4.644   2.711  1.00  0.00     0.296 HD
ENDBRANCH   2   4
ENDBRANCH   1   2
BRANCH   1   6
ATOM      6  C   UNL     1       4.918   1.847   0.906  1.00  0.00     0.047 C 
BRANCH   6   7
ATOM      7  C   UNL     1       5.705   0.616   0.907  1.00  0.00    -0.047 A 
ATOM      8  C   UNL     1       6.375   0.209  -0.224  1.00  0.00     0.004 A 
ATOM      9  C   UNL     1       5.774  -0.137   2.056  1.00  0.00     0.004 A 
ATOM     10  C   UNL     1       7.109  -0.977  -0.151  1.00  0.00     0.000 A 
ATOM     11  C   UNL     1       6.499  -1.310   2.126  1.00  0.00     0.000 A 
ATOM     12  C   UNL     1       7.173  -1.725   0.998  1.00  0.00     0.000 A 
ENDBRANCH   6   7
ENDBRANCH   1   6
TORSDOF 4
ENDMDL
