@<TRIPOS>MOLECULE
/home/cewinharhar/GITHUB/reincatalyze/data/processed/docking_pred/2023-Apr-26-1657_maxeplen10_maxtrainstep1000_exh32_gamma099_lrac9e-4_lrcr1e-3/551e6d8a024554ec32308953f7464105b503c37a_ligand_2.pdbqt
 12 12 0 0 0
SMALL
GASTEIGER

@<TRIPOS>ATOM
      1  C          8.4790   -0.6290   -2.1280 C.3     1  UNL1        0.1270
      2  C          8.4930   -1.8980   -2.8920 C.2     1  UNL1        0.3030
      3  O          9.5630   -2.5240   -3.0940 O.2     1  UNL1       -0.2520
      4  O          7.3220   -2.4310   -3.4070 O.3     1  UNL1       -0.4810
      5  H          7.3670   -3.0360   -4.2310 H       1  UNL1        0.2960
      6  C          7.0750   -0.1050   -2.1120 C.3     1  UNL1        0.0470
      7  C          6.5120    0.0450   -0.7710 C.2     1  UNL1       -0.0470
      8  C          6.6260   -0.9640    0.1570 C.2     1  UNL1        0.0040
      9  C          5.8640    1.2130   -0.4420 C.2     1  UNL1        0.0040
     10  C          6.0650   -0.7520    1.4180 C.2     1  UNL1        0.0000
     11  C          5.3100    1.4210    0.8050 C.2     1  UNL1        0.0000
     12  C          5.4190    0.4150    1.7410 C.2     1  UNL1        0.0000
@<TRIPOS>BOND
     1     5     4    1
     2     4     2    1
     3     3     2    2
     4     2     1    1
     5     1     6    1
     6     6     7    1
     7     7     9    2
     8     7     8    1
     9     9    11    1
    10     8    10    2
    11    11    12    2
    12    10    12    1
