@<TRIPOS>MOLECULE
/home/cewinharhar/GITHUB/reincatalyze/data/processed/docking_pred/2023-Apr-26-1657_maxeplen10_maxtrainstep1000_exh32_gamma099_lrac9e-4_lrcr1e-3/551e6d8a024554ec32308953f7464105b503c37a_ligand_2.pdbqt
 12 12 0 0 0
SMALL
GASTEIGER

@<TRIPOS>ATOM
      1  C          8.1580   -0.8220   -1.9830 C.3     1  UNL1        0.1270
      2  C          8.3590   -1.9680   -2.9010 C.2     1  UNL1        0.3030
      3  O          9.4990   -2.4600   -3.0890 O.2     1  UNL1       -0.2520
      4  O          7.2900   -2.5300   -3.5800 O.3     1  UNL1       -0.4810
      5  H          7.2310   -3.5480   -3.6670 H       1  UNL1        0.2960
      6  C          7.4320   -1.3140   -0.7690 C.3     1  UNL1        0.0470
      7  C          6.5860   -0.3050   -0.1330 C.2     1  UNL1       -0.0470
      8  C          6.1550   -0.4640    1.1640 C.2     1  UNL1        0.0040
      9  C          6.2230    0.8140   -0.8470 C.2     1  UNL1        0.0040
     10  C          5.3510    0.5400    1.7070 C.2     1  UNL1        0.0000
     11  C          5.4280    1.8050   -0.3080 C.2     1  UNL1        0.0000
     12  C          4.9910    1.6540    0.9900 C.2     1  UNL1        0.0000
@<TRIPOS>BOND
     1     5     4    1
     2     4     2    1
     3     3     2    2
     4     2     1    1
     5     1     6    1
     6     9    11    1
     7     9     7    2
     8     6     7    1
     9    11    12    2
    10     7     8    1
    11    12    10    1
    12     8    10    2
