@<TRIPOS>MOLECULE
/home/cewinharhar/GITHUB/reincatalyze/data/processed/docking_pred/2023-Apr-26-1657_maxeplen10_maxtrainstep1000_exh32_gamma099_lrac9e-4_lrcr1e-3/551e6d8a024554ec32308953f7464105b503c37a_ligand_2.pdbqt
 12 12 0 0 0
SMALL
GASTEIGER

@<TRIPOS>ATOM
      1  C          5.4420    2.9050   -0.0160 C.3     1  UNL1        0.1270
      2  C          6.2280    3.8730    0.7850 C.2     1  UNL1        0.3030
      3  O          6.9060    4.7750    0.2340 O.2     1  UNL1       -0.2520
      4  O          6.2350    3.8090    2.1690 O.3     1  UNL1       -0.4810
      5  H          5.9940    4.6440    2.7110 H       1  UNL1        0.2960
      6  C          4.9180    1.8470    0.9060 C.3     1  UNL1        0.0470
      7  C          5.7050    0.6160    0.9070 C.2     1  UNL1       -0.0470
      8  C          6.3750    0.2090   -0.2240 C.2     1  UNL1        0.0040
      9  C          5.7740   -0.1370    2.0560 C.2     1  UNL1        0.0040
     10  C          7.1090   -0.9770   -0.1510 C.2     1  UNL1        0.0000
     11  C          6.4990   -1.3100    2.1260 C.2     1  UNL1        0.0000
     12  C          7.1730   -1.7250    0.9980 C.2     1  UNL1        0.0000
@<TRIPOS>BOND
     1     8    10    1
     2     8     7    2
     3    10    12    2
     4     1     2    1
     5     1     6    1
     6     3     2    2
     7     2     4    1
     8     6     7    1
     9     7     9    1
    10    12    11    1
    11     9    11    2
    12     4     5    1
