@<TRIPOS>MOLECULE
/home/cewinharhar/GITHUB/reincatalyze/data/processed/docking_pred/2023-Apr-26-1657_maxeplen10_maxtrainstep1000_exh32_gamma099_lrac9e-4_lrcr1e-3/55f9a48c22e019202c812c896c561d7470c53219_ligand_2.pdbqt
 12 12 0 0 0
SMALL
GASTEIGER

@<TRIPOS>ATOM
      1  C          8.4570   -0.6130   -2.1470 C.3     1  UNL1        0.1270
      2  C          8.4860   -1.8890   -2.9000 C.2     1  UNL1        0.3030
      3  O          9.5640   -2.5040   -3.0950 O.2     1  UNL1       -0.2520
      4  O          7.3220   -2.4390   -3.4100 O.3     1  UNL1       -0.4810
      5  H          7.2290   -2.5660   -4.4220 H       1  UNL1        0.2960
      6  C          7.0450   -0.1090   -2.1300 C.3     1  UNL1        0.0470
      7  C          6.4930    0.0650   -0.7870 C.2     1  UNL1       -0.0470
      8  C          5.8610    1.2350   -0.4340 C.2     1  UNL1        0.0040
      9  C          6.6100   -0.9580    0.1250 C.2     1  UNL1        0.0040
     10  C          5.3570    1.3320    0.8650 C.2     1  UNL1        0.0000
     11  C          6.1110   -0.8600    1.4090 C.2     1  UNL1        0.0000
     12  C          5.4770    0.3090    1.7710 C.2     1  UNL1        0.0000
@<TRIPOS>BOND
     1     5     4    1
     2     4     2    1
     3     3     2    2
     4     2     1    1
     5     1     6    1
     6     6     7    1
     7     7     8    2
     8     7     9    1
     9     8    10    1
    10     9    11    2
    11    10    12    2
    12    11    12    1
