@<TRIPOS>MOLECULE
/home/cewinharhar/GITHUB/reincatalyze/data/processed/docking_pred/2023-Apr-26-1657_maxeplen10_maxtrainstep1000_exh32_gamma099_lrac9e-4_lrcr1e-3/55f9a48c22e019202c812c896c561d7470c53219_ligand_2.pdbqt
 12 12 0 0 0
SMALL
GASTEIGER

@<TRIPOS>ATOM
      1  C          8.4360   -0.5940   -2.1930 C.3     1  UNL1        0.1270
      2  C          8.4800   -1.8850   -2.9190 C.2     1  UNL1        0.3030
      3  O          9.5640   -2.4960   -3.0940 O.2     1  UNL1       -0.2520
      4  O          7.3240   -2.4540   -3.4280 O.3     1  UNL1       -0.4810
      5  H          6.4570   -1.9100   -3.4290 H       1  UNL1        0.2960
      6  C          7.0130   -0.1260   -2.1510 C.3     1  UNL1        0.0470
      7  C          6.4790    0.0330   -0.8000 C.2     1  UNL1       -0.0470
      8  C          6.6090   -0.9720    0.1310 C.2     1  UNL1        0.0040
      9  C          5.8420    1.2050   -0.4640 C.2     1  UNL1        0.0040
     10  C          6.0750   -0.7500    1.4030 C.2     1  UNL1        0.0000
     11  C          5.3140    1.4220    0.7940 C.2     1  UNL1        0.0000
     12  C          5.4400    0.4210    1.7320 C.2     1  UNL1        0.0000
@<TRIPOS>BOND
     1     5     4    1
     2     4     2    1
     3     3     2    2
     4     2     1    1
     5     1     6    1
     6     6     7    1
     7     7     9    2
     8     7     8    1
     9     9    11    1
    10     8    10    2
    11    11    12    2
    12    10    12    1
