MODEL 1
REMARK VINA RESULT:      -7.4      0.000      0.000
REMARK SMILES O=C(O)CCc1ccccc1
REMARK SMILES IDX 4 1 2 2 1 3 3 4 5 6 6 7 7 8 11 9 8 10 10 11 9 12
REMARK H PARENT 3 5
REMARK Flexibility Score: inf
ROOT
ATOM      1  C   UNL     1       8.457  -0.613  -2.147  1.00  0.00     0.127 C 
ENDROOT
BRANCH   1   2
ATOM      2  C   UNL     1       8.486  -1.889  -2.900  1.00  0.00     0.303 C 
ATOM      3  O   UNL     1       9.564  -2.504  -3.095  1.00  0.00    -0.252 OA
BRANCH   2   4
ATOM      4  O   UNL     1       7.322  -2.439  -3.410  1.00  0.00    -0.481 OA
ATOM      5  H   UNL     1       7.229  -2.566  -4.422  1.00  0.00     0.296 HD
ENDBRANCH   2   4
ENDBRANCH   1   2
BRANCH   1   6
ATOM      6  C   UNL     1       7.045  -0.109  -2.130  1.00  0.00     0.047 C 
BRANCH   6   7
ATOM      7  C   UNL     1       6.493   0.065  -0.787  1.00  0.00    -0.047 A 
ATOM      8  C   UNL     1       5.861   1.235  -0.434  1.00  0.00     0.004 A 
ATOM      9  C   UNL     1       6.610  -0.958   0.125  1.00  0.00     0.004 A 
ATOM     10  C   UNL     1       5.357   1.332   0.865  1.00  0.00     0.000 A 
ATOM     11  C   UNL     1       6.111  -0.860   1.409  1.00  0.00     0.000 A 
ATOM     12  C   UNL     1       5.477   0.309   1.771  1.00  0.00     0.000 A 
ENDBRANCH   6   7
ENDBRANCH   1   6
TORSDOF 4
ENDMDL
MODEL 2
REMARK VINA RESULT:      -7.3      0.070      1.438
REMARK SMILES O=C(O)CCc1ccccc1
REMARK SMILES IDX 4 1 2 2 1 3 3 4 5 6 6 7 7 8 11 9 8 10 10 11 9 12
REMARK H PARENT 3 5
REMARK Flexibility Score: inf
ROOT
ATOM      1  C   UNL     1       8.436  -0.594  -2.193  1.00  0.00     0.127 C 
ENDROOT
BRANCH   1   2
ATOM      2  C   UNL     1       8.480  -1.885  -2.919  1.00  0.00     0.303 C 
ATOM      3  O   UNL     1       9.564  -2.496  -3.094  1.00  0.00    -0.252 OA
BRANCH   2   4
ATOM      4  O   UNL     1       7.324  -2.454  -3.428  1.00  0.00    -0.481 OA
ATOM      5  H   UNL     1       6.457  -1.910  -3.429  1.00  0.00     0.296 HD
ENDBRANCH   2   4
ENDBRANCH   1   2
BRANCH   1   6
ATOM      6  C   UNL     1       7.013  -0.126  -2.151  1.00  0.00     0.047 C 
BRANCH   6   7
ATOM      7  C   UNL     1       6.479   0.033  -0.800  1.00  0.00    -0.047 A 
ATOM      8  C   UNL     1       6.609  -0.972   0.131  1.00  0.00     0.004 A 
ATOM      9  C   UNL     1       5.842   1.205  -0.464  1.00  0.00     0.004 A 
ATOM     10  C   UNL     1       6.075  -0.750   1.403  1.00  0.00     0.000 A 
ATOM     11  C   UNL     1       5.314   1.422   0.794  1.00  0.00     0.000 A 
ATOM     12  C   UNL     1       5.440   0.421   1.732  1.00  0.00     0.000 A 
ENDBRANCH   6   7
ENDBRANCH   1   6
TORSDOF 4
ENDMDL
MODEL 3
REMARK VINA RESULT:      -6.8      0.992      1.906
REMARK SMILES O=C(O)CCc1ccccc1
REMARK SMILES IDX 4 1 2 2 1 3 3 4 5 6 6 7 7 8 11 9 8 10 10 11 9 12
REMARK H PARENT 3 5
REMARK Flexibility Score: inf
ROOT
ATOM      1  C   UNL     1       7.572  -1.473  -2.099  1.00  0.00     0.127 C 
ENDROOT
BRANCH   1   2
ATOM      2  C   UNL     1       8.490  -2.566  -2.496  1.00  0.00     0.303 C 
ATOM      3  O   UNL     1       8.373  -3.721  -2.015  1.00  0.00    -0.252 OA
BRANCH   2   4
ATOM      4  O   UNL     1       9.506  -2.344  -3.411  1.00  0.00    -0.481 OA
ATOM      5  H   UNL     1       9.600  -1.419  -3.840  1.00  0.00     0.296 HD
ENDBRANCH   2   4
ENDBRANCH   1   2
BRANCH   1   6
ATOM      6  C   UNL     1       7.496  -1.441  -0.603  1.00  0.00     0.047 C 
BRANCH   6   7
ATOM      7  C   UNL     1       6.643  -0.379  -0.074  1.00  0.00    -0.047 A 
ATOM      8  C   UNL     1       6.153  -0.445   1.210  1.00  0.00     0.004 A 
ATOM      9  C   UNL     1       6.333   0.696  -0.875  1.00  0.00     0.004 A 
ATOM     10  C   UNL     1       5.344   0.606   1.650  1.00  0.00     0.000 A 
ATOM     11  C   UNL     1       5.534   1.734  -0.438  1.00  0.00     0.000 A 
ATOM     12  C   UNL     1       5.038   1.675   0.846  1.00  0.00     0.000 A 
ENDBRANCH   6   7
ENDBRANCH   1   6
TORSDOF 4
ENDMDL
MODEL 4
REMARK VINA RESULT:      -6.7      3.336      5.009
REMARK SMILES O=C(O)CCc1ccccc1
REMARK SMILES IDX 4 1 2 2 1 3 3 4 5 6 6 7 7 8 11 9 8 10 10 11 9 12
REMARK H PARENT 3 5
REMARK Flexibility Score: inf
ROOT
ATOM      1  C   UNL     1       5.045   1.734   0.679  1.00  0.00     0.127 C 
ENDROOT
BRANCH   1   2
ATOM      2  C   UNL     1       4.605   1.043   1.914  1.00  0.00     0.303 C 
ATOM      3  O   UNL     1       5.336   0.192   2.479  1.00  0.00    -0.252 OA
BRANCH   2   4
ATOM      4  O   UNL     1       3.370   1.318   2.480  1.00  0.00    -0.481 OA
ATOM      5  H   UNL     1       2.522   0.970   2.025  1.00  0.00     0.296 HD
ENDBRANCH   2   4
ENDBRANCH   1   2
BRANCH   1   6
ATOM      6  C   UNL     1       6.541   1.807   0.688  1.00  0.00     0.047 C 
BRANCH   6   7
ATOM      7  C   UNL     1       7.180   1.034  -0.375  1.00  0.00    -0.047 A 
ATOM      8  C   UNL     1       8.513   1.208  -0.668  1.00  0.00     0.004 A 
ATOM      9  C   UNL     1       6.433   0.121  -1.084  1.00  0.00     0.004 A 
ATOM     10  C   UNL     1       9.058   0.435  -1.695  1.00  0.00     0.000 A 
ATOM     11  C   UNL     1       6.973  -0.643  -2.099  1.00  0.00     0.000 A 
ATOM     12  C   UNL     1       8.307  -0.473  -2.400  1.00  0.00     0.000 A 
ENDBRANCH   6   7
ENDBRANCH   1   6
TORSDOF 4
ENDMDL
MODEL 5
REMARK VINA RESULT:      -6.7      3.821      4.974
REMARK SMILES O=C(O)CCc1ccccc1
REMARK SMILES IDX 4 1 2 2 1 3 3 4 5 6 6 7 7 8 11 9 8 10 10 11 9 12
REMARK H PARENT 3 5
REMARK Flexibility Score: inf
ROOT
ATOM      1  C   UNL     1       5.521   2.870  -0.020  1.00  0.00     0.127 C 
ENDROOT
BRANCH   1   2
ATOM      2  C   UNL     1       6.262   3.865   0.790  1.00  0.00     0.303 C 
ATOM      3  O   UNL     1       6.936   4.775   0.247  1.00  0.00    -0.252 OA
BRANCH   2   4
ATOM      4  O   UNL     1       6.233   3.816   2.175  1.00  0.00    -0.481 OA
ATOM      5  H   UNL     1       6.933   3.259   2.672  1.00  0.00     0.296 HD
ENDBRANCH   2   4
ENDBRANCH   1   2
BRANCH   1   6
ATOM      6  C   UNL     1       4.955   1.836   0.905  1.00  0.00     0.047 C 
BRANCH   6   7
ATOM      7  C   UNL     1       5.728   0.596   0.955  1.00  0.00    -0.047 A 
ATOM      8  C   UNL     1       5.747  -0.175   2.094  1.00  0.00     0.004 A 
ATOM      9  C   UNL     1       6.441   0.204  -0.154  1.00  0.00     0.004 A 
ATOM     10  C   UNL     1       6.506  -1.347   2.070  1.00  0.00     0.000 A 
ATOM     11  C   UNL     1       7.192  -0.954  -0.176  1.00  0.00     0.000 A 
ATOM     12  C   UNL     1       7.216  -1.733   0.961  1.00  0.00     0.000 A 
ENDBRANCH   6   7
ENDBRANCH   1   6
TORSDOF 4
ENDMDL
