@<TRIPOS>MOLECULE
/home/cewinharhar/GITHUB/reincatalyze/data/processed/docking_pred/2023-Apr-26-1657_maxeplen10_maxtrainstep1000_exh32_gamma099_lrac9e-4_lrcr1e-3/55f9a48c22e019202c812c896c561d7470c53219_ligand_2.pdbqt
 12 12 0 0 0
SMALL
GASTEIGER

@<TRIPOS>ATOM
      1  C          7.5720   -1.4730   -2.0990 C.3     1  UNL1        0.1270
      2  C          8.4900   -2.5660   -2.4960 C.2     1  UNL1        0.3030
      3  O          8.3730   -3.7210   -2.0150 O.2     1  UNL1       -0.2520
      4  O          9.5060   -2.3440   -3.4110 O.3     1  UNL1       -0.4810
      5  H          9.6000   -1.4190   -3.8400 H       1  UNL1        0.2960
      6  C          7.4960   -1.4410   -0.6030 C.3     1  UNL1        0.0470
      7  C          6.6430   -0.3790   -0.0740 C.2     1  UNL1       -0.0470
      8  C          6.1530   -0.4450    1.2100 C.2     1  UNL1        0.0040
      9  C          6.3330    0.6960   -0.8750 C.2     1  UNL1        0.0040
     10  C          5.3440    0.6060    1.6500 C.2     1  UNL1        0.0000
     11  C          5.5340    1.7340   -0.4380 C.2     1  UNL1        0.0000
     12  C          5.0380    1.6750    0.8460 C.2     1  UNL1        0.0000
@<TRIPOS>BOND
     1     5     4    1
     2     4     2    1
     3     2     1    1
     4     2     3    2
     5     1     6    1
     6     9    11    1
     7     9     7    2
     8     6     7    1
     9    11    12    2
    10     7     8    1
    11    12    10    1
    12     8    10    2
