@<TRIPOS>MOLECULE
/home/cewinharhar/GITHUB/reincatalyze/data/processed/docking_pred/2023-Apr-26-1657_maxeplen10_maxtrainstep1000_exh32_gamma099_lrac9e-4_lrcr1e-3/55f9a48c22e019202c812c896c561d7470c53219_ligand_2.pdbqt
 12 12 0 0 0
SMALL
GASTEIGER

@<TRIPOS>ATOM
      1  C          5.0450    1.7340    0.6790 C.3     1  UNL1        0.1270
      2  C          4.6050    1.0430    1.9140 C.2     1  UNL1        0.3030
      3  O          5.3360    0.1920    2.4790 O.2     1  UNL1       -0.2520
      4  O          3.3700    1.3180    2.4800 O.3     1  UNL1       -0.4810
      5  H          2.5220    0.9700    2.0250 H       1  UNL1        0.2960
      6  C          6.5410    1.8070    0.6880 C.3     1  UNL1        0.0470
      7  C          7.1800    1.0340   -0.3750 C.2     1  UNL1       -0.0470
      8  C          8.5130    1.2080   -0.6680 C.2     1  UNL1        0.0040
      9  C          6.4330    0.1210   -1.0840 C.2     1  UNL1        0.0040
     10  C          9.0580    0.4350   -1.6950 C.2     1  UNL1        0.0000
     11  C          6.9730   -0.6430   -2.0990 C.2     1  UNL1        0.0000
     12  C          8.3070   -0.4730   -2.4000 C.2     1  UNL1        0.0000
@<TRIPOS>BOND
     1    12    11    2
     2    12    10    1
     3    11     9    1
     4    10     8    2
     5     9     7    2
     6     8     7    1
     7     7     6    1
     8     1     6    1
     9     1     2    1
    10     2     3    2
    11     2     4    1
    12     5     4    1
