@<TRIPOS>MOLECULE
/home/cewinharhar/GITHUB/reincatalyze/data/processed/docking_pred/2023-Apr-26-1657_maxeplen10_maxtrainstep1000_exh32_gamma099_lrac9e-4_lrcr1e-3/55f9a48c22e019202c812c896c561d7470c53219_ligand_2.pdbqt
 12 12 0 0 0
SMALL
GASTEIGER

@<TRIPOS>ATOM
      1  C          5.5210    2.8700   -0.0200 C.3     1  UNL1        0.1270
      2  C          6.2620    3.8650    0.7900 C.2     1  UNL1        0.3030
      3  O          6.9360    4.7750    0.2470 O.2     1  UNL1       -0.2520
      4  O          6.2330    3.8160    2.1750 O.3     1  UNL1       -0.4810
      5  H          6.9330    3.2590    2.6720 H       1  UNL1        0.2960
      6  C          4.9550    1.8360    0.9050 C.3     1  UNL1        0.0470
      7  C          5.7280    0.5960    0.9550 C.2     1  UNL1       -0.0470
      8  C          5.7470   -0.1750    2.0940 C.2     1  UNL1        0.0040
      9  C          6.4410    0.2040   -0.1540 C.2     1  UNL1        0.0040
     10  C          6.5060   -1.3470    2.0700 C.2     1  UNL1        0.0000
     11  C          7.1920   -0.9540   -0.1760 C.2     1  UNL1        0.0000
     12  C          7.2160   -1.7330    0.9610 C.2     1  UNL1        0.0000
@<TRIPOS>BOND
     1    11     9    1
     2    11    12    2
     3     9     7    2
     4     1     2    1
     5     1     6    1
     6     3     2    2
     7     2     4    1
     8     6     7    1
     9     7     8    1
    10    12    10    1
    11    10     8    2
    12     4     5    1
