MODEL 1
REMARK VINA RESULT:      -7.3      0.000      0.000
REMARK SMILES O=C(O)CCc1ccccc1
REMARK SMILES IDX 4 1 2 2 1 3 3 4 5 6 6 7 7 8 11 9 8 10 10 11 9 12
REMARK H PARENT 3 5
REMARK Flexibility Score: inf
ROOT
ATOM      1  C   UNL     1       8.419  -0.609  -2.175  1.00  0.00     0.127 C 
ENDROOT
BRANCH   1   2
ATOM      2  C   UNL     1       8.474  -1.891  -2.916  1.00  0.00     0.303 C 
ATOM      3  O   UNL     1       9.561  -2.498  -3.086  1.00  0.00    -0.252 OA
BRANCH   2   4
ATOM      4  O   UNL     1       7.325  -2.456  -3.444  1.00  0.00    -0.481 OA
ATOM      5  H   UNL     1       6.423  -2.270  -2.996  1.00  0.00     0.296 HD
ENDBRANCH   2   4
ENDBRANCH   1   2
BRANCH   1   6
ATOM      6  C   UNL     1       6.994  -0.146  -2.142  1.00  0.00     0.047 C 
BRANCH   6   7
ATOM      7  C   UNL     1       6.464   0.048  -0.793  1.00  0.00    -0.047 A 
ATOM      8  C   UNL     1       5.819   1.214  -0.452  1.00  0.00     0.004 A 
ATOM      9  C   UNL     1       6.614  -0.954   0.138  1.00  0.00     0.004 A 
ATOM     10  C   UNL     1       5.337   1.330   0.854  1.00  0.00     0.000 A 
ATOM     11  C   UNL     1       6.138  -0.838   1.428  1.00  0.00     0.000 A 
ATOM     12  C   UNL     1       5.491   0.327   1.778  1.00  0.00     0.000 A 
ENDBRANCH   6   7
ENDBRANCH   1   6
TORSDOF 4
ENDMDL
MODEL 2
REMARK VINA RESULT:      -7.3      0.063      1.438
REMARK SMILES O=C(O)CCc1ccccc1
REMARK SMILES IDX 4 1 2 2 1 3 3 4 5 6 6 7 7 8 11 9 8 10 10 11 9 12
REMARK H PARENT 3 5
REMARK Flexibility Score: inf
ROOT
ATOM      1  C   UNL     1       8.428  -0.544  -2.264  1.00  0.00     0.127 C 
ENDROOT
BRANCH   1   2
ATOM      2  C   UNL     1       8.487  -1.866  -2.931  1.00  0.00     0.303 C 
ATOM      3  O   UNL     1       9.574  -2.482  -3.061  1.00  0.00    -0.252 OA
BRANCH   2   4
ATOM      4  O   UNL     1       7.340  -2.461  -3.431  1.00  0.00    -0.481 OA
ATOM      5  H   UNL     1       6.694  -1.904  -3.998  1.00  0.00     0.296 HD
ENDBRANCH   2   4
ENDBRANCH   1   2
BRANCH   1   6
ATOM      6  C   UNL     1       6.994  -0.119  -2.188  1.00  0.00     0.047 C 
BRANCH   6   7
ATOM      7  C   UNL     1       6.488   0.025  -0.824  1.00  0.00    -0.047 A 
ATOM      8  C   UNL     1       6.635  -0.991   0.091  1.00  0.00     0.004 A 
ATOM      9  C   UNL     1       5.860   1.194  -0.460  1.00  0.00     0.004 A 
ATOM     10  C   UNL     1       6.128  -0.785   1.376  1.00  0.00     0.000 A 
ATOM     11  C   UNL     1       5.359   1.396   0.811  1.00  0.00     0.000 A 
ATOM     12  C   UNL     1       5.502   0.382   1.733  1.00  0.00     0.000 A 
ENDBRANCH   6   7
ENDBRANCH   1   6
TORSDOF 4
ENDMDL
MODEL 3
REMARK VINA RESULT:      -7.2      0.692      1.129
REMARK SMILES O=C(O)CCc1ccccc1
REMARK SMILES IDX 4 1 2 2 1 3 3 4 5 6 6 7 7 8 11 9 8 10 10 11 9 12
REMARK H PARENT 3 5
REMARK Flexibility Score: inf
ROOT
ATOM      1  C   UNL     1       8.365  -0.975  -1.755  1.00  0.00     0.127 C 
ENDROOT
BRANCH   1   2
ATOM      2  C   UNL     1       8.470  -2.002  -2.819  1.00  0.00     0.303 C 
ATOM      3  O   UNL     1       9.581  -2.482  -3.153  1.00  0.00    -0.252 OA
BRANCH   2   4
ATOM      4  O   UNL     1       7.339  -2.462  -3.475  1.00  0.00    -0.481 OA
ATOM      5  H   UNL     1       7.371  -2.603  -4.488  1.00  0.00     0.296 HD
ENDBRANCH   2   4
ENDBRANCH   1   2
BRANCH   1   6
ATOM      6  C   UNL     1       7.308  -1.407  -0.785  1.00  0.00     0.047 C 
BRANCH   6   7
ATOM      7  C   UNL     1       6.525  -0.305  -0.230  1.00  0.00    -0.047 A 
ATOM      8  C   UNL     1       6.204   0.789  -1.000  1.00  0.00     0.004 A 
ATOM      9  C   UNL     1       6.107  -0.372   1.079  1.00  0.00     0.004 A 
ATOM     10  C   UNL     1       5.453   1.804  -0.404  1.00  0.00     0.000 A 
ATOM     11  C   UNL     1       5.364   0.633   1.667  1.00  0.00     0.000 A 
ATOM     12  C   UNL     1       5.039   1.732   0.903  1.00  0.00     0.000 A 
ENDBRANCH   6   7
ENDBRANCH   1   6
TORSDOF 4
ENDMDL
MODEL 4
REMARK VINA RESULT:      -6.8      3.395      5.085
REMARK SMILES O=C(O)CCc1ccccc1
REMARK SMILES IDX 4 1 2 2 1 3 3 4 5 6 6 7 7 8 11 9 8 10 10 11 9 12
REMARK H PARENT 3 5
REMARK Flexibility Score: inf
ROOT
ATOM      1  C   UNL     1       4.977   1.800   0.688  1.00  0.00     0.127 C 
ENDROOT
BRANCH   1   2
ATOM      2  C   UNL     1       4.476   1.121   1.907  1.00  0.00     0.303 C 
ATOM      3  O   UNL     1       5.145   0.220   2.471  1.00  0.00    -0.252 OA
BRANCH   2   4
ATOM      4  O   UNL     1       3.251   1.462   2.457  1.00  0.00    -0.481 OA
ATOM      5  H   UNL     1       2.412   1.425   1.873  1.00  0.00     0.296 HD
ENDBRANCH   2   4
ENDBRANCH   1   2
BRANCH   1   6
ATOM      6  C   UNL     1       6.475   1.807   0.736  1.00  0.00     0.047 C 
BRANCH   6   7
ATOM      7  C   UNL     1       7.107   1.051  -0.344  1.00  0.00    -0.047 A 
ATOM      8  C   UNL     1       6.382   0.153  -1.092  1.00  0.00     0.004 A 
ATOM      9  C   UNL     1       8.442   1.248  -0.609  1.00  0.00     0.004 A 
ATOM     10  C   UNL     1       7.050  -0.534  -2.108  1.00  0.00     0.000 A 
ATOM     11  C   UNL     1       9.102   0.568  -1.613  1.00  0.00     0.000 A 
ATOM     12  C   UNL     1       8.383  -0.334  -2.367  1.00  0.00     0.000 A 
ENDBRANCH   6   7
ENDBRANCH   1   6
TORSDOF 4
ENDMDL
MODEL 5
REMARK VINA RESULT:      -6.7      3.829      4.925
REMARK SMILES O=C(O)CCc1ccccc1
REMARK SMILES IDX 4 1 2 2 1 3 3 4 5 6 6 7 7 8 11 9 8 10 10 11 9 12
REMARK H PARENT 3 5
REMARK Flexibility Score: inf
ROOT
ATOM      1  C   UNL     1       5.431   2.902   0.008  1.00  0.00     0.127 C 
ENDROOT
BRANCH   1   2
ATOM      2  C   UNL     1       6.236   3.872   0.789  1.00  0.00     0.303 C 
ATOM      3  O   UNL     1       6.898   4.775   0.221  1.00  0.00    -0.252 OA
BRANCH   2   4
ATOM      4  O   UNL     1       6.279   3.807   2.172  1.00  0.00    -0.481 OA
ATOM      5  H   UNL     1       7.165   3.587   2.636  1.00  0.00     0.296 HD
ENDBRANCH   2   4
ENDBRANCH   1   2
BRANCH   1   6
ATOM      6  C   UNL     1       4.924   1.849   0.945  1.00  0.00     0.047 C 
BRANCH   6   7
ATOM      7  C   UNL     1       5.707   0.614   0.932  1.00  0.00    -0.047 A 
ATOM      8  C   UNL     1       6.363   0.210  -0.208  1.00  0.00     0.004 A 
ATOM      9  C   UNL     1       5.785  -0.144   2.077  1.00  0.00     0.004 A 
ATOM     10  C   UNL     1       7.093  -0.979  -0.148  1.00  0.00     0.000 A 
ATOM     11  C   UNL     1       6.506  -1.319   2.134  1.00  0.00     0.000 A 
ATOM     12  C   UNL     1       7.166  -1.732   0.997  1.00  0.00     0.000 A 
ENDBRANCH   6   7
ENDBRANCH   1   6
TORSDOF 4
ENDMDL
