@<TRIPOS>MOLECULE
/home/cewinharhar/GITHUB/reincatalyze/data/processed/docking_pred/2023-Apr-26-1657_maxeplen10_maxtrainstep1000_exh32_gamma099_lrac9e-4_lrcr1e-3/57f45ec83c8c38489066d898ddae0638f0802b8b_ligand_2.pdbqt
 12 12 0 0 0
SMALL
GASTEIGER

@<TRIPOS>ATOM
      1  C          8.4280   -0.5440   -2.2640 C.3     1  UNL1        0.1270
      2  C          8.4870   -1.8660   -2.9310 C.2     1  UNL1        0.3030
      3  O          9.5740   -2.4820   -3.0610 O.2     1  UNL1       -0.2520
      4  O          7.3400   -2.4610   -3.4310 O.3     1  UNL1       -0.4810
      5  H          6.6940   -1.9040   -3.9980 H       1  UNL1        0.2960
      6  C          6.9940   -0.1190   -2.1880 C.3     1  UNL1        0.0470
      7  C          6.4880    0.0250   -0.8240 C.2     1  UNL1       -0.0470
      8  C          6.6350   -0.9910    0.0910 C.2     1  UNL1        0.0040
      9  C          5.8600    1.1940   -0.4600 C.2     1  UNL1        0.0040
     10  C          6.1280   -0.7850    1.3760 C.2     1  UNL1        0.0000
     11  C          5.3590    1.3960    0.8110 C.2     1  UNL1        0.0000
     12  C          5.5020    0.3820    1.7330 C.2     1  UNL1        0.0000
@<TRIPOS>BOND
     1     5     4    1
     2     4     2    1
     3     3     2    2
     4     2     1    1
     5     1     6    1
     6     6     7    1
     7     7     9    2
     8     7     8    1
     9     9    11    1
    10     8    10    2
    11    11    12    2
    12    10    12    1
