@<TRIPOS>MOLECULE
/home/cewinharhar/GITHUB/reincatalyze/data/processed/docking_pred/2023-Apr-26-1657_maxeplen10_maxtrainstep1000_exh32_gamma099_lrac9e-4_lrcr1e-3/57f45ec83c8c38489066d898ddae0638f0802b8b_ligand_2.pdbqt
 12 12 0 0 0
SMALL
GASTEIGER

@<TRIPOS>ATOM
      1  C          4.9770    1.8000    0.6880 C.3     1  UNL1        0.1270
      2  C          4.4760    1.1210    1.9070 C.2     1  UNL1        0.3030
      3  O          5.1450    0.2200    2.4710 O.2     1  UNL1       -0.2520
      4  O          3.2510    1.4620    2.4570 O.3     1  UNL1       -0.4810
      5  H          2.4120    1.4250    1.8730 H       1  UNL1        0.2960
      6  C          6.4750    1.8070    0.7360 C.3     1  UNL1        0.0470
      7  C          7.1070    1.0510   -0.3440 C.2     1  UNL1       -0.0470
      8  C          6.3820    0.1530   -1.0920 C.2     1  UNL1        0.0040
      9  C          8.4420    1.2480   -0.6090 C.2     1  UNL1        0.0040
     10  C          7.0500   -0.5340   -2.1080 C.2     1  UNL1        0.0000
     11  C          9.1020    0.5680   -1.6130 C.2     1  UNL1        0.0000
     12  C          8.3830   -0.3340   -2.3670 C.2     1  UNL1        0.0000
@<TRIPOS>BOND
     1    12    10    2
     2    12    11    1
     3    10     8    1
     4    11     9    2
     5     8     7    2
     6     9     7    1
     7     7     6    1
     8     1     6    1
     9     1     2    1
    10     5     4    1
    11     2     4    1
    12     2     3    2
