@<TRIPOS>MOLECULE
/home/cewinharhar/GITHUB/reincatalyze/data/processed/docking_pred/2023-Apr-26-1657_maxeplen10_maxtrainstep1000_exh32_gamma099_lrac9e-4_lrcr1e-3/57f45ec83c8c38489066d898ddae0638f0802b8b_ligand_2.pdbqt
 12 12 0 0 0
SMALL
GASTEIGER

@<TRIPOS>ATOM
      1  C          5.4310    2.9020    0.0080 C.3     1  UNL1        0.1270
      2  C          6.2360    3.8720    0.7890 C.2     1  UNL1        0.3030
      3  O          6.8980    4.7750    0.2210 O.2     1  UNL1       -0.2520
      4  O          6.2790    3.8070    2.1720 O.3     1  UNL1       -0.4810
      5  H          7.1650    3.5870    2.6360 H       1  UNL1        0.2960
      6  C          4.9240    1.8490    0.9450 C.3     1  UNL1        0.0470
      7  C          5.7070    0.6140    0.9320 C.2     1  UNL1       -0.0470
      8  C          6.3630    0.2100   -0.2080 C.2     1  UNL1        0.0040
      9  C          5.7850   -0.1440    2.0770 C.2     1  UNL1        0.0040
     10  C          7.0930   -0.9790   -0.1480 C.2     1  UNL1        0.0000
     11  C          6.5060   -1.3190    2.1340 C.2     1  UNL1        0.0000
     12  C          7.1660   -1.7320    0.9970 C.2     1  UNL1        0.0000
@<TRIPOS>BOND
     1     8    10    1
     2     8     7    2
     3    10    12    2
     4     1     2    1
     5     1     6    1
     6     3     2    2
     7     2     4    1
     8     7     6    1
     9     7     9    1
    10    12    11    1
    11     9    11    2
    12     4     5    1
