@<TRIPOS>MOLECULE
/home/cewinharhar/GITHUB/reincatalyze/data/processed/docking_pred/2023-Apr-26-1657_maxeplen10_maxtrainstep1000_exh32_gamma099_lrac9e-4_lrcr1e-3/57f45ec83c8c38489066d898ddae0638f0802b8b_ligand_2.pdbqt
 12 12 0 0 0
SMALL
GASTEIGER

@<TRIPOS>ATOM
      1  C          8.3650   -0.9750   -1.7550 C.3     1  UNL1        0.1270
      2  C          8.4700   -2.0020   -2.8190 C.2     1  UNL1        0.3030
      3  O          9.5810   -2.4820   -3.1530 O.2     1  UNL1       -0.2520
      4  O          7.3390   -2.4620   -3.4750 O.3     1  UNL1       -0.4810
      5  H          7.3710   -2.6030   -4.4880 H       1  UNL1        0.2960
      6  C          7.3080   -1.4070   -0.7850 C.3     1  UNL1        0.0470
      7  C          6.5250   -0.3050   -0.2300 C.2     1  UNL1       -0.0470
      8  C          6.2040    0.7890   -1.0000 C.2     1  UNL1        0.0040
      9  C          6.1070   -0.3720    1.0790 C.2     1  UNL1        0.0040
     10  C          5.4530    1.8040   -0.4040 C.2     1  UNL1        0.0000
     11  C          5.3640    0.6330    1.6670 C.2     1  UNL1        0.0000
     12  C          5.0390    1.7320    0.9030 C.2     1  UNL1        0.0000
@<TRIPOS>BOND
     1     5     4    1
     2     4     2    1
     3     3     2    2
     4     2     1    1
     5     1     6    1
     6     8    10    1
     7     8     7    2
     8     6     7    1
     9    10    12    2
    10     7     9    1
    11    12    11    1
    12     9    11    2
