@<TRIPOS>MOLECULE
/home/cewinharhar/GITHUB/reincatalyze/data/processed/docking_pred/2023-Apr-26-1657_maxeplen10_maxtrainstep1000_exh32_gamma099_lrac9e-4_lrcr1e-3/57f45ec83c8c38489066d898ddae0638f0802b8b_ligand_2.pdbqt
 12 12 0 0 0
SMALL
GASTEIGER

@<TRIPOS>ATOM
      1  C          8.4190   -0.6090   -2.1750 C.3     1  UNL1        0.1270
      2  C          8.4740   -1.8910   -2.9160 C.2     1  UNL1        0.3030
      3  O          9.5610   -2.4980   -3.0860 O.2     1  UNL1       -0.2520
      4  O          7.3250   -2.4560   -3.4440 O.3     1  UNL1       -0.4810
      5  H          6.4230   -2.2700   -2.9960 H       1  UNL1        0.2960
      6  C          6.9940   -0.1460   -2.1420 C.3     1  UNL1        0.0470
      7  C          6.4640    0.0480   -0.7930 C.2     1  UNL1       -0.0470
      8  C          5.8190    1.2140   -0.4520 C.2     1  UNL1        0.0040
      9  C          6.6140   -0.9540    0.1380 C.2     1  UNL1        0.0040
     10  C          5.3370    1.3300    0.8540 C.2     1  UNL1        0.0000
     11  C          6.1380   -0.8380    1.4280 C.2     1  UNL1        0.0000
     12  C          5.4910    0.3270    1.7780 C.2     1  UNL1        0.0000
@<TRIPOS>BOND
     1     4     5    1
     2     4     2    1
     3     3     2    2
     4     2     1    1
     5     1     6    1
     6     6     7    1
     7     7     8    2
     8     7     9    1
     9     8    10    1
    10     9    11    2
    11    10    12    2
    12    11    12    1
