@<TRIPOS>MOLECULE
/home/cewinharhar/GITHUB/reincatalyze/data/processed/docking_pred/2023-Apr-26-1657_maxeplen10_maxtrainstep1000_exh32_gamma099_lrac9e-4_lrcr1e-3/59d8efee26bc15572bc8cf3b0279eede3143e347_ligand_2.pdbqt
 12 12 0 0 0
SMALL
GASTEIGER

@<TRIPOS>ATOM
      1  C          8.4290   -0.5890   -2.1920 C.3     1  UNL1        0.1270
      2  C          8.4770   -1.8810   -2.9160 C.2     1  UNL1        0.3030
      3  O          9.5640   -2.4830   -3.1010 O.2     1  UNL1       -0.2520
      4  O          7.3210   -2.4610   -3.4110 O.3     1  UNL1       -0.4810
      5  H          6.5950   -1.8650   -3.8180 H       1  UNL1        0.2960
      6  C          7.0040   -0.1280   -2.1470 C.3     1  UNL1        0.0470
      7  C          6.4800    0.0510   -0.7940 C.2     1  UNL1       -0.0470
      8  C          5.8530    1.2210   -0.4310 C.2     1  UNL1        0.0040
      9  C          6.6170   -0.9680    0.1200 C.2     1  UNL1        0.0040
     10  C          5.3760    1.3220    0.8780 C.2     1  UNL1        0.0000
     11  C          6.1450   -0.8670    1.4130 C.2     1  UNL1        0.0000
     12  C          5.5170    0.3020    1.7850 C.2     1  UNL1        0.0000
@<TRIPOS>BOND
     1     5     4    1
     2     4     2    1
     3     3     2    2
     4     2     1    1
     5     1     6    1
     6     6     7    1
     7     7     8    2
     8     7     9    1
     9     8    10    1
    10     9    11    2
    11    10    12    2
    12    11    12    1
