@<TRIPOS>MOLECULE
/home/cewinharhar/GITHUB/reincatalyze/data/processed/docking_pred/2023-Apr-26-1657_maxeplen10_maxtrainstep1000_exh32_gamma099_lrac9e-4_lrcr1e-3/59d8efee26bc15572bc8cf3b0279eede3143e347_ligand_2.pdbqt
 12 12 0 0 0
SMALL
GASTEIGER

@<TRIPOS>ATOM
      1  C          5.0000    1.8020    0.7080 C.3     1  UNL1        0.1270
      2  C          4.4840    1.1160    1.9170 C.2     1  UNL1        0.3030
      3  O          5.1450    0.2100    2.4820 O.2     1  UNL1       -0.2520
      4  O          3.2560    1.4590    2.4580 O.3     1  UNL1       -0.4810
      5  H          2.8950    2.4070    2.3210 H       1  UNL1        0.2960
      6  C          6.4970    1.7800    0.7570 C.3     1  UNL1        0.0470
      7  C          7.1170    1.0320   -0.3350 C.2     1  UNL1       -0.0470
      8  C          6.3850    0.1330   -1.0760 C.2     1  UNL1        0.0040
      9  C          8.4470    1.2360   -0.6180 C.2     1  UNL1        0.0040
     10  C          7.0420   -0.5460   -2.1040 C.2     1  UNL1        0.0000
     11  C          9.0950    0.5630   -1.6350 C.2     1  UNL1        0.0000
     12  C          8.3700   -0.3390   -2.3820 C.2     1  UNL1        0.0000
@<TRIPOS>BOND
     1    12    10    2
     2    12    11    1
     3    10     8    1
     4    11     9    2
     5     8     7    2
     6     9     7    1
     7     7     6    1
     8     1     6    1
     9     1     2    1
    10     2     4    1
    11     2     3    2
    12     5     4    1
