@<TRIPOS>MOLECULE
/home/cewinharhar/GITHUB/reincatalyze/data/processed/docking_pred/2023-Apr-26-1657_maxeplen10_maxtrainstep1000_exh32_gamma099_lrac9e-4_lrcr1e-3/59d8efee26bc15572bc8cf3b0279eede3143e347_ligand_2.pdbqt
 12 12 0 0 0
SMALL
GASTEIGER

@<TRIPOS>ATOM
      1  C          8.2090   -0.8790   -1.9260 C.3     1  UNL1        0.1270
      2  C          8.3800   -2.0180   -2.8590 C.2     1  UNL1        0.3030
      3  O          9.5110   -2.5220   -3.0690 O.2     1  UNL1       -0.2520
      4  O          7.2940   -2.5580   -3.5280 O.3     1  UNL1       -0.4810
      5  H          6.8770   -3.4280   -3.1860 H       1  UNL1        0.2960
      6  C          7.4490   -1.3630   -0.7280 C.3     1  UNL1        0.0470
      7  C          6.6040   -0.3440   -0.1090 C.2     1  UNL1       -0.0470
      8  C          6.1560   -0.4910    1.1830 C.2     1  UNL1        0.0040
      9  C          6.2590    0.7730   -0.8340 C.2     1  UNL1        0.0040
     10  C          5.3530    0.5230    1.7110 C.2     1  UNL1        0.0000
     11  C          5.4640    1.7740   -0.3110 C.2     1  UNL1        0.0000
     12  C          5.0110    1.6340    0.9820 C.2     1  UNL1        0.0000
@<TRIPOS>BOND
     1     4     5    1
     2     4     2    1
     3     3     2    2
     4     2     1    1
     5     1     6    1
     6     9    11    1
     7     9     7    2
     8     6     7    1
     9    11    12    2
    10     7     8    1
    11    12    10    1
    12     8    10    2
