@<TRIPOS>MOLECULE
/home/cewinharhar/GITHUB/reincatalyze/data/processed/docking_pred/2023-Apr-26-1657_maxeplen10_maxtrainstep1000_exh32_gamma099_lrac9e-4_lrcr1e-3/59d8efee26bc15572bc8cf3b0279eede3143e347_ligand_2.pdbqt
 12 12 0 0 0
SMALL
GASTEIGER

@<TRIPOS>ATOM
      1  C          8.4650   -0.5870   -2.1780 C.3     1  UNL1        0.1270
      2  C          8.4680   -1.8810   -2.9010 C.2     1  UNL1        0.3030
      3  O          9.5240   -2.5490   -3.0340 O.2     1  UNL1       -0.2520
      4  O          7.3040   -2.3900   -3.4520 O.3     1  UNL1       -0.4810
      5  H          6.4770   -1.7900   -3.5180 H       1  UNL1        0.2960
      6  C          7.0590   -0.0700   -2.1460 C.3     1  UNL1        0.0470
      7  C          6.5080    0.0710   -0.7990 C.2     1  UNL1       -0.0470
      8  C          6.6640   -0.9280    0.1330 C.2     1  UNL1        0.0040
      9  C          5.8280    1.2200   -0.4690 C.2     1  UNL1        0.0040
     10  C          6.1130   -0.7250    1.4000 C.2     1  UNL1        0.0000
     11  C          5.2820    1.4190    0.7830 C.2     1  UNL1        0.0000
     12  C          5.4350    0.4230    1.7230 C.2     1  UNL1        0.0000
@<TRIPOS>BOND
     1     5     4    1
     2     4     2    1
     3     3     2    2
     4     2     1    1
     5     1     6    1
     6     6     7    1
     7     7     9    2
     8     7     8    1
     9     9    11    1
    10     8    10    2
    11    11    12    2
    12    10    12    1
