@<TRIPOS>MOLECULE
/home/cewinharhar/GITHUB/reincatalyze/data/processed/docking_pred/2023-Apr-26-1657_maxeplen10_maxtrainstep1000_exh32_gamma099_lrac9e-4_lrcr1e-3/59d8efee26bc15572bc8cf3b0279eede3143e347_ligand_2.pdbqt
 12 12 0 0 0
SMALL
GASTEIGER

@<TRIPOS>ATOM
      1  C          7.2570   -1.2860   -2.3170 C.3     1  UNL1        0.1270
      2  C          8.7180   -1.3930   -2.5410 C.2     1  UNL1        0.3030
      3  O          9.5100   -0.5290   -2.0900 O.2     1  UNL1       -0.2520
      4  O          9.2510   -2.4520   -3.2580 O.3     1  UNL1       -0.4810
      5  H          9.1580   -3.4030   -2.8900 H       1  UNL1        0.2960
      6  C          6.9430    0.1250   -1.9240 C.3     1  UNL1        0.0470
      7  C          6.3460    0.2540   -0.5950 C.2     1  UNL1       -0.0470
      8  C          5.6560    1.3890   -0.2410 C.2     1  UNL1        0.0040
      9  C          6.4810   -0.7790    0.3040 C.2     1  UNL1        0.0040
     10  C          5.1120    1.4420    1.0440 C.2     1  UNL1        0.0000
     11  C          5.9430   -0.7250    1.5740 C.2     1  UNL1        0.0000
     12  C          5.2500    0.4100    1.9370 C.2     1  UNL1        0.0000
@<TRIPOS>BOND
     1     4     5    1
     2     4     2    1
     3     2     1    1
     4     2     3    2
     5     1     6    1
     6     6     7    1
     7     7     8    2
     8     7     9    1
     9     8    10    1
    10     9    11    2
    11    10    12    2
    12    11    12    1
