MODEL 1
REMARK VINA RESULT:      -7.3      0.000      0.000
REMARK SMILES O=C(O)CCc1ccccc1
REMARK SMILES IDX 4 1 2 2 1 3 3 4 5 6 6 7 7 8 11 9 8 10 10 11 9 12
REMARK H PARENT 3 5
REMARK Flexibility Score: inf
ROOT
ATOM      1  C   UNL     1       8.429  -0.589  -2.192  1.00  0.00     0.127 C 
ENDROOT
BRANCH   1   2
ATOM      2  C   UNL     1       8.477  -1.881  -2.916  1.00  0.00     0.303 C 
ATOM      3  O   UNL     1       9.564  -2.483  -3.101  1.00  0.00    -0.252 OA
BRANCH   2   4
ATOM      4  O   UNL     1       7.321  -2.461  -3.411  1.00  0.00    -0.481 OA
ATOM      5  H   UNL     1       6.595  -1.865  -3.818  1.00  0.00     0.296 HD
ENDBRANCH   2   4
ENDBRANCH   1   2
BRANCH   1   6
ATOM      6  C   UNL     1       7.004  -0.128  -2.147  1.00  0.00     0.047 C 
BRANCH   6   7
ATOM      7  C   UNL     1       6.480   0.051  -0.794  1.00  0.00    -0.047 A 
ATOM      8  C   UNL     1       5.853   1.221  -0.431  1.00  0.00     0.004 A 
ATOM      9  C   UNL     1       6.617  -0.968   0.120  1.00  0.00     0.004 A 
ATOM     10  C   UNL     1       5.376   1.322   0.878  1.00  0.00     0.000 A 
ATOM     11  C   UNL     1       6.145  -0.867   1.413  1.00  0.00     0.000 A 
ATOM     12  C   UNL     1       5.517   0.302   1.785  1.00  0.00     0.000 A 
ENDBRANCH   6   7
ENDBRANCH   1   6
TORSDOF 4
ENDMDL
MODEL 2
REMARK VINA RESULT:      -7.3      0.099      1.439
REMARK SMILES O=C(O)CCc1ccccc1
REMARK SMILES IDX 4 1 2 2 1 3 3 4 5 6 6 7 7 8 11 9 8 10 10 11 9 12
REMARK H PARENT 3 5
REMARK Flexibility Score: inf
ROOT
ATOM      1  C   UNL     1       8.465  -0.587  -2.178  1.00  0.00     0.127 C 
ENDROOT
BRANCH   1   2
ATOM      2  C   UNL     1       8.468  -1.881  -2.901  1.00  0.00     0.303 C 
ATOM      3  O   UNL     1       9.524  -2.549  -3.034  1.00  0.00    -0.252 OA
BRANCH   2   4
ATOM      4  O   UNL     1       7.304  -2.390  -3.452  1.00  0.00    -0.481 OA
ATOM      5  H   UNL     1       6.477  -1.790  -3.518  1.00  0.00     0.296 HD
ENDBRANCH   2   4
ENDBRANCH   1   2
BRANCH   1   6
ATOM      6  C   UNL     1       7.059  -0.070  -2.146  1.00  0.00     0.047 C 
BRANCH   6   7
ATOM      7  C   UNL     1       6.508   0.071  -0.799  1.00  0.00    -0.047 A 
ATOM      8  C   UNL     1       6.664  -0.928   0.133  1.00  0.00     0.004 A 
ATOM      9  C   UNL     1       5.828   1.220  -0.469  1.00  0.00     0.004 A 
ATOM     10  C   UNL     1       6.113  -0.725   1.400  1.00  0.00     0.000 A 
ATOM     11  C   UNL     1       5.282   1.419   0.783  1.00  0.00     0.000 A 
ATOM     12  C   UNL     1       5.435   0.423   1.723  1.00  0.00     0.000 A 
ENDBRANCH   6   7
ENDBRANCH   1   6
TORSDOF 4
ENDMDL
MODEL 3
REMARK VINA RESULT:      -7.2      0.628      1.617
REMARK SMILES O=C(O)CCc1ccccc1
REMARK SMILES IDX 4 1 2 2 1 3 3 4 5 6 6 7 7 8 11 9 8 10 10 11 9 12
REMARK H PARENT 3 5
REMARK Flexibility Score: inf
ROOT
ATOM      1  C   UNL     1       8.209  -0.879  -1.926  1.00  0.00     0.127 C 
ENDROOT
BRANCH   1   2
ATOM      2  C   UNL     1       8.380  -2.018  -2.859  1.00  0.00     0.303 C 
ATOM      3  O   UNL     1       9.511  -2.522  -3.069  1.00  0.00    -0.252 OA
BRANCH   2   4
ATOM      4  O   UNL     1       7.294  -2.558  -3.528  1.00  0.00    -0.481 OA
ATOM      5  H   UNL     1       6.877  -3.428  -3.186  1.00  0.00     0.296 HD
ENDBRANCH   2   4
ENDBRANCH   1   2
BRANCH   1   6
ATOM      6  C   UNL     1       7.449  -1.363  -0.728  1.00  0.00     0.047 C 
BRANCH   6   7
ATOM      7  C   UNL     1       6.604  -0.344  -0.109  1.00  0.00    -0.047 A 
ATOM      8  C   UNL     1       6.156  -0.491   1.183  1.00  0.00     0.004 A 
ATOM      9  C   UNL     1       6.259   0.773  -0.834  1.00  0.00     0.004 A 
ATOM     10  C   UNL     1       5.353   0.523   1.711  1.00  0.00     0.000 A 
ATOM     11  C   UNL     1       5.464   1.774  -0.311  1.00  0.00     0.000 A 
ATOM     12  C   UNL     1       5.011   1.634   0.982  1.00  0.00     0.000 A 
ENDBRANCH   6   7
ENDBRANCH   1   6
TORSDOF 4
ENDMDL
MODEL 4
REMARK VINA RESULT:      -7.1      0.829      1.028
REMARK SMILES O=C(O)CCc1ccccc1
REMARK SMILES IDX 4 1 2 2 1 3 3 4 5 6 6 7 7 8 11 9 8 10 10 11 9 12
REMARK H PARENT 3 5
REMARK Flexibility Score: inf
ROOT
ATOM      1  C   UNL     1       7.257  -1.286  -2.317  1.00  0.00     0.127 C 
ENDROOT
BRANCH   1   2
ATOM      2  C   UNL     1       8.718  -1.393  -2.541  1.00  0.00     0.303 C 
ATOM      3  O   UNL     1       9.510  -0.529  -2.090  1.00  0.00    -0.252 OA
BRANCH   2   4
ATOM      4  O   UNL     1       9.251  -2.452  -3.258  1.00  0.00    -0.481 OA
ATOM      5  H   UNL     1       9.158  -3.403  -2.890  1.00  0.00     0.296 HD
ENDBRANCH   2   4
ENDBRANCH   1   2
BRANCH   1   6
ATOM      6  C   UNL     1       6.943   0.125  -1.924  1.00  0.00     0.047 C 
BRANCH   6   7
ATOM      7  C   UNL     1       6.346   0.254  -0.595  1.00  0.00    -0.047 A 
ATOM      8  C   UNL     1       5.656   1.389  -0.241  1.00  0.00     0.004 A 
ATOM      9  C   UNL     1       6.481  -0.779   0.304  1.00  0.00     0.004 A 
ATOM     10  C   UNL     1       5.112   1.442   1.044  1.00  0.00     0.000 A 
ATOM     11  C   UNL     1       5.943  -0.725   1.574  1.00  0.00     0.000 A 
ATOM     12  C   UNL     1       5.250   0.410   1.937  1.00  0.00     0.000 A 
ENDBRANCH   6   7
ENDBRANCH   1   6
TORSDOF 4
ENDMDL
MODEL 5
REMARK VINA RESULT:      -6.8      3.383      5.082
REMARK SMILES O=C(O)CCc1ccccc1
REMARK SMILES IDX 4 1 2 2 1 3 3 4 5 6 6 7 7 8 11 9 8 10 10 11 9 12
REMARK H PARENT 3 5
REMARK Flexibility Score: inf
ROOT
ATOM      1  C   UNL     1       5.000   1.802   0.708  1.00  0.00     0.127 C 
ENDROOT
BRANCH   1   2
ATOM      2  C   UNL     1       4.484   1.116   1.917  1.00  0.00     0.303 C 
ATOM      3  O   UNL     1       5.145   0.210   2.482  1.00  0.00    -0.252 OA
BRANCH   2   4
ATOM      4  O   UNL     1       3.256   1.459   2.458  1.00  0.00    -0.481 OA
ATOM      5  H   UNL     1       2.895   2.407   2.321  1.00  0.00     0.296 HD
ENDBRANCH   2   4
ENDBRANCH   1   2
BRANCH   1   6
ATOM      6  C   UNL     1       6.497   1.780   0.757  1.00  0.00     0.047 C 
BRANCH   6   7
ATOM      7  C   UNL     1       7.117   1.032  -0.335  1.00  0.00    -0.047 A 
ATOM      8  C   UNL     1       6.385   0.133  -1.076  1.00  0.00     0.004 A 
ATOM      9  C   UNL     1       8.447   1.236  -0.618  1.00  0.00     0.004 A 
ATOM     10  C   UNL     1       7.042  -0.546  -2.104  1.00  0.00     0.000 A 
ATOM     11  C   UNL     1       9.095   0.563  -1.635  1.00  0.00     0.000 A 
ATOM     12  C   UNL     1       8.370  -0.339  -2.382  1.00  0.00     0.000 A 
ENDBRANCH   6   7
ENDBRANCH   1   6
TORSDOF 4
ENDMDL
