@<TRIPOS>MOLECULE
/home/cewinharhar/GITHUB/reincatalyze/data/processed/docking_pred/2023-Apr-26-1657_maxeplen10_maxtrainstep1000_exh32_gamma099_lrac9e-4_lrcr1e-3/5ba5439e64352188cd964ddb86dd28d806e95272_ligand_2.pdbqt
 12 12 0 0 0
SMALL
GASTEIGER

@<TRIPOS>ATOM
      1  C          8.0930   -6.3330   10.7900 C.3     1  UNL1        0.1270
      2  C          8.3540   -4.9310   11.1940 C.2     1  UNL1        0.3030
      3  O          7.5790   -4.0020   10.8570 O.2     1  UNL1       -0.2520
      4  O          9.4660   -4.6070   11.9550 O.3     1  UNL1       -0.4810
      5  H          9.3610   -3.9650   12.7450 H       1  UNL1        0.2960
      6  C          8.3890   -7.2220   11.9600 C.3     1  UNL1        0.0470
      7  C          9.3120   -8.3150   11.6570 C.2     1  UNL1       -0.0470
      8  C         10.2430   -8.1910   10.6520 C.2     1  UNL1        0.0040
      9  C          9.2430   -9.4750   12.3930 C.2     1  UNL1        0.0040
     10  C         11.0930   -9.2750   10.4190 C.2     1  UNL1        0.0000
     11  C         10.0830  -10.5450   12.1610 C.2     1  UNL1        0.0000
     12  C         11.0180  -10.4300   11.1550 C.2     1  UNL1        0.0000
@<TRIPOS>BOND
     1    10     8    1
     2    10    12    2
     3     8     7    2
     4     1     2    1
     5     1     6    1
     6     3     2    2
     7    12    11    1
     8     2     4    1
     9     7     6    1
    10     7     9    1
    11     4     5    1
    12    11     9    2
