MODEL 1
REMARK VINA RESULT:      -5.6      0.000      0.000
REMARK SMILES O=C(O)CCc1ccccc1
REMARK SMILES IDX 4 1 2 2 1 3 3 4 5 6 6 7 7 8 11 9 8 10 10 11 9 12
REMARK H PARENT 3 5
REMARK Flexibility Score: inf
ROOT
ATOM      1  C   UNL     1       6.424  -0.528   2.741  1.00  0.00     0.127 C 
ENDROOT
BRANCH   1   2
ATOM      2  C   UNL     1       7.152  -1.501   1.893  1.00  0.00     0.303 C 
ATOM      3  O   UNL     1       8.319  -1.268   1.491  1.00  0.00    -0.252 OA
BRANCH   2   4
ATOM      4  O   UNL     1       6.562  -2.698   1.518  1.00  0.00    -0.481 OA
ATOM      5  H   UNL     1       7.150  -3.455   1.159  1.00  0.00     0.296 HD
ENDBRANCH   2   4
ENDBRANCH   1   2
BRANCH   1   6
ATOM      6  C   UNL     1       5.278   0.023   1.947  1.00  0.00     0.047 C 
BRANCH   6   7
ATOM      7  C   UNL     1       5.549   1.324   1.337  1.00  0.00    -0.047 A 
ATOM      8  C   UNL     1       4.867   1.730   0.214  1.00  0.00     0.004 A 
ATOM      9  C   UNL     1       6.497   2.145   1.901  1.00  0.00     0.004 A 
ATOM     10  C   UNL     1       5.176   2.985  -0.314  1.00  0.00     0.000 A 
ATOM     11  C   UNL     1       6.802   3.386   1.378  1.00  0.00     0.000 A 
ATOM     12  C   UNL     1       6.124   3.800   0.252  1.00  0.00     0.000 A 
ENDBRANCH   6   7
ENDBRANCH   1   6
TORSDOF 4
ENDMDL
MODEL 2
REMARK VINA RESULT:      -5.5      0.095      1.439
REMARK SMILES O=C(O)CCc1ccccc1
REMARK SMILES IDX 4 1 2 2 1 3 3 4 5 6 6 7 7 8 11 9 8 10 10 11 9 12
REMARK H PARENT 3 5
REMARK Flexibility Score: inf
ROOT
ATOM      1  C   UNL     1       6.267  -0.581   2.769  1.00  0.00     0.127 C 
ENDROOT
BRANCH   1   2
ATOM      2  C   UNL     1       7.083  -1.482   1.922  1.00  0.00     0.303 C 
ATOM      3  O   UNL     1       8.242  -1.161   1.558  1.00  0.00    -0.252 OA
BRANCH   2   4
ATOM      4  O   UNL     1       6.588  -2.707   1.506  1.00  0.00    -0.481 OA
ATOM      5  H   UNL     1       5.577  -2.867   1.511  1.00  0.00     0.296 HD
ENDBRANCH   2   4
ENDBRANCH   1   2
BRANCH   1   6
ATOM      6  C   UNL     1       5.186   0.014   1.919  1.00  0.00     0.047 C 
BRANCH   6   7
ATOM      7  C   UNL     1       5.532   1.310   1.337  1.00  0.00    -0.047 A 
ATOM      8  C   UNL     1       6.488   2.109   1.920  1.00  0.00     0.004 A 
ATOM      9  C   UNL     1       4.891   1.725   0.193  1.00  0.00     0.004 A 
ATOM     10  C   UNL     1       6.769   3.334   1.310  1.00  0.00     0.000 A 
ATOM     11  C   UNL     1       5.170   2.936  -0.408  1.00  0.00     0.000 A 
ATOM     12  C   UNL     1       6.126   3.744   0.170  1.00  0.00     0.000 A 
ENDBRANCH   6   7
ENDBRANCH   1   6
TORSDOF 4
ENDMDL
MODEL 3
REMARK VINA RESULT:      -3.7      2.906      4.704
REMARK SMILES O=C(O)CCc1ccccc1
REMARK SMILES IDX 4 1 2 2 1 3 3 4 5 6 6 7 7 8 11 9 8 10 10 11 9 12
REMARK H PARENT 3 5
REMARK Flexibility Score: inf
ROOT
ATOM      1  C   UNL     1       5.500   2.945   0.079  1.00  0.00     0.127 C 
ENDROOT
BRANCH   1   2
ATOM      2  C   UNL     1       6.189   4.041   0.801  1.00  0.00     0.303 C 
ATOM      3  O   UNL     1       7.029   4.774   0.223  1.00  0.00    -0.252 OA
BRANCH   2   4
ATOM      4  O   UNL     1       5.922   4.287   2.138  1.00  0.00    -0.481 OA
ATOM      5  H   UNL     1       5.474   5.168   2.406  1.00  0.00     0.296 HD
ENDBRANCH   2   4
ENDBRANCH   1   2
BRANCH   1   6
ATOM      6  C   UNL     1       4.788   2.093   1.085  1.00  0.00     0.047 C 
BRANCH   6   7
ATOM      7  C   UNL     1       5.539   0.908   1.498  1.00  0.00    -0.047 A 
ATOM      8  C   UNL     1       6.782   1.028   2.075  1.00  0.00     0.004 A 
ATOM      9  C   UNL     1       4.986  -0.337   1.305  1.00  0.00     0.004 A 
ATOM     10  C   UNL     1       7.440  -0.146   2.445  1.00  0.00     0.000 A 
ATOM     11  C   UNL     1       5.639  -1.497   1.671  1.00  0.00     0.000 A 
ATOM     12  C   UNL     1       6.885  -1.385   2.249  1.00  0.00     0.000 A 
ENDBRANCH   6   7
ENDBRANCH   1   6
TORSDOF 4
ENDMDL
MODEL 4
REMARK VINA RESULT:      -3.7     11.812     14.301
REMARK SMILES O=C(O)CCc1ccccc1
REMARK SMILES IDX 4 1 2 2 1 3 3 4 5 6 6 7 7 8 11 9 8 10 10 11 9 12
REMARK H PARENT 3 5
REMARK Flexibility Score: inf
ROOT
ATOM      1  C   UNL     1       8.093  -6.333  10.790  1.00  0.00     0.127 C 
ENDROOT
BRANCH   1   2
ATOM      2  C   UNL     1       8.354  -4.931  11.194  1.00  0.00     0.303 C 
ATOM      3  O   UNL     1       7.579  -4.002  10.857  1.00  0.00    -0.252 OA
BRANCH   2   4
ATOM      4  O   UNL     1       9.466  -4.607  11.955  1.00  0.00    -0.481 OA
ATOM      5  H   UNL     1       9.361  -3.965  12.745  1.00  0.00     0.296 HD
ENDBRANCH   2   4
ENDBRANCH   1   2
BRANCH   1   6
ATOM      6  C   UNL     1       8.389  -7.222  11.960  1.00  0.00     0.047 C 
BRANCH   6   7
ATOM      7  C   UNL     1       9.312  -8.315  11.657  1.00  0.00    -0.047 A 
ATOM      8  C   UNL     1      10.243  -8.191  10.652  1.00  0.00     0.004 A 
ATOM      9  C   UNL     1       9.243  -9.475  12.393  1.00  0.00     0.004 A 
ATOM     10  C   UNL     1      11.093  -9.275  10.419  1.00  0.00     0.000 A 
ATOM     11  C   UNL     1      10.083 -10.545  12.161  1.00  0.00     0.000 A 
ATOM     12  C   UNL     1      11.018 -10.430  11.155  1.00  0.00     0.000 A 
ENDBRANCH   6   7
ENDBRANCH   1   6
TORSDOF 4
ENDMDL
MODEL 5
REMARK VINA RESULT:      -3.7     11.419     13.212
REMARK SMILES O=C(O)CCc1ccccc1
REMARK SMILES IDX 4 1 2 2 1 3 3 4 5 6 6 7 7 8 11 9 8 10 10 11 9 12
REMARK H PARENT 3 5
REMARK Flexibility Score: inf
ROOT
ATOM      1  C   UNL     1       7.941  -5.625  11.708  1.00  0.00     0.127 C 
ENDROOT
BRANCH   1   2
ATOM      2  C   UNL     1       7.562  -4.235  11.360  1.00  0.00     0.303 C 
ATOM      3  O   UNL     1       7.583  -3.833  10.170  1.00  0.00    -0.252 OA
BRANCH   2   4
ATOM      4  O   UNL     1       7.174  -3.337  12.342  1.00  0.00    -0.481 OA
ATOM      5  H   UNL     1       6.772  -2.437  12.067  1.00  0.00     0.296 HD
ENDBRANCH   2   4
ENDBRANCH   1   2
BRANCH   1   6
ATOM      6  C   UNL     1       8.558  -6.261  10.501  1.00  0.00     0.047 C 
BRANCH   6   7
ATOM      7  C   UNL     1       9.926  -6.733  10.710  1.00  0.00    -0.047 A 
ATOM      8  C   UNL     1      10.893  -5.888  11.203  1.00  0.00     0.004 A 
ATOM      9  C   UNL     1      10.239  -8.038  10.410  1.00  0.00     0.004 A 
ATOM     10  C   UNL     1      12.178  -6.406  11.379  1.00  0.00     0.000 A 
ATOM     11  C   UNL     1      11.510  -8.549  10.584  1.00  0.00     0.000 A 
ATOM     12  C   UNL     1      12.485  -7.709  11.077  1.00  0.00     0.000 A 
ENDBRANCH   6   7
ENDBRANCH   1   6
TORSDOF 4
ENDMDL
