@<TRIPOS>MOLECULE
/home/cewinharhar/GITHUB/reincatalyze/data/processed/docking_pred/2023-Apr-26-1657_maxeplen10_maxtrainstep1000_exh32_gamma099_lrac9e-4_lrcr1e-3/5ba5439e64352188cd964ddb86dd28d806e95272_ligand_2.pdbqt
 12 12 0 0 0
SMALL
GASTEIGER

@<TRIPOS>ATOM
      1  C          6.4240   -0.5280    2.7410 C.3     1  UNL1        0.1270
      2  C          7.1520   -1.5010    1.8930 C.2     1  UNL1        0.3030
      3  O          8.3190   -1.2680    1.4910 O.2     1  UNL1       -0.2520
      4  O          6.5620   -2.6980    1.5180 O.3     1  UNL1       -0.4810
      5  H          7.1500   -3.4550    1.1590 H       1  UNL1        0.2960
      6  C          5.2780    0.0230    1.9470 C.3     1  UNL1        0.0470
      7  C          5.5490    1.3240    1.3370 C.2     1  UNL1       -0.0470
      8  C          4.8670    1.7300    0.2140 C.2     1  UNL1        0.0040
      9  C          6.4970    2.1450    1.9010 C.2     1  UNL1        0.0040
     10  C          5.1760    2.9850   -0.3140 C.2     1  UNL1        0.0000
     11  C          6.8020    3.3860    1.3780 C.2     1  UNL1        0.0000
     12  C          6.1240    3.8000    0.2520 C.2     1  UNL1        0.0000
@<TRIPOS>BOND
     1    10     8    1
     2    10    12    2
     3     8     7    2
     4    12    11    1
     5     5     4    1
     6     7     9    1
     7     7     6    1
     8    11     9    2
     9     3     2    2
    10     4     2    1
    11     2     1    1
    12     6     1    1
