@<TRIPOS>MOLECULE
/home/cewinharhar/GITHUB/reincatalyze/data/processed/docking_pred/2023-Apr-26-1657_maxeplen10_maxtrainstep1000_exh32_gamma099_lrac9e-4_lrcr1e-3/5ba5439e64352188cd964ddb86dd28d806e95272_ligand_2.pdbqt
 12 12 0 0 0
SMALL
GASTEIGER

@<TRIPOS>ATOM
      1  C          6.2670   -0.5810    2.7690 C.3     1  UNL1        0.1270
      2  C          7.0830   -1.4820    1.9220 C.2     1  UNL1        0.3030
      3  O          8.2420   -1.1610    1.5580 O.2     1  UNL1       -0.2520
      4  O          6.5880   -2.7070    1.5060 O.3     1  UNL1       -0.4810
      5  H          5.5770   -2.8670    1.5110 H       1  UNL1        0.2960
      6  C          5.1860    0.0140    1.9190 C.3     1  UNL1        0.0470
      7  C          5.5320    1.3100    1.3370 C.2     1  UNL1       -0.0470
      8  C          6.4880    2.1090    1.9200 C.2     1  UNL1        0.0040
      9  C          4.8910    1.7250    0.1930 C.2     1  UNL1        0.0040
     10  C          6.7690    3.3340    1.3100 C.2     1  UNL1        0.0000
     11  C          5.1700    2.9360   -0.4080 C.2     1  UNL1        0.0000
     12  C          6.1260    3.7440    0.1700 C.2     1  UNL1        0.0000
@<TRIPOS>BOND
     1    11    12    2
     2    11     9    1
     3    12    10    1
     4     9     7    2
     5    10     8    2
     6     7     6    1
     7     7     8    1
     8     4     5    1
     9     4     2    1
    10     3     2    2
    11     6     1    1
    12     2     1    1
