@<TRIPOS>MOLECULE
/home/cewinharhar/GITHUB/reincatalyze/data/processed/docking_pred/2023-Apr-26-1657_maxeplen10_maxtrainstep1000_exh32_gamma099_lrac9e-4_lrcr1e-3/5ba5439e64352188cd964ddb86dd28d806e95272_ligand_2.pdbqt
 12 12 0 0 0
SMALL
GASTEIGER

@<TRIPOS>ATOM
      1  C          5.5000    2.9450    0.0790 C.3     1  UNL1        0.1270
      2  C          6.1890    4.0410    0.8010 C.2     1  UNL1        0.3030
      3  O          7.0290    4.7740    0.2230 O.2     1  UNL1       -0.2520
      4  O          5.9220    4.2870    2.1380 O.3     1  UNL1       -0.4810
      5  H          5.4740    5.1680    2.4060 H       1  UNL1        0.2960
      6  C          4.7880    2.0930    1.0850 C.3     1  UNL1        0.0470
      7  C          5.5390    0.9080    1.4980 C.2     1  UNL1       -0.0470
      8  C          6.7820    1.0280    2.0750 C.2     1  UNL1        0.0040
      9  C          4.9860   -0.3370    1.3050 C.2     1  UNL1        0.0040
     10  C          7.4400   -0.1460    2.4450 C.2     1  UNL1        0.0000
     11  C          5.6390   -1.4970    1.6710 C.2     1  UNL1        0.0000
     12  C          6.8850   -1.3850    2.2490 C.2     1  UNL1        0.0000
@<TRIPOS>BOND
     1     1     2    1
     2     1     6    1
     3     3     2    2
     4     2     4    1
     5     6     7    1
     6     9     7    2
     7     9    11    1
     8     7     8    1
     9    11    12    2
    10     8    10    2
    11     4     5    1
    12    12    10    1
