@<TRIPOS>MOLECULE
/home/cewinharhar/GITHUB/reincatalyze/data/processed/docking_pred/2023-Apr-26-1657_maxeplen10_maxtrainstep1000_exh32_gamma099_lrac9e-4_lrcr1e-3/5ba5439e64352188cd964ddb86dd28d806e95272_ligand_2.pdbqt
 12 12 0 0 0
SMALL
GASTEIGER

@<TRIPOS>ATOM
      1  C          7.9410   -5.6250   11.7080 C.3     1  UNL1        0.1270
      2  C          7.5620   -4.2350   11.3600 C.2     1  UNL1        0.3030
      3  O          7.5830   -3.8330   10.1700 O.2     1  UNL1       -0.2520
      4  O          7.1740   -3.3370   12.3420 O.3     1  UNL1       -0.4810
      5  H          6.7720   -2.4370   12.0670 H       1  UNL1        0.2960
      6  C          8.5580   -6.2610   10.5010 C.3     1  UNL1        0.0470
      7  C          9.9260   -6.7330   10.7100 C.2     1  UNL1       -0.0470
      8  C         10.8930   -5.8880   11.2030 C.2     1  UNL1        0.0040
      9  C         10.2390   -8.0380   10.4100 C.2     1  UNL1        0.0040
     10  C         12.1780   -6.4060   11.3790 C.2     1  UNL1        0.0000
     11  C         11.5100   -8.5490   10.5840 C.2     1  UNL1        0.0000
     12  C         12.4850   -7.7090   11.0770 C.2     1  UNL1        0.0000
@<TRIPOS>BOND
     1     3     2    2
     2     9    11    1
     3     9     7    2
     4     6     7    1
     5     6     1    1
     6    11    12    2
     7     7     8    1
     8    12    10    1
     9     8    10    2
    10     2     1    1
    11     2     4    1
    12     5     4    1
