MODEL 1
REMARK VINA RESULT:      -7.3      0.000      0.000
REMARK SMILES O=C(O)CCc1ccccc1
REMARK SMILES IDX 4 1 2 2 1 3 3 4 5 6 6 7 7 8 11 9 8 10 10 11 9 12
REMARK H PARENT 3 5
REMARK Flexibility Score: inf
ROOT
ATOM      1  C   UNL     1       8.435  -0.632  -2.124  1.00  0.00     0.127 C 
ENDROOT
BRANCH   1   2
ATOM      2  C   UNL     1       8.390  -1.897  -2.894  1.00  0.00     0.303 C 
ATOM      3  O   UNL     1       7.296  -2.413  -3.233  1.00  0.00    -0.252 OA
BRANCH   2   4
ATOM      4  O   UNL     1       9.557  -2.546  -3.263  1.00  0.00    -0.481 OA
ATOM      5  H   UNL     1       9.971  -3.232  -2.625  1.00  0.00     0.296 HD
ENDBRANCH   2   4
ENDBRANCH   1   2
BRANCH   1   6
ATOM      6  C   UNL     1       7.061  -0.036  -2.116  1.00  0.00     0.047 C 
BRANCH   6   7
ATOM      7  C   UNL     1       6.488   0.119  -0.780  1.00  0.00    -0.047 A 
ATOM      8  C   UNL     1       6.659  -0.855   0.176  1.00  0.00     0.004 A 
ATOM      9  C   UNL     1       5.772   1.256  -0.484  1.00  0.00     0.004 A 
ATOM     10  C   UNL     1       6.085  -0.640   1.431  1.00  0.00     0.000 A 
ATOM     11  C   UNL     1       5.204   1.466   0.757  1.00  0.00     0.000 A 
ATOM     12  C   UNL     1       5.371   0.495   1.721  1.00  0.00     0.000 A 
ENDBRANCH   6   7
ENDBRANCH   1   6
TORSDOF 4
ENDMDL
MODEL 2
REMARK VINA RESULT:      -7.3      0.130      1.440
REMARK SMILES O=C(O)CCc1ccccc1
REMARK SMILES IDX 4 1 2 2 1 3 3 4 5 6 6 7 7 8 11 9 8 10 10 11 9 12
REMARK H PARENT 3 5
REMARK Flexibility Score: inf
ROOT
ATOM      1  C   UNL     1       8.406  -0.620  -2.114  1.00  0.00     0.127 C 
ENDROOT
BRANCH   1   2
ATOM      2  C   UNL     1       8.384  -1.885  -2.886  1.00  0.00     0.303 C 
ATOM      3  O   UNL     1       7.301  -2.417  -3.232  1.00  0.00    -0.252 OA
BRANCH   2   4
ATOM      4  O   UNL     1       9.563  -2.516  -3.247  1.00  0.00    -0.481 OA
ATOM      5  H   UNL     1       9.954  -2.353  -4.179  1.00  0.00     0.296 HD
ENDBRANCH   2   4
ENDBRANCH   1   2
BRANCH   1   6
ATOM      6  C   UNL     1       7.017  -0.060  -2.089  1.00  0.00     0.047 C 
BRANCH   6   7
ATOM      7  C   UNL     1       6.463   0.097  -0.745  1.00  0.00    -0.047 A 
ATOM      8  C   UNL     1       5.820   1.257  -0.379  1.00  0.00     0.004 A 
ATOM      9  C   UNL     1       6.590  -0.934   0.158  1.00  0.00     0.004 A 
ATOM     10  C   UNL     1       5.316   1.336   0.921  1.00  0.00     0.000 A 
ATOM     11  C   UNL     1       6.091  -0.853   1.443  1.00  0.00     0.000 A 
ATOM     12  C   UNL     1       5.446   0.306   1.817  1.00  0.00     0.000 A 
ENDBRANCH   6   7
ENDBRANCH   1   6
TORSDOF 4
ENDMDL
MODEL 3
REMARK VINA RESULT:      -6.7      3.827      5.001
REMARK SMILES O=C(O)CCc1ccccc1
REMARK SMILES IDX 4 1 2 2 1 3 3 4 5 6 6 7 7 8 11 9 8 10 10 11 9 12
REMARK H PARENT 3 5
REMARK Flexibility Score: inf
ROOT
ATOM      1  C   UNL     1       5.443   2.891  -0.015  1.00  0.00     0.127 C 
ENDROOT
BRANCH   1   2
ATOM      2  C   UNL     1       6.240   3.853   0.782  1.00  0.00     0.303 C 
ATOM      3  O   UNL     1       6.892   4.774   0.229  1.00  0.00    -0.252 OA
BRANCH   2   4
ATOM      4  O   UNL     1       6.288   3.763   2.164  1.00  0.00    -0.481 OA
ATOM      5  H   UNL     1       5.803   2.992   2.633  1.00  0.00     0.296 HD
ENDBRANCH   2   4
ENDBRANCH   1   2
BRANCH   1   6
ATOM      6  C   UNL     1       4.912   1.840   0.911  1.00  0.00     0.047 C 
BRANCH   6   7
ATOM      7  C   UNL     1       5.703   0.611   0.932  1.00  0.00    -0.047 A 
ATOM      8  C   UNL     1       6.398   0.202  -0.183  1.00  0.00     0.004 A 
ATOM      9  C   UNL     1       5.749  -0.138   2.085  1.00  0.00     0.004 A 
ATOM     10  C   UNL     1       7.133  -0.981  -0.091  1.00  0.00     0.000 A 
ATOM     11  C   UNL     1       6.477  -1.308   2.174  1.00  0.00     0.000 A 
ATOM     12  C   UNL     1       7.175  -1.725   1.062  1.00  0.00     0.000 A 
ENDBRANCH   6   7
ENDBRANCH   1   6
TORSDOF 4
ENDMDL
MODEL 4
REMARK VINA RESULT:      -6.7      3.268      5.102
REMARK SMILES O=C(O)CCc1ccccc1
REMARK SMILES IDX 4 1 2 2 1 3 3 4 5 6 6 7 7 8 11 9 8 10 10 11 9 12
REMARK H PARENT 3 5
REMARK Flexibility Score: inf
ROOT
ATOM      1  C   UNL     1       5.046   1.741   0.664  1.00  0.00     0.127 C 
ENDROOT
BRANCH   1   2
ATOM      2  C   UNL     1       4.601   1.060   1.903  1.00  0.00     0.303 C 
ATOM      3  O   UNL     1       5.328   0.212   2.476  1.00  0.00    -0.252 OA
BRANCH   2   4
ATOM      4  O   UNL     1       3.365   1.342   2.463  1.00  0.00    -0.481 OA
ATOM      5  H   UNL     1       2.639   0.621   2.463  1.00  0.00     0.296 HD
ENDBRANCH   2   4
ENDBRANCH   1   2
BRANCH   1   6
ATOM      6  C   UNL     1       6.543   1.812   0.678  1.00  0.00     0.047 C 
BRANCH   6   7
ATOM      7  C   UNL     1       7.184   1.039  -0.384  1.00  0.00    -0.047 A 
ATOM      8  C   UNL     1       8.521   1.204  -0.665  1.00  0.00     0.004 A 
ATOM      9  C   UNL     1       6.435   0.137  -1.104  1.00  0.00     0.004 A 
ATOM     10  C   UNL     1       9.068   0.431  -1.692  1.00  0.00     0.000 A 
ATOM     11  C   UNL     1       6.977  -0.626  -2.119  1.00  0.00     0.000 A 
ATOM     12  C   UNL     1       8.315  -0.466  -2.407  1.00  0.00     0.000 A 
ENDBRANCH   6   7
ENDBRANCH   1   6
TORSDOF 4
ENDMDL
MODEL 5
REMARK VINA RESULT:      -6.6      2.005      2.192
REMARK SMILES O=C(O)CCc1ccccc1
REMARK SMILES IDX 4 1 2 2 1 3 3 4 5 6 6 7 7 8 11 9 8 10 10 11 9 12
REMARK H PARENT 3 5
REMARK Flexibility Score: inf
ROOT
ATOM      1  C   UNL     1       8.358   0.433  -1.843  1.00  0.00     0.127 C 
ENDROOT
BRANCH   1   2
ATOM      2  C   UNL     1       9.517   0.239  -0.941  1.00  0.00     0.303 C 
ATOM      3  O   UNL     1       9.446  -0.521   0.056  1.00  0.00    -0.252 OA
BRANCH   2   4
ATOM      4  O   UNL     1      10.715   0.894  -1.174  1.00  0.00    -0.481 OA
ATOM      5  H   UNL     1      10.904   1.779  -0.695  1.00  0.00     0.296 HD
ENDBRANCH   2   4
ENDBRANCH   1   2
BRANCH   1   6
ATOM      6  C   UNL     1       7.234  -0.432  -1.359  1.00  0.00     0.047 C 
BRANCH   6   7
ATOM      7  C   UNL     1       6.386   0.204  -0.352  1.00  0.00    -0.047 A 
ATOM      8  C   UNL     1       6.160  -0.403   0.862  1.00  0.00     0.004 A 
ATOM      9  C   UNL     1       5.814   1.424  -0.629  1.00  0.00     0.004 A 
ATOM     10  C   UNL     1       5.340   0.262   1.777  1.00  0.00     0.000 A 
ATOM     11  C   UNL     1       5.004   2.080   0.276  1.00  0.00     0.000 A 
ATOM     12  C   UNL     1       4.771   1.478   1.494  1.00  0.00     0.000 A 
ENDBRANCH   6   7
ENDBRANCH   1   6
TORSDOF 4
ENDMDL
