@<TRIPOS>MOLECULE
/home/cewinharhar/GITHUB/reincatalyze/data/processed/docking_pred/2023-Apr-26-1657_maxeplen10_maxtrainstep1000_exh32_gamma099_lrac9e-4_lrcr1e-3/5bd4159c0713ad18fb2d2a846002564f6b7df27c_ligand_2.pdbqt
 12 12 0 0 0
SMALL
GASTEIGER

@<TRIPOS>ATOM
      1  C          8.3580    0.4330   -1.8430 C.3     1  UNL1        0.1270
      2  C          9.5170    0.2390   -0.9410 C.2     1  UNL1        0.3030
      3  O          9.4460   -0.5210    0.0560 O.2     1  UNL1       -0.2520
      4  O         10.7150    0.8940   -1.1740 O.3     1  UNL1       -0.4810
      5  H         10.9040    1.7790   -0.6950 H       1  UNL1        0.2960
      6  C          7.2340   -0.4320   -1.3590 C.3     1  UNL1        0.0470
      7  C          6.3860    0.2040   -0.3520 C.2     1  UNL1       -0.0470
      8  C          6.1600   -0.4030    0.8620 C.2     1  UNL1        0.0040
      9  C          5.8140    1.4240   -0.6290 C.2     1  UNL1        0.0040
     10  C          5.3400    0.2620    1.7770 C.2     1  UNL1        0.0000
     11  C          5.0040    2.0800    0.2760 C.2     1  UNL1        0.0000
     12  C          4.7710    1.4780    1.4940 C.2     1  UNL1        0.0000
@<TRIPOS>BOND
     1     1     6    1
     2     1     2    1
     3     6     7    1
     4     4     2    1
     5     4     5    1
     6     2     3    2
     7     9     7    2
     8     9    11    1
     9     7     8    1
    10    11    12    2
    11     8    10    2
    12    12    10    1
