@<TRIPOS>MOLECULE
/home/cewinharhar/GITHUB/reincatalyze/data/processed/docking_pred/2023-Apr-26-1657_maxeplen10_maxtrainstep1000_exh32_gamma099_lrac9e-4_lrcr1e-3/5bd4159c0713ad18fb2d2a846002564f6b7df27c_ligand_2.pdbqt
 12 12 0 0 0
SMALL
GASTEIGER

@<TRIPOS>ATOM
      1  C          8.4350   -0.6320   -2.1240 C.3     1  UNL1        0.1270
      2  C          8.3900   -1.8970   -2.8940 C.2     1  UNL1        0.3030
      3  O          7.2960   -2.4130   -3.2330 O.2     1  UNL1       -0.2520
      4  O          9.5570   -2.5460   -3.2630 O.3     1  UNL1       -0.4810
      5  H          9.9710   -3.2320   -2.6250 H       1  UNL1        0.2960
      6  C          7.0610   -0.0360   -2.1160 C.3     1  UNL1        0.0470
      7  C          6.4880    0.1190   -0.7800 C.2     1  UNL1       -0.0470
      8  C          6.6590   -0.8550    0.1760 C.2     1  UNL1        0.0040
      9  C          5.7720    1.2560   -0.4840 C.2     1  UNL1        0.0040
     10  C          6.0850   -0.6400    1.4310 C.2     1  UNL1        0.0000
     11  C          5.2040    1.4660    0.7570 C.2     1  UNL1        0.0000
     12  C          5.3710    0.4950    1.7210 C.2     1  UNL1        0.0000
@<TRIPOS>BOND
     1     4     2    1
     2     4     5    1
     3     3     2    2
     4     2     1    1
     5     1     6    1
     6     6     7    1
     7     7     9    2
     8     7     8    1
     9     9    11    1
    10     8    10    2
    11    11    12    2
    12    10    12    1
