@<TRIPOS>MOLECULE
/home/cewinharhar/GITHUB/reincatalyze/data/processed/docking_pred/2023-Apr-26-1657_maxeplen10_maxtrainstep1000_exh32_gamma099_lrac9e-4_lrcr1e-3/5bd4159c0713ad18fb2d2a846002564f6b7df27c_ligand_2.pdbqt
 12 12 0 0 0
SMALL
GASTEIGER

@<TRIPOS>ATOM
      1  C          5.4430    2.8910   -0.0150 C.3     1  UNL1        0.1270
      2  C          6.2400    3.8530    0.7820 C.2     1  UNL1        0.3030
      3  O          6.8920    4.7740    0.2290 O.2     1  UNL1       -0.2520
      4  O          6.2880    3.7630    2.1640 O.3     1  UNL1       -0.4810
      5  H          5.8030    2.9920    2.6330 H       1  UNL1        0.2960
      6  C          4.9120    1.8400    0.9110 C.3     1  UNL1        0.0470
      7  C          5.7030    0.6110    0.9320 C.2     1  UNL1       -0.0470
      8  C          6.3980    0.2020   -0.1830 C.2     1  UNL1        0.0040
      9  C          5.7490   -0.1380    2.0850 C.2     1  UNL1        0.0040
     10  C          7.1330   -0.9810   -0.0910 C.2     1  UNL1        0.0000
     11  C          6.4770   -1.3080    2.1740 C.2     1  UNL1        0.0000
     12  C          7.1750   -1.7250    1.0620 C.2     1  UNL1        0.0000
@<TRIPOS>BOND
     1     8    10    1
     2     8     7    2
     3    10    12    2
     4     1     2    1
     5     1     6    1
     6     3     2    2
     7     2     4    1
     8     6     7    1
     9     7     9    1
    10    12    11    1
    11     9    11    2
    12     4     5    1
