@<TRIPOS>MOLECULE
/home/cewinharhar/GITHUB/reincatalyze/data/processed/docking_pred/2023-Apr-26-1657_maxeplen10_maxtrainstep1000_exh32_gamma099_lrac9e-4_lrcr1e-3/5bd4159c0713ad18fb2d2a846002564f6b7df27c_ligand_2.pdbqt
 12 12 0 0 0
SMALL
GASTEIGER

@<TRIPOS>ATOM
      1  C          5.0460    1.7410    0.6640 C.3     1  UNL1        0.1270
      2  C          4.6010    1.0600    1.9030 C.2     1  UNL1        0.3030
      3  O          5.3280    0.2120    2.4760 O.2     1  UNL1       -0.2520
      4  O          3.3650    1.3420    2.4630 O.3     1  UNL1       -0.4810
      5  H          2.6390    0.6210    2.4630 H       1  UNL1        0.2960
      6  C          6.5430    1.8120    0.6780 C.3     1  UNL1        0.0470
      7  C          7.1840    1.0390   -0.3840 C.2     1  UNL1       -0.0470
      8  C          8.5210    1.2040   -0.6650 C.2     1  UNL1        0.0040
      9  C          6.4350    0.1370   -1.1040 C.2     1  UNL1        0.0040
     10  C          9.0680    0.4310   -1.6920 C.2     1  UNL1        0.0000
     11  C          6.9770   -0.6260   -2.1190 C.2     1  UNL1        0.0000
     12  C          8.3150   -0.4660   -2.4070 C.2     1  UNL1        0.0000
@<TRIPOS>BOND
     1    12    11    2
     2    12    10    1
     3    11     9    1
     4    10     8    2
     5     9     7    2
     6     8     7    1
     7     7     6    1
     8     1     6    1
     9     1     2    1
    10     2     4    1
    11     2     3    2
    12     4     5    1
