@<TRIPOS>MOLECULE
/home/cewinharhar/GITHUB/reincatalyze/data/processed/docking_pred/2023-Apr-26-1657_maxeplen10_maxtrainstep1000_exh32_gamma099_lrac9e-4_lrcr1e-3/5bd4159c0713ad18fb2d2a846002564f6b7df27c_ligand_2.pdbqt
 12 12 0 0 0
SMALL
GASTEIGER

@<TRIPOS>ATOM
      1  C          8.4060   -0.6200   -2.1140 C.3     1  UNL1        0.1270
      2  C          8.3840   -1.8850   -2.8860 C.2     1  UNL1        0.3030
      3  O          7.3010   -2.4170   -3.2320 O.2     1  UNL1       -0.2520
      4  O          9.5630   -2.5160   -3.2470 O.3     1  UNL1       -0.4810
      5  H          9.9540   -2.3530   -4.1790 H       1  UNL1        0.2960
      6  C          7.0170   -0.0600   -2.0890 C.3     1  UNL1        0.0470
      7  C          6.4630    0.0970   -0.7450 C.2     1  UNL1       -0.0470
      8  C          5.8200    1.2570   -0.3790 C.2     1  UNL1        0.0040
      9  C          6.5900   -0.9340    0.1580 C.2     1  UNL1        0.0040
     10  C          5.3160    1.3360    0.9210 C.2     1  UNL1        0.0000
     11  C          6.0910   -0.8530    1.4430 C.2     1  UNL1        0.0000
     12  C          5.4460    0.3060    1.8170 C.2     1  UNL1        0.0000
@<TRIPOS>BOND
     1     5     4    1
     2     4     2    1
     3     3     2    2
     4     2     1    1
     5     1     6    1
     6     6     7    1
     7     7     8    2
     8     7     9    1
     9     8    10    1
    10     9    11    2
    11    10    12    2
    12    11    12    1
