@<TRIPOS>MOLECULE
/home/cewinharhar/GITHUB/reincatalyze/data/processed/docking_pred/2023-Apr-26-1657_maxeplen10_maxtrainstep1000_exh32_gamma099_lrac9e-4_lrcr1e-3/5be73a077ea639c014f12358d863af943f9e92ef_ligand_2.pdbqt
 12 12 0 0 0
SMALL
GASTEIGER

@<TRIPOS>ATOM
      1  C          8.3110   -0.8540   -1.8900 C.3     1  UNL1        0.1270
      2  C          8.3380   -1.9770   -2.8570 C.2     1  UNL1        0.3030
      3  O          7.2800   -2.4200   -3.3690 O.2     1  UNL1       -0.2520
      4  O          9.5350   -2.5710   -3.2220 O.3     1  UNL1       -0.4810
      5  H          9.6720   -3.5700   -3.0460 H       1  UNL1        0.2960
      6  C          7.6250   -1.3230   -0.6430 C.3     1  UNL1        0.0470
      7  C          6.7140   -0.3390   -0.0590 C.2     1  UNL1       -0.0470
      8  C          6.2030   -0.5170    1.2050 C.2     1  UNL1        0.0040
      9  C          6.3710    0.7740   -0.7900 C.2     1  UNL1        0.0040
     10  C          5.3400    0.4630    1.7000 C.2     1  UNL1        0.0000
     11  C          5.5170    1.7420   -0.3000 C.2     1  UNL1        0.0000
     12  C          5.0000    1.5720    0.9660 C.2     1  UNL1        0.0000
@<TRIPOS>BOND
     1     3     2    2
     2     4     5    1
     3     4     2    1
     4     2     1    1
     5     1     6    1
     6     9    11    1
     7     9     7    2
     8     6     7    1
     9    11    12    2
    10     7     8    1
    11    12    10    1
    12     8    10    2
