@<TRIPOS>MOLECULE
/home/cewinharhar/GITHUB/reincatalyze/data/processed/docking_pred/2023-Apr-26-1657_maxeplen10_maxtrainstep1000_exh32_gamma099_lrac9e-4_lrcr1e-3/5be73a077ea639c014f12358d863af943f9e92ef_ligand_2.pdbqt
 12 12 0 0 0
SMALL
GASTEIGER

@<TRIPOS>ATOM
      1  C          8.3460   -0.9950   -1.7420 C.3     1  UNL1        0.1270
      2  C          8.4590   -2.0140   -2.8120 C.2     1  UNL1        0.3030
      3  O          9.5770   -2.4650   -3.1650 O.2     1  UNL1       -0.2520
      4  O          7.3310   -2.5000   -3.4530 O.3     1  UNL1       -0.4810
      5  H          7.4270   -3.2660   -4.1240 H       1  UNL1        0.2960
      6  C          7.2820   -1.4350   -0.7830 C.3     1  UNL1        0.0470
      7  C          6.5090   -0.3360   -0.2070 C.2     1  UNL1       -0.0470
      8  C          6.2010    0.7760   -0.9560 C.2     1  UNL1        0.0040
      9  C          6.0870   -0.4250    1.1000 C.2     1  UNL1        0.0040
     10  C          5.4590    1.7860   -0.3410 C.2     1  UNL1        0.0000
     11  C          5.3540    0.5750    1.7060 C.2     1  UNL1        0.0000
     12  C          5.0420    1.6930    0.9630 C.2     1  UNL1        0.0000
@<TRIPOS>BOND
     1     5     4    1
     2     4     2    1
     3     3     2    2
     4     2     1    1
     5     1     6    1
     6     8    10    1
     7     8     7    2
     8     6     7    1
     9    10    12    2
    10     7     9    1
    11    12    11    1
    12     9    11    2
