@<TRIPOS>MOLECULE
/home/cewinharhar/GITHUB/reincatalyze/data/processed/docking_pred/2023-Apr-26-1657_maxeplen10_maxtrainstep1000_exh32_gamma099_lrac9e-4_lrcr1e-3/5be73a077ea639c014f12358d863af943f9e92ef_ligand_2.pdbqt
 12 12 0 0 0
SMALL
GASTEIGER

@<TRIPOS>ATOM
      1  C          5.0130    1.7840    0.7260 C.3     1  UNL1        0.1270
      2  C          4.4730    1.1000    1.9240 C.2     1  UNL1        0.3030
      3  O          5.1090    0.1750    2.4880 O.2     1  UNL1       -0.2520
      4  O          3.2470    1.4640    2.4570 O.3     1  UNL1       -0.4810
      5  H          2.7700    0.8250    3.0990 H       1  UNL1        0.2960
      6  C          6.5090    1.7200    0.7810 C.3     1  UNL1        0.0470
      7  C          7.1130    0.9670   -0.3160 C.2     1  UNL1       -0.0470
      8  C          6.3930    0.0100   -0.9930 C.2     1  UNL1        0.0040
      9  C          8.4170    1.2270   -0.6700 C.2     1  UNL1        0.0040
     10  C          7.0340   -0.6690   -2.0310 C.2     1  UNL1        0.0000
     11  C          9.0490    0.5540   -1.6970 C.2     1  UNL1        0.0000
     12  C          8.3350   -0.4070   -2.3800 C.2     1  UNL1        0.0000
@<TRIPOS>BOND
     1    12    10    2
     2    12    11    1
     3    10     8    1
     4    11     9    2
     5     8     7    2
     6     9     7    1
     7     7     6    1
     8     1     6    1
     9     1     2    1
    10     2     4    1
    11     2     3    2
    12     4     5    1
