@<TRIPOS>MOLECULE
/home/cewinharhar/GITHUB/reincatalyze/data/processed/docking_pred/2023-Apr-26-1657_maxeplen10_maxtrainstep1000_exh32_gamma099_lrac9e-4_lrcr1e-3/5be73a077ea639c014f12358d863af943f9e92ef_ligand_2.pdbqt
 12 12 0 0 0
SMALL
GASTEIGER

@<TRIPOS>ATOM
      1  C          8.4480   -0.6030   -2.1840 C.3     1  UNL1        0.1270
      2  C          8.4830   -1.8870   -2.9230 C.2     1  UNL1        0.3030
      3  O          9.5610   -2.5060   -3.1010 O.2     1  UNL1       -0.2520
      4  O          7.3230   -2.4410   -3.4400 O.3     1  UNL1       -0.4810
      5  H          7.3830   -3.0630   -4.2510 H       1  UNL1        0.2960
      6  C          7.0310   -0.1190   -2.1480 C.3     1  UNL1        0.0470
      7  C          6.4900    0.0390   -0.7990 C.2     1  UNL1       -0.0470
      8  C          6.6220   -0.9640    0.1330 C.2     1  UNL1        0.0040
      9  C          5.8460    1.2080   -0.4670 C.2     1  UNL1        0.0040
     10  C          6.0820   -0.7440    1.4030 C.2     1  UNL1        0.0000
     11  C          5.3130    1.4240    0.7890 C.2     1  UNL1        0.0000
     12  C          5.4400    0.4240    1.7280 C.2     1  UNL1        0.0000
@<TRIPOS>BOND
     1     5     4    1
     2     4     2    1
     3     3     2    2
     4     2     1    1
     5     1     6    1
     6     6     7    1
     7     7     9    2
     8     7     8    1
     9     9    11    1
    10     8    10    2
    11    11    12    2
    12    10    12    1
