MODEL 1
REMARK VINA RESULT:      -7.4      0.000      0.000
REMARK SMILES O=C(O)CCc1ccccc1
REMARK SMILES IDX 4 1 2 2 1 3 3 4 5 6 6 7 7 8 11 9 8 10 10 11 9 12
REMARK H PARENT 3 5
REMARK Flexibility Score: inf
ROOT
ATOM      1  C   UNL     1       8.448  -0.603  -2.184  1.00  0.00     0.127 C 
ENDROOT
BRANCH   1   2
ATOM      2  C   UNL     1       8.483  -1.887  -2.923  1.00  0.00     0.303 C 
ATOM      3  O   UNL     1       9.561  -2.506  -3.101  1.00  0.00    -0.252 OA
BRANCH   2   4
ATOM      4  O   UNL     1       7.323  -2.441  -3.440  1.00  0.00    -0.481 OA
ATOM      5  H   UNL     1       7.383  -3.063  -4.251  1.00  0.00     0.296 HD
ENDBRANCH   2   4
ENDBRANCH   1   2
BRANCH   1   6
ATOM      6  C   UNL     1       7.031  -0.119  -2.148  1.00  0.00     0.047 C 
BRANCH   6   7
ATOM      7  C   UNL     1       6.490   0.039  -0.799  1.00  0.00    -0.047 A 
ATOM      8  C   UNL     1       6.622  -0.964   0.133  1.00  0.00     0.004 A 
ATOM      9  C   UNL     1       5.846   1.208  -0.467  1.00  0.00     0.004 A 
ATOM     10  C   UNL     1       6.082  -0.744   1.403  1.00  0.00     0.000 A 
ATOM     11  C   UNL     1       5.313   1.424   0.789  1.00  0.00     0.000 A 
ATOM     12  C   UNL     1       5.440   0.424   1.728  1.00  0.00     0.000 A 
ENDBRANCH   6   7
ENDBRANCH   1   6
TORSDOF 4
ENDMDL
MODEL 2
REMARK VINA RESULT:      -7.3      0.127      1.732
REMARK SMILES O=C(O)CCc1ccccc1
REMARK SMILES IDX 4 1 2 2 1 3 3 4 5 6 6 7 7 8 11 9 8 10 10 11 9 12
REMARK H PARENT 3 5
REMARK Flexibility Score: inf
ROOT
ATOM      1  C   UNL     1       8.417  -0.660  -2.074  1.00  0.00     0.127 C 
ENDROOT
BRANCH   1   2
ATOM      2  C   UNL     1       8.366  -1.903  -2.879  1.00  0.00     0.303 C 
ATOM      3  O   UNL     1       7.271  -2.395  -3.248  1.00  0.00    -0.252 OA
BRANCH   2   4
ATOM      4  O   UNL     1       9.530  -2.558  -3.247  1.00  0.00    -0.481 OA
ATOM      5  H   UNL     1       9.778  -2.620  -4.239  1.00  0.00     0.296 HD
ENDBRANCH   2   4
ENDBRANCH   1   2
BRANCH   1   6
ATOM      6  C   UNL     1       7.052  -0.043  -2.073  1.00  0.00     0.047 C 
BRANCH   6   7
ATOM      7  C   UNL     1       6.472   0.116  -0.741  1.00  0.00    -0.047 A 
ATOM      8  C   UNL     1       5.812   1.273  -0.394  1.00  0.00     0.004 A 
ATOM      9  C   UNL     1       6.590  -0.908   0.169  1.00  0.00     0.004 A 
ATOM     10  C   UNL     1       5.282   1.355   0.895  1.00  0.00     0.000 A 
ATOM     11  C   UNL     1       6.066  -0.825   1.444  1.00  0.00     0.000 A 
ATOM     12  C   UNL     1       5.404   0.330   1.799  1.00  0.00     0.000 A 
ENDBRANCH   6   7
ENDBRANCH   1   6
TORSDOF 4
ENDMDL
MODEL 3
REMARK VINA RESULT:      -7.2      0.672      1.592
REMARK SMILES O=C(O)CCc1ccccc1
REMARK SMILES IDX 4 1 2 2 1 3 3 4 5 6 6 7 7 8 11 9 8 10 10 11 9 12
REMARK H PARENT 3 5
REMARK Flexibility Score: inf
ROOT
ATOM      1  C   UNL     1       8.346  -0.995  -1.742  1.00  0.00     0.127 C 
ENDROOT
BRANCH   1   2
ATOM      2  C   UNL     1       8.459  -2.014  -2.812  1.00  0.00     0.303 C 
ATOM      3  O   UNL     1       9.577  -2.465  -3.165  1.00  0.00    -0.252 OA
BRANCH   2   4
ATOM      4  O   UNL     1       7.331  -2.500  -3.453  1.00  0.00    -0.481 OA
ATOM      5  H   UNL     1       7.427  -3.266  -4.124  1.00  0.00     0.296 HD
ENDBRANCH   2   4
ENDBRANCH   1   2
BRANCH   1   6
ATOM      6  C   UNL     1       7.282  -1.435  -0.783  1.00  0.00     0.047 C 
BRANCH   6   7
ATOM      7  C   UNL     1       6.509  -0.336  -0.207  1.00  0.00    -0.047 A 
ATOM      8  C   UNL     1       6.201   0.776  -0.956  1.00  0.00     0.004 A 
ATOM      9  C   UNL     1       6.087  -0.425   1.100  1.00  0.00     0.004 A 
ATOM     10  C   UNL     1       5.459   1.786  -0.341  1.00  0.00     0.000 A 
ATOM     11  C   UNL     1       5.354   0.575   1.706  1.00  0.00     0.000 A 
ATOM     12  C   UNL     1       5.042   1.693   0.963  1.00  0.00     0.000 A 
ENDBRANCH   6   7
ENDBRANCH   1   6
TORSDOF 4
ENDMDL
MODEL 4
REMARK VINA RESULT:      -7.1      0.614      1.442
REMARK SMILES O=C(O)CCc1ccccc1
REMARK SMILES IDX 4 1 2 2 1 3 3 4 5 6 6 7 7 8 11 9 8 10 10 11 9 12
REMARK H PARENT 3 5
REMARK Flexibility Score: inf
ROOT
ATOM      1  C   UNL     1       8.311  -0.854  -1.890  1.00  0.00     0.127 C 
ENDROOT
BRANCH   1   2
ATOM      2  C   UNL     1       8.338  -1.977  -2.857  1.00  0.00     0.303 C 
ATOM      3  O   UNL     1       7.280  -2.420  -3.369  1.00  0.00    -0.252 OA
BRANCH   2   4
ATOM      4  O   UNL     1       9.535  -2.571  -3.222  1.00  0.00    -0.481 OA
ATOM      5  H   UNL     1       9.672  -3.570  -3.046  1.00  0.00     0.296 HD
ENDBRANCH   2   4
ENDBRANCH   1   2
BRANCH   1   6
ATOM      6  C   UNL     1       7.625  -1.323  -0.643  1.00  0.00     0.047 C 
BRANCH   6   7
ATOM      7  C   UNL     1       6.714  -0.339  -0.059  1.00  0.00    -0.047 A 
ATOM      8  C   UNL     1       6.203  -0.517   1.205  1.00  0.00     0.004 A 
ATOM      9  C   UNL     1       6.371   0.774  -0.790  1.00  0.00     0.004 A 
ATOM     10  C   UNL     1       5.340   0.463   1.700  1.00  0.00     0.000 A 
ATOM     11  C   UNL     1       5.517   1.742  -0.300  1.00  0.00     0.000 A 
ATOM     12  C   UNL     1       5.000   1.572   0.966  1.00  0.00     0.000 A 
ENDBRANCH   6   7
ENDBRANCH   1   6
TORSDOF 4
ENDMDL
MODEL 5
REMARK VINA RESULT:      -6.8      3.381      5.059
REMARK SMILES O=C(O)CCc1ccccc1
REMARK SMILES IDX 4 1 2 2 1 3 3 4 5 6 6 7 7 8 11 9 8 10 10 11 9 12
REMARK H PARENT 3 5
REMARK Flexibility Score: inf
ROOT
ATOM      1  C   UNL     1       5.013   1.784   0.726  1.00  0.00     0.127 C 
ENDROOT
BRANCH   1   2
ATOM      2  C   UNL     1       4.473   1.100   1.924  1.00  0.00     0.303 C 
ATOM      3  O   UNL     1       5.109   0.175   2.488  1.00  0.00    -0.252 OA
BRANCH   2   4
ATOM      4  O   UNL     1       3.247   1.464   2.457  1.00  0.00    -0.481 OA
ATOM      5  H   UNL     1       2.770   0.825   3.099  1.00  0.00     0.296 HD
ENDBRANCH   2   4
ENDBRANCH   1   2
BRANCH   1   6
ATOM      6  C   UNL     1       6.509   1.720   0.781  1.00  0.00     0.047 C 
BRANCH   6   7
ATOM      7  C   UNL     1       7.113   0.967  -0.316  1.00  0.00    -0.047 A 
ATOM      8  C   UNL     1       6.393   0.010  -0.993  1.00  0.00     0.004 A 
ATOM      9  C   UNL     1       8.417   1.227  -0.670  1.00  0.00     0.004 A 
ATOM     10  C   UNL     1       7.034  -0.669  -2.031  1.00  0.00     0.000 A 
ATOM     11  C   UNL     1       9.049   0.554  -1.697  1.00  0.00     0.000 A 
ATOM     12  C   UNL     1       8.335  -0.407  -2.380  1.00  0.00     0.000 A 
ENDBRANCH   6   7
ENDBRANCH   1   6
TORSDOF 4
ENDMDL
