@<TRIPOS>MOLECULE
/home/cewinharhar/GITHUB/reincatalyze/data/processed/docking_pred/2023-Apr-26-1657_maxeplen10_maxtrainstep1000_exh32_gamma099_lrac9e-4_lrcr1e-3/5c54d156b22251270ecdcbd3d684e6dc7dd5ede7_ligand_2.pdbqt
 12 12 0 0 0
SMALL
GASTEIGER

@<TRIPOS>ATOM
      1  C          8.4050   -0.6930   -2.0350 C.3     1  UNL1        0.1270
      2  C          8.3770   -1.9150   -2.8720 C.2     1  UNL1        0.3030
      3  O          7.2920   -2.4190   -3.2530 O.2     1  UNL1       -0.2520
      4  O          9.5540   -2.5370   -3.2590 O.3     1  UNL1       -0.4810
      5  H          9.5870   -3.5590   -3.3090 H       1  UNL1        0.2960
      6  C          7.0370   -0.0800   -2.0520 C.3     1  UNL1        0.0470
      7  C          6.4560    0.1130   -0.7250 C.2     1  UNL1       -0.0470
      8  C          5.8040    1.2810   -0.4050 C.2     1  UNL1        0.0040
      9  C          6.5650   -0.8920    0.2090 C.2     1  UNL1        0.0040
     10  C          5.2720    1.3960    0.8810 C.2     1  UNL1        0.0000
     11  C          6.0390   -0.7770    1.4800 C.2     1  UNL1        0.0000
     12  C          5.3850    0.3900    1.8080 C.2     1  UNL1        0.0000
@<TRIPOS>BOND
     1     5     4    1
     2     4     2    1
     3     3     2    2
     4     2     1    1
     5     6     1    1
     6     6     7    1
     7     7     8    2
     8     7     9    1
     9     8    10    1
    10     9    11    2
    11    10    12    2
    12    11    12    1
