MODEL 1
REMARK VINA RESULT:      -7.4      0.000      0.000
REMARK SMILES O=C(O)CCc1ccccc1
REMARK SMILES IDX 4 1 2 2 1 3 3 4 5 6 6 7 7 8 11 9 8 10 10 11 9 12
REMARK H PARENT 3 5
REMARK Flexibility Score: inf
ROOT
ATOM      1  C   UNL     1       8.485  -0.616  -2.149  1.00  0.00     0.127 C 
ENDROOT
BRANCH   1   2
ATOM      2  C   UNL     1       8.501  -1.891  -2.903  1.00  0.00     0.303 C 
ATOM      3  O   UNL     1       9.573  -2.510  -3.113  1.00  0.00    -0.252 OA
BRANCH   2   4
ATOM      4  O   UNL     1       7.328  -2.437  -3.400  1.00  0.00    -0.481 OA
ATOM      5  H   UNL     1       6.451  -1.919  -3.297  1.00  0.00     0.296 HD
ENDBRANCH   2   4
ENDBRANCH   1   2
BRANCH   1   6
ATOM      6  C   UNL     1       7.080  -0.095  -2.135  1.00  0.00     0.047 C 
BRANCH   6   7
ATOM      7  C   UNL     1       6.515   0.055  -0.795  1.00  0.00    -0.047 A 
ATOM      8  C   UNL     1       6.639  -0.950   0.137  1.00  0.00     0.004 A 
ATOM      9  C   UNL     1       5.855   1.217  -0.471  1.00  0.00     0.004 A 
ATOM     10  C   UNL     1       6.076  -0.738   1.397  1.00  0.00     0.000 A 
ATOM     11  C   UNL     1       5.298   1.425   0.776  1.00  0.00     0.000 A 
ATOM     12  C   UNL     1       5.418   0.423   1.715  1.00  0.00     0.000 A 
ENDBRANCH   6   7
ENDBRANCH   1   6
TORSDOF 4
ENDMDL
MODEL 2
REMARK VINA RESULT:      -7.3      0.123      1.733
REMARK SMILES O=C(O)CCc1ccccc1
REMARK SMILES IDX 4 1 2 2 1 3 3 4 5 6 6 7 7 8 11 9 8 10 10 11 9 12
REMARK H PARENT 3 5
REMARK Flexibility Score: inf
ROOT
ATOM      1  C   UNL     1       8.405  -0.693  -2.035  1.00  0.00     0.127 C 
ENDROOT
BRANCH   1   2
ATOM      2  C   UNL     1       8.377  -1.915  -2.872  1.00  0.00     0.303 C 
ATOM      3  O   UNL     1       7.292  -2.419  -3.253  1.00  0.00    -0.252 OA
BRANCH   2   4
ATOM      4  O   UNL     1       9.554  -2.537  -3.259  1.00  0.00    -0.481 OA
ATOM      5  H   UNL     1       9.587  -3.559  -3.309  1.00  0.00     0.296 HD
ENDBRANCH   2   4
ENDBRANCH   1   2
BRANCH   1   6
ATOM      6  C   UNL     1       7.037  -0.080  -2.052  1.00  0.00     0.047 C 
BRANCH   6   7
ATOM      7  C   UNL     1       6.456   0.113  -0.725  1.00  0.00    -0.047 A 
ATOM      8  C   UNL     1       5.804   1.281  -0.405  1.00  0.00     0.004 A 
ATOM      9  C   UNL     1       6.565  -0.892   0.209  1.00  0.00     0.004 A 
ATOM     10  C   UNL     1       5.272   1.396   0.881  1.00  0.00     0.000 A 
ATOM     11  C   UNL     1       6.039  -0.777   1.480  1.00  0.00     0.000 A 
ATOM     12  C   UNL     1       5.385   0.390   1.808  1.00  0.00     0.000 A 
ENDBRANCH   6   7
ENDBRANCH   1   6
TORSDOF 4
ENDMDL
MODEL 3
REMARK VINA RESULT:      -6.9      1.002      1.574
REMARK SMILES O=C(O)CCc1ccccc1
REMARK SMILES IDX 4 1 2 2 1 3 3 4 5 6 6 7 7 8 11 9 8 10 10 11 9 12
REMARK H PARENT 3 5
REMARK Flexibility Score: inf
ROOT
ATOM      1  C   UNL     1       7.305  -1.282  -2.210  1.00  0.00     0.127 C 
ENDROOT
BRANCH   1   2
ATOM      2  C   UNL     1       8.755  -1.360  -2.507  1.00  0.00     0.303 C 
ATOM      3  O   UNL     1       9.238  -2.332  -3.140  1.00  0.00    -0.252 OA
BRANCH   2   4
ATOM      4  O   UNL     1       9.619  -0.360  -2.093  1.00  0.00    -0.481 OA
ATOM      5  H   UNL     1       9.493   0.061  -1.168  1.00  0.00     0.296 HD
ENDBRANCH   2   4
ENDBRANCH   1   2
BRANCH   1   6
ATOM      6  C   UNL     1       7.119  -1.430  -0.730  1.00  0.00     0.047 C 
BRANCH   6   7
ATOM      7  C   UNL     1       6.392  -0.324  -0.109  1.00  0.00    -0.047 A 
ATOM      8  C   UNL     1       5.950  -0.415   1.190  1.00  0.00     0.004 A 
ATOM      9  C   UNL     1       6.153   0.817  -0.840  1.00  0.00     0.004 A 
ATOM     10  C   UNL     1       5.262   0.680   1.719  1.00  0.00     0.000 A 
ATOM     11  C   UNL     1       5.473   1.898  -0.315  1.00  0.00     0.000 A 
ATOM     12  C   UNL     1       5.026   1.815   0.985  1.00  0.00     0.000 A 
ENDBRANCH   6   7
ENDBRANCH   1   6
TORSDOF 4
ENDMDL
MODEL 4
REMARK VINA RESULT:      -6.8      3.369      5.062
REMARK SMILES O=C(O)CCc1ccccc1
REMARK SMILES IDX 4 1 2 2 1 3 3 4 5 6 6 7 7 8 11 9 8 10 10 11 9 12
REMARK H PARENT 3 5
REMARK Flexibility Score: inf
ROOT
ATOM      1  C   UNL     1       5.010   1.778   0.713  1.00  0.00     0.127 C 
ENDROOT
BRANCH   1   2
ATOM      2  C   UNL     1       4.478   1.105   1.922  1.00  0.00     0.303 C 
ATOM      3  O   UNL     1       5.123   0.193   2.496  1.00  0.00    -0.252 OA
BRANCH   2   4
ATOM      4  O   UNL     1       3.250   1.466   2.454  1.00  0.00    -0.481 OA
ATOM      5  H   UNL     1       2.394   1.207   1.957  1.00  0.00     0.296 HD
ENDBRANCH   2   4
ENDBRANCH   1   2
BRANCH   1   6
ATOM      6  C   UNL     1       6.506   1.733   0.769  1.00  0.00     0.047 C 
BRANCH   6   7
ATOM      7  C   UNL     1       7.120   0.987  -0.327  1.00  0.00    -0.047 A 
ATOM      8  C   UNL     1       6.401   0.045  -1.027  1.00  0.00     0.004 A 
ATOM      9  C   UNL     1       8.432   1.237  -0.658  1.00  0.00     0.004 A 
ATOM     10  C   UNL     1       7.051  -0.629  -2.063  1.00  0.00     0.000 A 
ATOM     11  C   UNL     1       9.073   0.570  -1.683  1.00  0.00     0.000 A 
ATOM     12  C   UNL     1       8.360  -0.375  -2.388  1.00  0.00     0.000 A 
ENDBRANCH   6   7
ENDBRANCH   1   6
TORSDOF 4
ENDMDL
MODEL 5
REMARK VINA RESULT:      -6.7      3.362      5.069
REMARK SMILES O=C(O)CCc1ccccc1
REMARK SMILES IDX 4 1 2 2 1 3 3 4 5 6 6 7 7 8 11 9 8 10 10 11 9 12
REMARK H PARENT 3 5
REMARK Flexibility Score: inf
ROOT
ATOM      1  C   UNL     1       5.036   1.802   0.654  1.00  0.00     0.127 C 
ENDROOT
BRANCH   1   2
ATOM      2  C   UNL     1       4.528   1.150   1.884  1.00  0.00     0.303 C 
ATOM      3  O   UNL     1       5.200   0.272   2.480  1.00  0.00    -0.252 OA
BRANCH   2   4
ATOM      4  O   UNL     1       3.293   1.492   2.411  1.00  0.00    -0.481 OA
ATOM      5  H   UNL     1       2.726   2.201   1.938  1.00  0.00     0.296 HD
ENDBRANCH   2   4
ENDBRANCH   1   2
BRANCH   1   6
ATOM      6  C   UNL     1       6.534   1.807   0.708  1.00  0.00     0.047 C 
BRANCH   6   7
ATOM      7  C   UNL     1       7.170   1.048  -0.367  1.00  0.00    -0.047 A 
ATOM      8  C   UNL     1       8.499   1.234  -0.669  1.00  0.00     0.004 A 
ATOM      9  C   UNL     1       6.423   0.137  -1.079  1.00  0.00     0.004 A 
ATOM     10  C   UNL     1       9.040   0.474  -1.708  1.00  0.00     0.000 A 
ATOM     11  C   UNL     1       6.960  -0.613  -2.106  1.00  0.00     0.000 A 
ATOM     12  C   UNL     1       8.291  -0.432  -2.415  1.00  0.00     0.000 A 
ENDBRANCH   6   7
ENDBRANCH   1   6
TORSDOF 4
ENDMDL
