@<TRIPOS>MOLECULE
/home/cewinharhar/GITHUB/reincatalyze/data/processed/docking_pred/2023-Apr-26-1657_maxeplen10_maxtrainstep1000_exh32_gamma099_lrac9e-4_lrcr1e-3/5c54d156b22251270ecdcbd3d684e6dc7dd5ede7_ligand_2.pdbqt
 12 12 0 0 0
SMALL
GASTEIGER

@<TRIPOS>ATOM
      1  C          8.4850   -0.6160   -2.1490 C.3     1  UNL1        0.1270
      2  C          8.5010   -1.8910   -2.9030 C.2     1  UNL1        0.3030
      3  O          9.5730   -2.5100   -3.1130 O.2     1  UNL1       -0.2520
      4  O          7.3280   -2.4370   -3.4000 O.3     1  UNL1       -0.4810
      5  H          6.4510   -1.9190   -3.2970 H       1  UNL1        0.2960
      6  C          7.0800   -0.0950   -2.1350 C.3     1  UNL1        0.0470
      7  C          6.5150    0.0550   -0.7950 C.2     1  UNL1       -0.0470
      8  C          6.6390   -0.9500    0.1370 C.2     1  UNL1        0.0040
      9  C          5.8550    1.2170   -0.4710 C.2     1  UNL1        0.0040
     10  C          6.0760   -0.7380    1.3970 C.2     1  UNL1        0.0000
     11  C          5.2980    1.4250    0.7760 C.2     1  UNL1        0.0000
     12  C          5.4180    0.4230    1.7150 C.2     1  UNL1        0.0000
@<TRIPOS>BOND
     1     4     5    1
     2     4     2    1
     3     3     2    2
     4     2     1    1
     5     1     6    1
     6     6     7    1
     7     7     9    2
     8     7     8    1
     9     9    11    1
    10     8    10    2
    11    11    12    2
    12    10    12    1
