@<TRIPOS>MOLECULE
/home/cewinharhar/GITHUB/reincatalyze/data/processed/docking_pred/2023-Apr-26-1657_maxeplen10_maxtrainstep1000_exh32_gamma099_lrac9e-4_lrcr1e-3/5c54d156b22251270ecdcbd3d684e6dc7dd5ede7_ligand_2.pdbqt
 12 12 0 0 0
SMALL
GASTEIGER

@<TRIPOS>ATOM
      1  C          7.3050   -1.2820   -2.2100 C.3     1  UNL1        0.1270
      2  C          8.7550   -1.3600   -2.5070 C.2     1  UNL1        0.3030
      3  O          9.2380   -2.3320   -3.1400 O.2     1  UNL1       -0.2520
      4  O          9.6190   -0.3600   -2.0930 O.3     1  UNL1       -0.4810
      5  H          9.4930    0.0610   -1.1680 H       1  UNL1        0.2960
      6  C          7.1190   -1.4300   -0.7300 C.3     1  UNL1        0.0470
      7  C          6.3920   -0.3240   -0.1090 C.2     1  UNL1       -0.0470
      8  C          5.9500   -0.4150    1.1900 C.2     1  UNL1        0.0040
      9  C          6.1530    0.8170   -0.8400 C.2     1  UNL1        0.0040
     10  C          5.2620    0.6800    1.7190 C.2     1  UNL1        0.0000
     11  C          5.4730    1.8980   -0.3150 C.2     1  UNL1        0.0000
     12  C          5.0260    1.8150    0.9850 C.2     1  UNL1        0.0000
@<TRIPOS>BOND
     1     3     2    2
     2     2     1    1
     3     2     4    1
     4     1     6    1
     5     4     5    1
     6     9    11    1
     7     9     7    2
     8     6     7    1
     9    11    12    2
    10     7     8    1
    11    12    10    1
    12     8    10    2
