@<TRIPOS>MOLECULE
/home/cewinharhar/GITHUB/reincatalyze/data/processed/docking_pred/2023-Apr-26-1657_maxeplen10_maxtrainstep1000_exh32_gamma099_lrac9e-4_lrcr1e-3/5e677739909452415bd62a3bb65a8cc9d063ea2f_ligand_2.pdbqt
 12 12 0 0 0
SMALL
GASTEIGER

@<TRIPOS>ATOM
      1  C          8.4070   -0.6080   -2.1340 C.3     1  UNL1        0.1270
      2  C          8.4360   -1.8890   -2.8790 C.2     1  UNL1        0.3030
      3  O          9.5120   -2.5080   -3.0670 O.2     1  UNL1       -0.2520
      4  O          7.2720   -2.4390   -3.3910 O.3     1  UNL1       -0.4810
      5  H          6.3770   -2.2230   -2.9430 H       1  UNL1        0.2960
      6  C          6.9900   -0.1230   -2.0860 C.3     1  UNL1        0.0470
      7  C          6.4550    0.0180   -0.7330 C.2     1  UNL1       -0.0470
      8  C          6.5610   -1.0090    0.1760 C.2     1  UNL1        0.0040
      9  C          5.8420    1.1960   -0.3730 C.2     1  UNL1        0.0040
     10  C          6.0280   -0.8050    1.4500 C.2     1  UNL1        0.0000
     11  C          5.3150    1.3960    0.8880 C.2     1  UNL1        0.0000
     12  C          5.4170    0.3720    1.8040 C.2     1  UNL1        0.0000
@<TRIPOS>BOND
     1     4     5    1
     2     4     2    1
     3     3     2    2
     4     2     1    1
     5     1     6    1
     6     6     7    1
     7     7     9    2
     8     7     8    1
     9     9    11    1
    10     8    10    2
    11    11    12    2
    12    10    12    1
