@<TRIPOS>MOLECULE
/home/cewinharhar/GITHUB/reincatalyze/data/processed/docking_pred/2023-Apr-26-1657_maxeplen10_maxtrainstep1000_exh32_gamma099_lrac9e-4_lrcr1e-3/5e677739909452415bd62a3bb65a8cc9d063ea2f_ligand_2.pdbqt
 12 12 0 0 0
SMALL
GASTEIGER

@<TRIPOS>ATOM
      1  C          8.4150   -0.6110   -2.1490 C.3     1  UNL1        0.1270
      2  C          8.4590   -1.8940   -2.8890 C.2     1  UNL1        0.3030
      3  O          9.5420   -2.5060   -3.0660 O.2     1  UNL1       -0.2520
      4  O          7.3040   -2.4540   -3.4090 O.3     1  UNL1       -0.4810
      5  H          6.4080   -1.9790   -3.2650 H       1  UNL1        0.2960
      6  C          6.9930   -0.1400   -2.1090 C.3     1  UNL1        0.0470
      7  C          6.4600    0.0270   -0.7580 C.2     1  UNL1       -0.0470
      8  C          5.8220    1.1890   -0.3920 C.2     1  UNL1        0.0040
      9  C          6.6000   -0.9970    0.1500 C.2     1  UNL1        0.0040
     10  C          5.3370    1.2790    0.9150 C.2     1  UNL1        0.0000
     11  C          6.1200   -0.9070    1.4420 C.2     1  UNL1        0.0000
     12  C          5.4810    0.2550    1.8170 C.2     1  UNL1        0.0000
@<TRIPOS>BOND
     1     4     5    1
     2     4     2    1
     3     3     2    2
     4     2     1    1
     5     1     6    1
     6     6     7    1
     7     7     8    2
     8     7     9    1
     9     8    10    1
    10     9    11    2
    11    10    12    2
    12    11    12    1
