@<TRIPOS>MOLECULE
/home/cewinharhar/GITHUB/reincatalyze/data/processed/docking_pred/2023-Apr-26-1657_maxeplen10_maxtrainstep1000_exh32_gamma099_lrac9e-4_lrcr1e-3/5e677739909452415bd62a3bb65a8cc9d063ea2f_ligand_2.pdbqt
 12 12 0 0 0
SMALL
GASTEIGER

@<TRIPOS>ATOM
      1  C          4.9890    1.7880    0.6940 C.3     1  UNL1        0.1270
      2  C          4.4770    1.1080    1.9080 C.2     1  UNL1        0.3030
      3  O          5.1370    0.2000    2.4710 O.2     1  UNL1       -0.2520
      4  O          3.2530    1.4570    2.4540 O.3     1  UNL1       -0.4810
      5  H          3.0580    2.4400    2.6600 H       1  UNL1        0.2960
      6  C          6.4860    1.7740    0.7430 C.3     1  UNL1        0.0470
      7  C          7.1100    1.0350   -0.3540 C.2     1  UNL1       -0.0470
      8  C          6.3750    0.1570   -1.1170 C.2     1  UNL1        0.0040
      9  C          8.4460    1.2270   -0.6190 C.2     1  UNL1        0.0040
     10  C          7.0360   -0.5140   -2.1490 C.2     1  UNL1        0.0000
     11  C          9.0970    0.5620   -1.6390 C.2     1  UNL1        0.0000
     12  C          8.3690   -0.3190   -2.4080 C.2     1  UNL1        0.0000
@<TRIPOS>BOND
     1    12    10    2
     2    12    11    1
     3    10     8    1
     4    11     9    2
     5     8     7    2
     6     9     7    1
     7     7     6    1
     8     1     6    1
     9     1     2    1
    10     2     4    1
    11     2     3    2
    12     4     5    1
