@<TRIPOS>MOLECULE
/home/cewinharhar/GITHUB/reincatalyze/data/processed/docking_pred/2023-Apr-26-1657_maxeplen10_maxtrainstep1000_exh32_gamma099_lrac9e-4_lrcr1e-3/5e677739909452415bd62a3bb65a8cc9d063ea2f_ligand_2.pdbqt
 12 12 0 0 0
SMALL
GASTEIGER

@<TRIPOS>ATOM
      1  C          8.2030    0.2530   -2.2160 C.3     1  UNL1        0.1270
      2  C          9.3330    0.3490   -1.2620 C.2     1  UNL1        0.3030
      3  O          9.4150   -0.4180   -0.2710 O.2     1  UNL1       -0.2520
      4  O         10.3340    1.2910   -1.4400 O.3     1  UNL1       -0.4810
      5  H         10.4130    2.0680   -0.7790 H       1  UNL1        0.2960
      6  C          7.0920   -0.5040   -1.5540 C.3     1  UNL1        0.0470
      7  C          6.3210    0.2870   -0.5970 C.2     1  UNL1       -0.0470
      8  C          6.0990   -0.1740    0.6800 C.2     1  UNL1        0.0040
      9  C          5.8180    1.5070   -0.9850 C.2     1  UNL1        0.0040
     10  C          5.3550    0.6350    1.5420 C.2     1  UNL1        0.0000
     11  C          5.0830    2.3060   -0.1320 C.2     1  UNL1        0.0000
     12  C          4.8550    1.8510    1.1480 C.2     1  UNL1        0.0000
@<TRIPOS>BOND
     1     1     6    1
     2     1     2    1
     3     6     7    1
     4     4     2    1
     5     4     5    1
     6     2     3    2
     7     9     7    2
     8     9    11    1
     9     7     8    1
    10    11    12    2
    11     8    10    2
    12    12    10    1
