MODEL 1
REMARK VINA RESULT:      -7.3      0.000      0.000
REMARK SMILES O=C(O)CCc1ccccc1
REMARK SMILES IDX 4 1 2 2 1 3 3 4 5 6 6 7 7 8 11 9 8 10 10 11 9 12
REMARK H PARENT 3 5
REMARK Flexibility Score: inf
ROOT
ATOM      1  C   UNL     1       8.407  -0.608  -2.134  1.00  0.00     0.127 C 
ENDROOT
BRANCH   1   2
ATOM      2  C   UNL     1       8.436  -1.889  -2.879  1.00  0.00     0.303 C 
ATOM      3  O   UNL     1       9.512  -2.508  -3.067  1.00  0.00    -0.252 OA
BRANCH   2   4
ATOM      4  O   UNL     1       7.272  -2.439  -3.391  1.00  0.00    -0.481 OA
ATOM      5  H   UNL     1       6.377  -2.223  -2.943  1.00  0.00     0.296 HD
ENDBRANCH   2   4
ENDBRANCH   1   2
BRANCH   1   6
ATOM      6  C   UNL     1       6.990  -0.123  -2.086  1.00  0.00     0.047 C 
BRANCH   6   7
ATOM      7  C   UNL     1       6.455   0.018  -0.733  1.00  0.00    -0.047 A 
ATOM      8  C   UNL     1       6.561  -1.009   0.176  1.00  0.00     0.004 A 
ATOM      9  C   UNL     1       5.842   1.196  -0.373  1.00  0.00     0.004 A 
ATOM     10  C   UNL     1       6.028  -0.805   1.450  1.00  0.00     0.000 A 
ATOM     11  C   UNL     1       5.315   1.396   0.888  1.00  0.00     0.000 A 
ATOM     12  C   UNL     1       5.417   0.372   1.804  1.00  0.00     0.000 A 
ENDBRANCH   6   7
ENDBRANCH   1   6
TORSDOF 4
ENDMDL
MODEL 2
REMARK VINA RESULT:      -7.3      0.074      1.438
REMARK SMILES O=C(O)CCc1ccccc1
REMARK SMILES IDX 4 1 2 2 1 3 3 4 5 6 6 7 7 8 11 9 8 10 10 11 9 12
REMARK H PARENT 3 5
REMARK Flexibility Score: inf
ROOT
ATOM      1  C   UNL     1       8.415  -0.611  -2.149  1.00  0.00     0.127 C 
ENDROOT
BRANCH   1   2
ATOM      2  C   UNL     1       8.459  -1.894  -2.889  1.00  0.00     0.303 C 
ATOM      3  O   UNL     1       9.542  -2.506  -3.066  1.00  0.00    -0.252 OA
BRANCH   2   4
ATOM      4  O   UNL     1       7.304  -2.454  -3.409  1.00  0.00    -0.481 OA
ATOM      5  H   UNL     1       6.408  -1.979  -3.265  1.00  0.00     0.296 HD
ENDBRANCH   2   4
ENDBRANCH   1   2
BRANCH   1   6
ATOM      6  C   UNL     1       6.993  -0.140  -2.109  1.00  0.00     0.047 C 
BRANCH   6   7
ATOM      7  C   UNL     1       6.460   0.027  -0.758  1.00  0.00    -0.047 A 
ATOM      8  C   UNL     1       5.822   1.189  -0.392  1.00  0.00     0.004 A 
ATOM      9  C   UNL     1       6.600  -0.997   0.150  1.00  0.00     0.004 A 
ATOM     10  C   UNL     1       5.337   1.279   0.915  1.00  0.00     0.000 A 
ATOM     11  C   UNL     1       6.120  -0.907   1.442  1.00  0.00     0.000 A 
ATOM     12  C   UNL     1       5.481   0.255   1.817  1.00  0.00     0.000 A 
ENDBRANCH   6   7
ENDBRANCH   1   6
TORSDOF 4
ENDMDL
MODEL 3
REMARK VINA RESULT:      -6.7      3.361      5.057
REMARK SMILES O=C(O)CCc1ccccc1
REMARK SMILES IDX 4 1 2 2 1 3 3 4 5 6 6 7 7 8 11 9 8 10 10 11 9 12
REMARK H PARENT 3 5
REMARK Flexibility Score: inf
ROOT
ATOM      1  C   UNL     1       4.989   1.788   0.694  1.00  0.00     0.127 C 
ENDROOT
BRANCH   1   2
ATOM      2  C   UNL     1       4.477   1.108   1.908  1.00  0.00     0.303 C 
ATOM      3  O   UNL     1       5.137   0.200   2.471  1.00  0.00    -0.252 OA
BRANCH   2   4
ATOM      4  O   UNL     1       3.253   1.457   2.454  1.00  0.00    -0.481 OA
ATOM      5  H   UNL     1       3.058   2.440   2.660  1.00  0.00     0.296 HD
ENDBRANCH   2   4
ENDBRANCH   1   2
BRANCH   1   6
ATOM      6  C   UNL     1       6.486   1.774   0.743  1.00  0.00     0.047 C 
BRANCH   6   7
ATOM      7  C   UNL     1       7.110   1.035  -0.354  1.00  0.00    -0.047 A 
ATOM      8  C   UNL     1       6.375   0.157  -1.117  1.00  0.00     0.004 A 
ATOM      9  C   UNL     1       8.446   1.227  -0.619  1.00  0.00     0.004 A 
ATOM     10  C   UNL     1       7.036  -0.514  -2.149  1.00  0.00     0.000 A 
ATOM     11  C   UNL     1       9.097   0.562  -1.639  1.00  0.00     0.000 A 
ATOM     12  C   UNL     1       8.369  -0.319  -2.408  1.00  0.00     0.000 A 
ENDBRANCH   6   7
ENDBRANCH   1   6
TORSDOF 4
ENDMDL
MODEL 4
REMARK VINA RESULT:      -6.7      3.816      4.901
REMARK SMILES O=C(O)CCc1ccccc1
REMARK SMILES IDX 4 1 2 2 1 3 3 4 5 6 6 7 7 8 11 9 8 10 10 11 9 12
REMARK H PARENT 3 5
REMARK Flexibility Score: inf
ROOT
ATOM      1  C   UNL     1       5.556   2.836  -0.015  1.00  0.00     0.127 C 
ENDROOT
BRANCH   1   2
ATOM      2  C   UNL     1       6.274   3.851   0.790  1.00  0.00     0.303 C 
ATOM      3  O   UNL     1       6.925   4.775   0.242  1.00  0.00    -0.252 OA
BRANCH   2   4
ATOM      4  O   UNL     1       6.248   3.809   2.175  1.00  0.00    -0.481 OA
ATOM      5  H   UNL     1       6.962   3.271   2.673  1.00  0.00     0.296 HD
ENDBRANCH   2   4
ENDBRANCH   1   2
BRANCH   1   6
ATOM      6  C   UNL     1       4.998   1.804   0.918  1.00  0.00     0.047 C 
BRANCH   6   7
ATOM      7  C   UNL     1       5.785   0.574   0.984  1.00  0.00    -0.047 A 
ATOM      8  C   UNL     1       5.711  -0.250   2.083  1.00  0.00     0.004 A 
ATOM      9  C   UNL     1       6.606   0.245  -0.070  1.00  0.00     0.004 A 
ATOM     10  C   UNL     1       6.490  -1.409   2.077  1.00  0.00     0.000 A 
ATOM     11  C   UNL     1       7.376  -0.901  -0.074  1.00  0.00     0.000 A 
ATOM     12  C   UNL     1       7.307  -1.732   1.023  1.00  0.00     0.000 A 
ENDBRANCH   6   7
ENDBRANCH   1   6
TORSDOF 4
ENDMDL
MODEL 5
REMARK VINA RESULT:      -6.6      1.914      2.298
REMARK SMILES O=C(O)CCc1ccccc1
REMARK SMILES IDX 4 1 2 2 1 3 3 4 5 6 6 7 7 8 11 9 8 10 10 11 9 12
REMARK H PARENT 3 5
REMARK Flexibility Score: inf
ROOT
ATOM      1  C   UNL     1       8.203   0.253  -2.216  1.00  0.00     0.127 C 
ENDROOT
BRANCH   1   2
ATOM      2  C   UNL     1       9.333   0.349  -1.262  1.00  0.00     0.303 C 
ATOM      3  O   UNL     1       9.415  -0.418  -0.271  1.00  0.00    -0.252 OA
BRANCH   2   4
ATOM      4  O   UNL     1      10.334   1.291  -1.440  1.00  0.00    -0.481 OA
ATOM      5  H   UNL     1      10.413   2.068  -0.779  1.00  0.00     0.296 HD
ENDBRANCH   2   4
ENDBRANCH   1   2
BRANCH   1   6
ATOM      6  C   UNL     1       7.092  -0.504  -1.554  1.00  0.00     0.047 C 
BRANCH   6   7
ATOM      7  C   UNL     1       6.321   0.287  -0.597  1.00  0.00    -0.047 A 
ATOM      8  C   UNL     1       6.099  -0.174   0.680  1.00  0.00     0.004 A 
ATOM      9  C   UNL     1       5.818   1.507  -0.985  1.00  0.00     0.004 A 
ATOM     10  C   UNL     1       5.355   0.635   1.542  1.00  0.00     0.000 A 
ATOM     11  C   UNL     1       5.083   2.306  -0.132  1.00  0.00     0.000 A 
ATOM     12  C   UNL     1       4.855   1.851   1.148  1.00  0.00     0.000 A 
ENDBRANCH   6   7
ENDBRANCH   1   6
TORSDOF 4
ENDMDL
