@<TRIPOS>MOLECULE
/home/cewinharhar/GITHUB/reincatalyze/data/processed/docking_pred/2023-Apr-26-1657_maxeplen10_maxtrainstep1000_exh32_gamma099_lrac9e-4_lrcr1e-3/5e677739909452415bd62a3bb65a8cc9d063ea2f_ligand_2.pdbqt
 12 12 0 0 0
SMALL
GASTEIGER

@<TRIPOS>ATOM
      1  C          5.5560    2.8360   -0.0150 C.3     1  UNL1        0.1270
      2  C          6.2740    3.8510    0.7900 C.2     1  UNL1        0.3030
      3  O          6.9250    4.7750    0.2420 O.2     1  UNL1       -0.2520
      4  O          6.2480    3.8090    2.1750 O.3     1  UNL1       -0.4810
      5  H          6.9620    3.2710    2.6730 H       1  UNL1        0.2960
      6  C          4.9980    1.8040    0.9180 C.3     1  UNL1        0.0470
      7  C          5.7850    0.5740    0.9840 C.2     1  UNL1       -0.0470
      8  C          5.7110   -0.2500    2.0830 C.2     1  UNL1        0.0040
      9  C          6.6060    0.2450   -0.0700 C.2     1  UNL1        0.0040
     10  C          6.4900   -1.4090    2.0770 C.2     1  UNL1        0.0000
     11  C          7.3760   -0.9010   -0.0740 C.2     1  UNL1        0.0000
     12  C          7.3070   -1.7320    1.0230 C.2     1  UNL1        0.0000
@<TRIPOS>BOND
     1    11     9    1
     2    11    12    2
     3     9     7    2
     4     1     2    1
     5     1     6    1
     6     3     2    2
     7     2     4    1
     8     6     7    1
     9     7     8    1
    10    12    10    1
    11    10     8    2
    12     4     5    1
