@<TRIPOS>MOLECULE
/home/cewinharhar/GITHUB/reincatalyze/data/processed/docking_pred/2023-Apr-26-1657_maxeplen10_maxtrainstep1000_exh32_gamma099_lrac9e-4_lrcr1e-3/5f00cdda1ab61f28c1ea6d7129614616e9231d70_ligand_2.pdbqt
 12 12 0 0 0
SMALL
GASTEIGER

@<TRIPOS>ATOM
      1  C          8.4260   -0.5890   -2.1700 C.3     1  UNL1        0.1270
      2  C          8.4810   -1.8740   -2.9050 C.2     1  UNL1        0.3030
      3  O          9.5700   -2.4710   -3.0930 O.2     1  UNL1       -0.2520
      4  O          7.3270   -2.4540   -3.4080 O.3     1  UNL1       -0.4810
      5  H          7.3940   -3.0940   -4.2050 H       1  UNL1        0.2960
      6  C          7.0010   -0.1260   -2.1370 C.3     1  UNL1        0.0470
      7  C          6.4700    0.0660   -0.7880 C.2     1  UNL1       -0.0470
      8  C          5.8410    1.2390   -0.4400 C.2     1  UNL1        0.0040
      9  C          6.6030   -0.9450    0.1360 C.2     1  UNL1        0.0040
     10  C          5.3580    1.3520    0.8650 C.2     1  UNL1        0.0000
     11  C          6.1250   -0.8310    1.4260 C.2     1  UNL1        0.0000
     12  C          5.4940    0.3410    1.7830 C.2     1  UNL1        0.0000
@<TRIPOS>BOND
     1     5     4    1
     2     4     2    1
     3     3     2    2
     4     2     1    1
     5     1     6    1
     6     6     7    1
     7     7     8    2
     8     7     9    1
     9     8    10    1
    10     9    11    2
    11    10    12    2
    12    11    12    1
