MODEL 1
REMARK VINA RESULT:      -7.4      0.000      0.000
REMARK SMILES O=C(O)CCc1ccccc1
REMARK SMILES IDX 4 1 2 2 1 3 3 4 5 6 6 7 7 8 11 9 8 10 10 11 9 12
REMARK H PARENT 3 5
REMARK Flexibility Score: inf
ROOT
ATOM      1  C   UNL     1       8.431  -0.617  -2.150  1.00  0.00     0.127 C 
ENDROOT
BRANCH   1   2
ATOM      2  C   UNL     1       8.471  -1.893  -2.904  1.00  0.00     0.303 C 
ATOM      3  O   UNL     1       9.552  -2.503  -3.093  1.00  0.00    -0.252 OA
BRANCH   2   4
ATOM      4  O   UNL     1       7.311  -2.448  -3.421  1.00  0.00    -0.481 OA
ATOM      5  H   UNL     1       6.902  -2.052  -4.271  1.00  0.00     0.296 HD
ENDBRANCH   2   4
ENDBRANCH   1   2
BRANCH   1   6
ATOM      6  C   UNL     1       7.013  -0.133  -2.119  1.00  0.00     0.047 C 
BRANCH   6   7
ATOM      7  C   UNL     1       6.472   0.034  -0.771  1.00  0.00    -0.047 A 
ATOM      8  C   UNL     1       6.599  -0.964   0.167  1.00  0.00     0.004 A 
ATOM      9  C   UNL     1       5.833   1.208  -0.445  1.00  0.00     0.004 A 
ATOM     10  C   UNL     1       6.059  -0.735   1.435  1.00  0.00     0.000 A 
ATOM     11  C   UNL     1       5.299   1.432   0.808  1.00  0.00     0.000 A 
ATOM     12  C   UNL     1       5.421   0.437   1.754  1.00  0.00     0.000 A 
ENDBRANCH   6   7
ENDBRANCH   1   6
TORSDOF 4
ENDMDL
MODEL 2
REMARK VINA RESULT:      -7.3      0.067      1.438
REMARK SMILES O=C(O)CCc1ccccc1
REMARK SMILES IDX 4 1 2 2 1 3 3 4 5 6 6 7 7 8 11 9 8 10 10 11 9 12
REMARK H PARENT 3 5
REMARK Flexibility Score: inf
ROOT
ATOM      1  C   UNL     1       8.426  -0.589  -2.170  1.00  0.00     0.127 C 
ENDROOT
BRANCH   1   2
ATOM      2  C   UNL     1       8.481  -1.874  -2.905  1.00  0.00     0.303 C 
ATOM      3  O   UNL     1       9.570  -2.471  -3.093  1.00  0.00    -0.252 OA
BRANCH   2   4
ATOM      4  O   UNL     1       7.327  -2.454  -3.408  1.00  0.00    -0.481 OA
ATOM      5  H   UNL     1       7.394  -3.094  -4.205  1.00  0.00     0.296 HD
ENDBRANCH   2   4
ENDBRANCH   1   2
BRANCH   1   6
ATOM      6  C   UNL     1       7.001  -0.126  -2.137  1.00  0.00     0.047 C 
BRANCH   6   7
ATOM      7  C   UNL     1       6.470   0.066  -0.788  1.00  0.00    -0.047 A 
ATOM      8  C   UNL     1       5.841   1.239  -0.440  1.00  0.00     0.004 A 
ATOM      9  C   UNL     1       6.603  -0.945   0.136  1.00  0.00     0.004 A 
ATOM     10  C   UNL     1       5.358   1.352   0.865  1.00  0.00     0.000 A 
ATOM     11  C   UNL     1       6.125  -0.831   1.426  1.00  0.00     0.000 A 
ATOM     12  C   UNL     1       5.494   0.341   1.783  1.00  0.00     0.000 A 
ENDBRANCH   6   7
ENDBRANCH   1   6
TORSDOF 4
ENDMDL
MODEL 3
REMARK VINA RESULT:      -6.8      3.380      5.067
REMARK SMILES O=C(O)CCc1ccccc1
REMARK SMILES IDX 4 1 2 2 1 3 3 4 5 6 6 7 7 8 11 9 8 10 10 11 9 12
REMARK H PARENT 3 5
REMARK Flexibility Score: inf
ROOT
ATOM      1  C   UNL     1       4.996   1.789   0.713  1.00  0.00     0.127 C 
ENDROOT
BRANCH   1   2
ATOM      2  C   UNL     1       4.473   1.109   1.921  1.00  0.00     0.303 C 
ATOM      3  O   UNL     1       5.125   0.197   2.488  1.00  0.00    -0.252 OA
BRANCH   2   4
ATOM      4  O   UNL     1       3.246   1.462   2.460  1.00  0.00    -0.481 OA
ATOM      5  H   UNL     1       2.541   0.737   2.619  1.00  0.00     0.296 HD
ENDBRANCH   2   4
ENDBRANCH   1   2
BRANCH   1   6
ATOM      6  C   UNL     1       6.493   1.759   0.766  1.00  0.00     0.047 C 
BRANCH   6   7
ATOM      7  C   UNL     1       7.112   1.013  -0.328  1.00  0.00    -0.047 A 
ATOM      8  C   UNL     1       6.391   0.087  -1.044  1.00  0.00     0.004 A 
ATOM      9  C   UNL     1       8.431   1.249  -0.639  1.00  0.00     0.004 A 
ATOM     10  C   UNL     1       7.046  -0.588  -2.077  1.00  0.00     0.000 A 
ATOM     11  C   UNL     1       9.078   0.581  -1.660  1.00  0.00     0.000 A 
ATOM     12  C   UNL     1       8.362  -0.350  -2.382  1.00  0.00     0.000 A 
ENDBRANCH   6   7
ENDBRANCH   1   6
TORSDOF 4
ENDMDL
MODEL 4
REMARK VINA RESULT:      -6.6      1.998      2.746
REMARK SMILES O=C(O)CCc1ccccc1
REMARK SMILES IDX 4 1 2 2 1 3 3 4 5 6 6 7 7 8 11 9 8 10 10 11 9 12
REMARK H PARENT 3 5
REMARK Flexibility Score: inf
ROOT
ATOM      1  C   UNL     1       7.837  -2.310   0.827  1.00  0.00     0.127 C 
ENDROOT
BRANCH   1   2
ATOM      2  C   UNL     1       8.732  -3.384   0.334  1.00  0.00     0.303 C 
ATOM      3  O   UNL     1       9.641  -3.858   1.059  1.00  0.00    -0.252 OA
BRANCH   2   4
ATOM      4  O   UNL     1       8.590  -3.895  -0.946  1.00  0.00    -0.481 OA
ATOM      5  H   UNL     1       9.030  -3.408  -1.732  1.00  0.00     0.296 HD
ENDBRANCH   2   4
ENDBRANCH   1   2
BRANCH   1   6
ATOM      6  C   UNL     1       7.450  -1.449  -0.337  1.00  0.00     0.047 C 
BRANCH   6   7
ATOM      7  C   UNL     1       6.597  -0.317   0.020  1.00  0.00    -0.047 A 
ATOM      8  C   UNL     1       6.327   0.675  -0.894  1.00  0.00     0.004 A 
ATOM      9  C   UNL     1       6.062  -0.252   1.286  1.00  0.00     0.004 A 
ATOM     10  C   UNL     1       5.504   1.727  -0.485  1.00  0.00     0.000 A 
ATOM     11  C   UNL     1       5.249   0.789   1.689  1.00  0.00     0.000 A 
ATOM     12  C   UNL     1       4.974   1.787   0.779  1.00  0.00     0.000 A 
ENDBRANCH   6   7
ENDBRANCH   1   6
TORSDOF 4
ENDMDL
MODEL 5
REMARK VINA RESULT:      -6.6      3.690      4.925
REMARK SMILES O=C(O)CCc1ccccc1
REMARK SMILES IDX 4 1 2 2 1 3 3 4 5 6 6 7 7 8 11 9 8 10 10 11 9 12
REMARK H PARENT 3 5
REMARK Flexibility Score: inf
ROOT
ATOM      1  C   UNL     1       5.354   2.922   0.078  1.00  0.00     0.127 C 
ENDROOT
BRANCH   1   2
ATOM      2  C   UNL     1       6.298   3.770   0.843  1.00  0.00     0.303 C 
ATOM      3  O   UNL     1       6.842   4.773   0.319  1.00  0.00    -0.252 OA
BRANCH   2   4
ATOM      4  O   UNL     1       6.606   3.479   2.162  1.00  0.00    -0.481 OA
ATOM      5  H   UNL     1       6.125   3.983   2.912  1.00  0.00     0.296 HD
ENDBRANCH   2   4
ENDBRANCH   1   2
BRANCH   1   6
ATOM      6  C   UNL     1       5.240   1.599   0.773  1.00  0.00     0.047 C 
BRANCH   6   7
ATOM      7  C   UNL     1       6.035   0.536   0.160  1.00  0.00    -0.047 A 
ATOM      8  C   UNL     1       6.479  -0.530   0.908  1.00  0.00     0.004 A 
ATOM      9  C   UNL     1       6.335   0.609  -1.180  1.00  0.00     0.004 A 
ATOM     10  C   UNL     1       7.232  -1.510   0.257  1.00  0.00     0.000 A 
ATOM     11  C   UNL     1       7.080  -0.360  -1.822  1.00  0.00     0.000 A 
ATOM     12  C   UNL     1       7.529  -1.431  -1.080  1.00  0.00     0.000 A 
ENDBRANCH   6   7
ENDBRANCH   1   6
TORSDOF 4
ENDMDL
