@<TRIPOS>MOLECULE
/home/cewinharhar/GITHUB/reincatalyze/data/processed/docking_pred/2023-Apr-26-1657_maxeplen10_maxtrainstep1000_exh32_gamma099_lrac9e-4_lrcr1e-3/5f00cdda1ab61f28c1ea6d7129614616e9231d70_ligand_2.pdbqt
 12 12 0 0 0
SMALL
GASTEIGER

@<TRIPOS>ATOM
      1  C          5.3540    2.9220    0.0780 C.3     1  UNL1        0.1270
      2  C          6.2980    3.7700    0.8430 C.2     1  UNL1        0.3030
      3  O          6.8420    4.7730    0.3190 O.2     1  UNL1       -0.2520
      4  O          6.6060    3.4790    2.1620 O.3     1  UNL1       -0.4810
      5  H          6.1250    3.9830    2.9120 H       1  UNL1        0.2960
      6  C          5.2400    1.5990    0.7730 C.3     1  UNL1        0.0470
      7  C          6.0350    0.5360    0.1600 C.2     1  UNL1       -0.0470
      8  C          6.4790   -0.5300    0.9080 C.2     1  UNL1        0.0040
      9  C          6.3350    0.6090   -1.1800 C.2     1  UNL1        0.0040
     10  C          7.2320   -1.5100    0.2570 C.2     1  UNL1        0.0000
     11  C          7.0800   -0.3600   -1.8220 C.2     1  UNL1        0.0000
     12  C          7.5290   -1.4310   -1.0800 C.2     1  UNL1        0.0000
@<TRIPOS>BOND
     1    11     9    1
     2    11    12    2
     3     9     7    2
     4    12    10    1
     5     1     6    1
     6     1     2    1
     7     7     6    1
     8     7     8    1
     9    10     8    2
    10     3     2    2
    11     2     4    1
    12     4     5    1
