@<TRIPOS>MOLECULE
/home/cewinharhar/GITHUB/reincatalyze/data/processed/docking_pred/2023-Apr-26-1657_maxeplen10_maxtrainstep1000_exh32_gamma099_lrac9e-4_lrcr1e-3/5f00cdda1ab61f28c1ea6d7129614616e9231d70_ligand_2.pdbqt
 12 12 0 0 0
SMALL
GASTEIGER

@<TRIPOS>ATOM
      1  C          8.4310   -0.6170   -2.1500 C.3     1  UNL1        0.1270
      2  C          8.4710   -1.8930   -2.9040 C.2     1  UNL1        0.3030
      3  O          9.5520   -2.5030   -3.0930 O.2     1  UNL1       -0.2520
      4  O          7.3110   -2.4480   -3.4210 O.3     1  UNL1       -0.4810
      5  H          6.9020   -2.0520   -4.2710 H       1  UNL1        0.2960
      6  C          7.0130   -0.1330   -2.1190 C.3     1  UNL1        0.0470
      7  C          6.4720    0.0340   -0.7710 C.2     1  UNL1       -0.0470
      8  C          6.5990   -0.9640    0.1670 C.2     1  UNL1        0.0040
      9  C          5.8330    1.2080   -0.4450 C.2     1  UNL1        0.0040
     10  C          6.0590   -0.7350    1.4350 C.2     1  UNL1        0.0000
     11  C          5.2990    1.4320    0.8080 C.2     1  UNL1        0.0000
     12  C          5.4210    0.4370    1.7540 C.2     1  UNL1        0.0000
@<TRIPOS>BOND
     1     5     4    1
     2     4     2    1
     3     3     2    2
     4     2     1    1
     5     1     6    1
     6     6     7    1
     7     7     9    2
     8     7     8    1
     9     9    11    1
    10     8    10    2
    11    11    12    2
    12    10    12    1
