@<TRIPOS>MOLECULE
/home/cewinharhar/GITHUB/reincatalyze/data/processed/docking_pred/2023-Apr-26-1657_maxeplen10_maxtrainstep1000_exh32_gamma099_lrac9e-4_lrcr1e-3/5f00cdda1ab61f28c1ea6d7129614616e9231d70_ligand_2.pdbqt
 12 12 0 0 0
SMALL
GASTEIGER

@<TRIPOS>ATOM
      1  C          4.9960    1.7890    0.7130 C.3     1  UNL1        0.1270
      2  C          4.4730    1.1090    1.9210 C.2     1  UNL1        0.3030
      3  O          5.1250    0.1970    2.4880 O.2     1  UNL1       -0.2520
      4  O          3.2460    1.4620    2.4600 O.3     1  UNL1       -0.4810
      5  H          2.5410    0.7370    2.6190 H       1  UNL1        0.2960
      6  C          6.4930    1.7590    0.7660 C.3     1  UNL1        0.0470
      7  C          7.1120    1.0130   -0.3280 C.2     1  UNL1       -0.0470
      8  C          6.3910    0.0870   -1.0440 C.2     1  UNL1        0.0040
      9  C          8.4310    1.2490   -0.6390 C.2     1  UNL1        0.0040
     10  C          7.0460   -0.5880   -2.0770 C.2     1  UNL1        0.0000
     11  C          9.0780    0.5810   -1.6600 C.2     1  UNL1        0.0000
     12  C          8.3620   -0.3500   -2.3820 C.2     1  UNL1        0.0000
@<TRIPOS>BOND
     1    12    10    2
     2    12    11    1
     3    10     8    1
     4    11     9    2
     5     8     7    2
     6     9     7    1
     7     7     6    1
     8     1     6    1
     9     1     2    1
    10     2     4    1
    11     2     3    2
    12     4     5    1
