@<TRIPOS>MOLECULE
/home/cewinharhar/GITHUB/reincatalyze/data/processed/docking_pred/2023-Apr-26-1657_maxeplen10_maxtrainstep1000_exh32_gamma099_lrac9e-4_lrcr1e-3/5f00cdda1ab61f28c1ea6d7129614616e9231d70_ligand_2.pdbqt
 12 12 0 0 0
SMALL
GASTEIGER

@<TRIPOS>ATOM
      1  C          7.8370   -2.3100    0.8270 C.3     1  UNL1        0.1270
      2  C          8.7320   -3.3840    0.3340 C.2     1  UNL1        0.3030
      3  O          9.6410   -3.8580    1.0590 O.2     1  UNL1       -0.2520
      4  O          8.5900   -3.8950   -0.9460 O.3     1  UNL1       -0.4810
      5  H          9.0300   -3.4080   -1.7320 H       1  UNL1        0.2960
      6  C          7.4500   -1.4490   -0.3370 C.3     1  UNL1        0.0470
      7  C          6.5970   -0.3170    0.0200 C.2     1  UNL1       -0.0470
      8  C          6.3270    0.6750   -0.8940 C.2     1  UNL1        0.0040
      9  C          6.0620   -0.2520    1.2860 C.2     1  UNL1        0.0040
     10  C          5.5040    1.7270   -0.4850 C.2     1  UNL1        0.0000
     11  C          5.2490    0.7890    1.6890 C.2     1  UNL1        0.0000
     12  C          4.9740    1.7870    0.7790 C.2     1  UNL1        0.0000
@<TRIPOS>BOND
     1     5     4    1
     2     4     2    1
     3     8    10    1
     4     8     7    2
     5    10    12    2
     6     6     7    1
     7     6     1    1
     8     7     9    1
     9     2     1    1
    10     2     3    2
    11    12    11    1
    12     9    11    2
