@<TRIPOS>MOLECULE
/home/cewinharhar/GITHUB/reincatalyze/data/processed/docking_pred/2023-Apr-26-1657_maxeplen10_maxtrainstep1000_exh32_gamma099_lrac9e-4_lrcr1e-3/5f7ce1df4e505eeb6c5bd28a98530cf3f623dbf2_ligand_2.pdbqt
 12 12 0 0 0
SMALL
GASTEIGER

@<TRIPOS>ATOM
      1  C          8.4660   -0.5990   -2.1740 C.3     1  UNL1        0.1270
      2  C          8.4890   -1.8880   -2.9050 C.2     1  UNL1        0.3030
      3  O          9.5560   -2.5350   -3.0490 O.2     1  UNL1       -0.2520
      4  O          7.3300   -2.4160   -3.4510 O.3     1  UNL1       -0.4810
      5  H          6.4920   -1.8310   -3.5070 H       1  UNL1        0.2960
      6  C          7.0550   -0.0960   -2.1520 C.3     1  UNL1        0.0470
      7  C          6.4980    0.0530   -0.8080 C.2     1  UNL1       -0.0470
      8  C          6.6320   -0.9500    0.1240 C.2     1  UNL1        0.0040
      9  C          5.8360    1.2140   -0.4810 C.2     1  UNL1        0.0040
     10  C          6.0770   -0.7380    1.3880 C.2     1  UNL1        0.0000
     11  C          5.2870    1.4210    0.7690 C.2     1  UNL1        0.0000
     12  C          5.4160    0.4210    1.7080 C.2     1  UNL1        0.0000
@<TRIPOS>BOND
     1     5     4    1
     2     4     2    1
     3     3     2    2
     4     2     1    1
     5     1     6    1
     6     6     7    1
     7     7     9    2
     8     7     8    1
     9     9    11    1
    10     8    10    2
    11    11    12    2
    12    10    12    1
