@<TRIPOS>MOLECULE
/home/cewinharhar/GITHUB/reincatalyze/data/processed/docking_pred/2023-Apr-26-1657_maxeplen10_maxtrainstep1000_exh32_gamma099_lrac9e-4_lrcr1e-3/5f7ce1df4e505eeb6c5bd28a98530cf3f623dbf2_ligand_2.pdbqt
 12 12 0 0 0
SMALL
GASTEIGER

@<TRIPOS>ATOM
      1  C          5.5490    3.0030   -0.0690 C.3     1  UNL1        0.1270
      2  C          6.3300    3.8900    0.8250 C.2     1  UNL1        0.3030
      3  O          7.3560    4.4870    0.4150 O.2     1  UNL1       -0.2520
      4  O          5.9480    4.0850    2.1430 O.3     1  UNL1       -0.4810
      5  H          5.1060    3.6200    2.4940 H       1  UNL1        0.2960
      6  C          4.9020    1.9420    0.7680 C.3     1  UNL1        0.0470
      7  C          5.6710    0.7020    0.8530 C.2     1  UNL1       -0.0470
      8  C          6.3260    0.2030   -0.2490 C.2     1  UNL1        0.0040
      9  C          5.7370    0.0340    2.0540 C.2     1  UNL1        0.0040
     10  C          7.0420   -0.9860   -0.0940 C.2     1  UNL1        0.0000
     11  C          6.4450   -1.1420    2.2050 C.2     1  UNL1        0.0000
     12  C          7.1030   -1.6490    1.1060 C.2     1  UNL1        0.0000
@<TRIPOS>BOND
     1     8    10    1
     2     8     7    2
     3    10    12    2
     4     1     6    1
     5     1     2    1
     6     3     2    2
     7     6     7    1
     8     2     4    1
     9     7     9    1
    10    12    11    1
    11     9    11    2
    12     4     5    1
