@<TRIPOS>MOLECULE
/home/cewinharhar/GITHUB/reincatalyze/data/processed/docking_pred/2023-Apr-26-1657_maxeplen10_maxtrainstep1000_exh32_gamma099_lrac9e-4_lrcr1e-3/5f7ce1df4e505eeb6c5bd28a98530cf3f623dbf2_ligand_2.pdbqt
 12 12 0 0 0
SMALL
GASTEIGER

@<TRIPOS>ATOM
      1  C          5.0570    1.7340    0.6870 C.3     1  UNL1        0.1270
      2  C          4.5930    1.0430    1.9130 C.2     1  UNL1        0.3030
      3  O          5.3010    0.1730    2.4770 O.2     1  UNL1       -0.2520
      4  O          3.3600    1.3400    2.4720 O.3     1  UNL1       -0.4810
      5  H          3.2490    2.2050    3.0090 H       1  UNL1        0.2960
      6  C          6.5540    1.7770    0.7090 C.3     1  UNL1        0.0470
      7  C          7.1870    1.0160   -0.3670 C.2     1  UNL1       -0.0470
      8  C          8.5180    1.1950   -0.6670 C.2     1  UNL1        0.0040
      9  C          6.4360    0.1120   -1.0810 C.2     1  UNL1        0.0040
     10  C          9.0560    0.4340   -1.7060 C.2     1  UNL1        0.0000
     11  C          6.9700   -0.6400   -2.1090 C.2     1  UNL1        0.0000
     12  C          8.3020   -0.4660   -2.4160 C.2     1  UNL1        0.0000
@<TRIPOS>BOND
     1    12    11    2
     2    12    10    1
     3    11     9    1
     4    10     8    2
     5     9     7    2
     6     8     7    1
     7     7     6    1
     8     1     6    1
     9     1     2    1
    10     2     4    1
    11     2     3    2
    12     4     5    1
