@<TRIPOS>MOLECULE
/home/cewinharhar/GITHUB/reincatalyze/data/processed/docking_pred/2023-Apr-26-1657_maxeplen10_maxtrainstep1000_exh32_gamma099_lrac9e-4_lrcr1e-3/5f7ce1df4e505eeb6c5bd28a98530cf3f623dbf2_ligand_2.pdbqt
 12 12 0 0 0
SMALL
GASTEIGER

@<TRIPOS>ATOM
      1  C          8.3960   -0.6200   -2.1210 C.3     1  UNL1        0.1270
      2  C          8.3700   -1.8830   -2.8970 C.2     1  UNL1        0.3030
      3  O          7.2850   -2.4080   -3.2490 O.2     1  UNL1       -0.2520
      4  O          9.5470   -2.5200   -3.2560 O.3     1  UNL1       -0.4810
      5  H          9.7320   -3.4650   -2.9070 H       1  UNL1        0.2960
      6  C          7.0060   -0.0600   -2.0870 C.3     1  UNL1        0.0470
      7  C          6.4590    0.0910   -0.7400 C.2     1  UNL1       -0.0470
      8  C          5.8200    1.2500   -0.3670 C.2     1  UNL1        0.0040
      9  C          6.5880   -0.9440    0.1570 C.2     1  UNL1        0.0040
     10  C          5.3200    1.3240    0.9360 C.2     1  UNL1        0.0000
     11  C          6.0940   -0.8690    1.4440 C.2     1  UNL1        0.0000
     12  C          5.4530    0.2890    1.8260 C.2     1  UNL1        0.0000
@<TRIPOS>BOND
     1     4     5    1
     2     4     2    1
     3     3     2    2
     4     2     1    1
     5     1     6    1
     6     6     7    1
     7     7     8    2
     8     7     9    1
     9     8    10    1
    10     9    11    2
    11    10    12    2
    12    11    12    1
