MODEL 1
REMARK VINA RESULT:      -7.3      0.000      0.000
REMARK SMILES O=C(O)CCc1ccccc1
REMARK SMILES IDX 4 1 2 2 1 3 3 4 5 6 6 7 7 8 11 9 8 10 10 11 9 12
REMARK H PARENT 3 5
REMARK Flexibility Score: inf
ROOT
ATOM      1  C   UNL     1       8.466  -0.599  -2.174  1.00  0.00     0.127 C 
ENDROOT
BRANCH   1   2
ATOM      2  C   UNL     1       8.489  -1.888  -2.905  1.00  0.00     0.303 C 
ATOM      3  O   UNL     1       9.556  -2.535  -3.049  1.00  0.00    -0.252 OA
BRANCH   2   4
ATOM      4  O   UNL     1       7.330  -2.416  -3.451  1.00  0.00    -0.481 OA
ATOM      5  H   UNL     1       6.492  -1.831  -3.507  1.00  0.00     0.296 HD
ENDBRANCH   2   4
ENDBRANCH   1   2
BRANCH   1   6
ATOM      6  C   UNL     1       7.055  -0.096  -2.152  1.00  0.00     0.047 C 
BRANCH   6   7
ATOM      7  C   UNL     1       6.498   0.053  -0.808  1.00  0.00    -0.047 A 
ATOM      8  C   UNL     1       6.632  -0.950   0.124  1.00  0.00     0.004 A 
ATOM      9  C   UNL     1       5.836   1.214  -0.481  1.00  0.00     0.004 A 
ATOM     10  C   UNL     1       6.077  -0.738   1.388  1.00  0.00     0.000 A 
ATOM     11  C   UNL     1       5.287   1.421   0.769  1.00  0.00     0.000 A 
ATOM     12  C   UNL     1       5.416   0.421   1.708  1.00  0.00     0.000 A 
ENDBRANCH   6   7
ENDBRANCH   1   6
TORSDOF 4
ENDMDL
MODEL 2
REMARK VINA RESULT:      -7.2      0.145      1.732
REMARK SMILES O=C(O)CCc1ccccc1
REMARK SMILES IDX 4 1 2 2 1 3 3 4 5 6 6 7 7 8 11 9 8 10 10 11 9 12
REMARK H PARENT 3 5
REMARK Flexibility Score: inf
ROOT
ATOM      1  C   UNL     1       8.396  -0.620  -2.121  1.00  0.00     0.127 C 
ENDROOT
BRANCH   1   2
ATOM      2  C   UNL     1       8.370  -1.883  -2.897  1.00  0.00     0.303 C 
ATOM      3  O   UNL     1       7.285  -2.408  -3.249  1.00  0.00    -0.252 OA
BRANCH   2   4
ATOM      4  O   UNL     1       9.547  -2.520  -3.256  1.00  0.00    -0.481 OA
ATOM      5  H   UNL     1       9.732  -3.465  -2.907  1.00  0.00     0.296 HD
ENDBRANCH   2   4
ENDBRANCH   1   2
BRANCH   1   6
ATOM      6  C   UNL     1       7.006  -0.060  -2.087  1.00  0.00     0.047 C 
BRANCH   6   7
ATOM      7  C   UNL     1       6.459   0.091  -0.740  1.00  0.00    -0.047 A 
ATOM      8  C   UNL     1       5.820   1.250  -0.367  1.00  0.00     0.004 A 
ATOM      9  C   UNL     1       6.588  -0.944   0.157  1.00  0.00     0.004 A 
ATOM     10  C   UNL     1       5.320   1.324   0.936  1.00  0.00     0.000 A 
ATOM     11  C   UNL     1       6.094  -0.869   1.444  1.00  0.00     0.000 A 
ATOM     12  C   UNL     1       5.453   0.289   1.826  1.00  0.00     0.000 A 
ENDBRANCH   6   7
ENDBRANCH   1   6
TORSDOF 4
ENDMDL
MODEL 3
REMARK VINA RESULT:      -6.7      3.344      5.034
REMARK SMILES O=C(O)CCc1ccccc1
REMARK SMILES IDX 4 1 2 2 1 3 3 4 5 6 6 7 7 8 11 9 8 10 10 11 9 12
REMARK H PARENT 3 5
REMARK Flexibility Score: inf
ROOT
ATOM      1  C   UNL     1       5.057   1.734   0.687  1.00  0.00     0.127 C 
ENDROOT
BRANCH   1   2
ATOM      2  C   UNL     1       4.593   1.043   1.913  1.00  0.00     0.303 C 
ATOM      3  O   UNL     1       5.301   0.173   2.477  1.00  0.00    -0.252 OA
BRANCH   2   4
ATOM      4  O   UNL     1       3.360   1.340   2.472  1.00  0.00    -0.481 OA
ATOM      5  H   UNL     1       3.249   2.205   3.009  1.00  0.00     0.296 HD
ENDBRANCH   2   4
ENDBRANCH   1   2
BRANCH   1   6
ATOM      6  C   UNL     1       6.554   1.777   0.709  1.00  0.00     0.047 C 
BRANCH   6   7
ATOM      7  C   UNL     1       7.187   1.016  -0.367  1.00  0.00    -0.047 A 
ATOM      8  C   UNL     1       8.518   1.195  -0.667  1.00  0.00     0.004 A 
ATOM      9  C   UNL     1       6.436   0.112  -1.081  1.00  0.00     0.004 A 
ATOM     10  C   UNL     1       9.056   0.434  -1.706  1.00  0.00     0.000 A 
ATOM     11  C   UNL     1       6.970  -0.640  -2.109  1.00  0.00     0.000 A 
ATOM     12  C   UNL     1       8.302  -0.466  -2.416  1.00  0.00     0.000 A 
ENDBRANCH   6   7
ENDBRANCH   1   6
TORSDOF 4
ENDMDL
MODEL 4
REMARK VINA RESULT:      -6.5      2.088      2.369
REMARK SMILES O=C(O)CCc1ccccc1
REMARK SMILES IDX 4 1 2 2 1 3 3 4 5 6 6 7 7 8 11 9 8 10 10 11 9 12
REMARK H PARENT 3 5
REMARK Flexibility Score: inf
ROOT
ATOM      1  C   UNL     1       8.509   0.693  -1.637  1.00  0.00     0.127 C 
ENDROOT
BRANCH   1   2
ATOM      2  C   UNL     1       9.663   0.292  -0.799  1.00  0.00     0.303 C 
ATOM      3  O   UNL     1       9.523  -0.501   0.166  1.00  0.00    -0.252 OA
BRANCH   2   4
ATOM      4  O   UNL     1      10.933   0.783  -1.057  1.00  0.00    -0.481 OA
ATOM      5  H   UNL     1      11.349   1.460  -0.412  1.00  0.00     0.296 HD
ENDBRANCH   2   4
ENDBRANCH   1   2
BRANCH   1   6
ATOM      6  C   UNL     1       7.360  -0.216  -1.321  1.00  0.00     0.047 C 
BRANCH   6   7
ATOM      7  C   UNL     1       6.451   0.307  -0.302  1.00  0.00    -0.047 A 
ATOM      8  C   UNL     1       6.214  -0.396   0.856  1.00  0.00     0.004 A 
ATOM      9  C   UNL     1       5.832   1.517  -0.511  1.00  0.00     0.004 A 
ATOM     10  C   UNL     1       5.336   0.163   1.787  1.00  0.00     0.000 A 
ATOM     11  C   UNL     1       4.963   2.069   0.409  1.00  0.00     0.000 A 
ATOM     12  C   UNL     1       4.720   1.371   1.572  1.00  0.00     0.000 A 
ENDBRANCH   6   7
ENDBRANCH   1   6
TORSDOF 4
ENDMDL
MODEL 5
REMARK VINA RESULT:      -6.5      3.741      4.961
REMARK SMILES O=C(O)CCc1ccccc1
REMARK SMILES IDX 4 1 2 2 1 3 3 4 5 6 6 7 7 8 11 9 8 10 10 11 9 12
REMARK H PARENT 3 5
REMARK Flexibility Score: inf
ROOT
ATOM      1  C   UNL     1       5.549   3.003  -0.069  1.00  0.00     0.127 C 
ENDROOT
BRANCH   1   2
ATOM      2  C   UNL     1       6.330   3.890   0.825  1.00  0.00     0.303 C 
ATOM      3  O   UNL     1       7.356   4.487   0.415  1.00  0.00    -0.252 OA
BRANCH   2   4
ATOM      4  O   UNL     1       5.948   4.085   2.143  1.00  0.00    -0.481 OA
ATOM      5  H   UNL     1       5.106   3.620   2.494  1.00  0.00     0.296 HD
ENDBRANCH   2   4
ENDBRANCH   1   2
BRANCH   1   6
ATOM      6  C   UNL     1       4.902   1.942   0.768  1.00  0.00     0.047 C 
BRANCH   6   7
ATOM      7  C   UNL     1       5.671   0.702   0.853  1.00  0.00    -0.047 A 
ATOM      8  C   UNL     1       6.326   0.203  -0.249  1.00  0.00     0.004 A 
ATOM      9  C   UNL     1       5.737   0.034   2.054  1.00  0.00     0.004 A 
ATOM     10  C   UNL     1       7.042  -0.986  -0.094  1.00  0.00     0.000 A 
ATOM     11  C   UNL     1       6.445  -1.142   2.205  1.00  0.00     0.000 A 
ATOM     12  C   UNL     1       7.103  -1.649   1.106  1.00  0.00     0.000 A 
ENDBRANCH   6   7
ENDBRANCH   1   6
TORSDOF 4
ENDMDL
