@<TRIPOS>MOLECULE
/home/cewinharhar/GITHUB/reincatalyze/data/processed/docking_pred/2023-Apr-26-1657_maxeplen10_maxtrainstep1000_exh32_gamma099_lrac9e-4_lrcr1e-3/5f7ce1df4e505eeb6c5bd28a98530cf3f623dbf2_ligand_2.pdbqt
 12 12 0 0 0
SMALL
GASTEIGER

@<TRIPOS>ATOM
      1  C          8.5090    0.6930   -1.6370 C.3     1  UNL1        0.1270
      2  C          9.6630    0.2920   -0.7990 C.2     1  UNL1        0.3030
      3  O          9.5230   -0.5010    0.1660 O.2     1  UNL1       -0.2520
      4  O         10.9330    0.7830   -1.0570 O.3     1  UNL1       -0.4810
      5  H         11.3490    1.4600   -0.4120 H       1  UNL1        0.2960
      6  C          7.3600   -0.2160   -1.3210 C.3     1  UNL1        0.0470
      7  C          6.4510    0.3070   -0.3020 C.2     1  UNL1       -0.0470
      8  C          6.2140   -0.3960    0.8560 C.2     1  UNL1        0.0040
      9  C          5.8320    1.5170   -0.5110 C.2     1  UNL1        0.0040
     10  C          5.3360    0.1630    1.7870 C.2     1  UNL1        0.0000
     11  C          4.9630    2.0690    0.4090 C.2     1  UNL1        0.0000
     12  C          4.7200    1.3710    1.5720 C.2     1  UNL1        0.0000
@<TRIPOS>BOND
     1     1     6    1
     2     1     2    1
     3     6     7    1
     4     4     2    1
     5     4     5    1
     6     2     3    2
     7     9     7    2
     8     9    11    1
     9     7     8    1
    10    11    12    2
    11     8    10    2
    12    12    10    1
