@<TRIPOS>MOLECULE
/home/cewinharhar/GITHUB/reincatalyze/data/processed/docking_pred/2023-Apr-26-1657_maxeplen10_maxtrainstep1000_exh32_gamma099_lrac9e-4_lrcr1e-3/6047b5c71b47d2a809e14c46b0582b8ae3076bc9_ligand_2.pdbqt
 12 12 0 0 0
SMALL
GASTEIGER

@<TRIPOS>ATOM
      1  C          8.0520   -5.9740   10.7200 C.3     1  UNL1        0.1270
      2  C          8.2330   -4.6160   11.2850 C.2     1  UNL1        0.3030
      3  O          7.4510   -3.6790   10.9900 O.2     1  UNL1       -0.2520
      4  O          9.2740   -4.3430   12.1580 O.3     1  UNL1       -0.4810
      5  H          9.1930   -4.6250   13.1380 H       1  UNL1        0.2960
      6  C          8.1470   -6.9660   11.8390 C.3     1  UNL1        0.0470
      7  C          9.1140   -8.0370   11.6040 C.2     1  UNL1       -0.0470
      8  C         10.0750   -7.9140   10.6280 C.2     1  UNL1        0.0040
      9  C          9.0560   -9.1750   12.3750 C.2     1  UNL1        0.0040
     10  C         10.9670   -8.9760   10.4590 C.2     1  UNL1        0.0000
     11  C          9.9390  -10.2230   12.2070 C.2     1  UNL1        0.0000
     12  C         10.9040  -10.1090   11.2310 C.2     1  UNL1        0.0000
@<TRIPOS>BOND
     1    10     8    1
     2    10    12    2
     3     8     7    2
     4     1     2    1
     5     1     6    1
     6     3     2    2
     7    12    11    1
     8     2     4    1
     9     7     6    1
    10     7     9    1
    11     4     5    1
    12    11     9    2
