@<TRIPOS>MOLECULE
/home/cewinharhar/GITHUB/reincatalyze/data/processed/docking_pred/2023-Apr-26-1657_maxeplen10_maxtrainstep1000_exh32_gamma099_lrac9e-4_lrcr1e-3/6047b5c71b47d2a809e14c46b0582b8ae3076bc9_ligand_2.pdbqt
 12 12 0 0 0
SMALL
GASTEIGER

@<TRIPOS>ATOM
      1  C          6.5020   -0.5690    2.7700 C.3     1  UNL1        0.1270
      2  C          7.1810   -1.5520    1.8930 C.2     1  UNL1        0.3030
      3  O          8.3350   -1.3360    1.4460 O.2     1  UNL1       -0.2520
      4  O          6.5590   -2.7390    1.5420 O.3     1  UNL1       -0.4810
      5  H          6.1930   -2.8500    0.5930 H       1  UNL1        0.2960
      6  C          5.3300   -0.0050    2.0260 C.3     1  UNL1        0.0470
      7  C          5.5900    1.2920    1.4040 C.2     1  UNL1       -0.0470
      8  C          6.5810    2.1170    1.8830 C.2     1  UNL1        0.0040
      9  C          4.8310    1.6830    0.3250 C.2     1  UNL1        0.0040
     10  C          6.7740    3.3410    1.2390 C.2     1  UNL1        0.0000
     11  C          5.0230    2.8940   -0.3100 C.2     1  UNL1        0.0000
     12  C          6.0130    3.7260    0.1640 C.2     1  UNL1        0.0000
@<TRIPOS>BOND
     1    11    12    2
     2    11     9    1
     3    12    10    1
     4     9     7    2
     5     5     4    1
     6    10     8    2
     7     7     8    1
     8     7     6    1
     9     3     2    2
    10     4     2    1
    11     2     1    1
    12     6     1    1
