MODEL 1
REMARK VINA RESULT:      -5.6      0.000      0.000
REMARK SMILES O=C(O)CCc1ccccc1
REMARK SMILES IDX 4 1 2 2 1 3 3 4 5 6 6 7 7 8 11 9 8 10 10 11 9 12
REMARK H PARENT 3 5
REMARK Flexibility Score: inf
ROOT
ATOM      1  C   UNL     1       6.271  -0.569   2.722  1.00  0.00     0.127 C 
ENDROOT
BRANCH   1   2
ATOM      2  C   UNL     1       7.096  -1.492   1.907  1.00  0.00     0.303 C 
ATOM      3  O   UNL     1       8.257  -1.180   1.546  1.00  0.00    -0.252 OA
BRANCH   2   4
ATOM      4  O   UNL     1       6.605  -2.728   1.519  1.00  0.00    -0.481 OA
ATOM      5  H   UNL     1       5.601  -2.913   1.590  1.00  0.00     0.296 HD
ENDBRANCH   2   4
ENDBRANCH   1   2
BRANCH   1   6
ATOM      6  C   UNL     1       5.198   0.002   1.846  1.00  0.00     0.047 C 
BRANCH   6   7
ATOM      7  C   UNL     1       5.523   1.314   1.289  1.00  0.00    -0.047 A 
ATOM      8  C   UNL     1       4.867   1.787   0.176  1.00  0.00     0.004 A 
ATOM      9  C   UNL     1       6.494   2.079   1.893  1.00  0.00     0.004 A 
ATOM     10  C   UNL     1       5.228   3.049  -0.302  1.00  0.00     0.000 A 
ATOM     11  C   UNL     1       6.849   3.326   1.419  1.00  0.00     0.000 A 
ATOM     12  C   UNL     1       6.198   3.807   0.304  1.00  0.00     0.000 A 
ENDBRANCH   6   7
ENDBRANCH   1   6
TORSDOF 4
ENDMDL
MODEL 2
REMARK VINA RESULT:      -5.5      0.187      1.444
REMARK SMILES O=C(O)CCc1ccccc1
REMARK SMILES IDX 4 1 2 2 1 3 3 4 5 6 6 7 7 8 11 9 8 10 10 11 9 12
REMARK H PARENT 3 5
REMARK Flexibility Score: inf
ROOT
ATOM      1  C   UNL     1       6.502  -0.569   2.770  1.00  0.00     0.127 C 
ENDROOT
BRANCH   1   2
ATOM      2  C   UNL     1       7.181  -1.552   1.893  1.00  0.00     0.303 C 
ATOM      3  O   UNL     1       8.335  -1.336   1.446  1.00  0.00    -0.252 OA
BRANCH   2   4
ATOM      4  O   UNL     1       6.559  -2.739   1.542  1.00  0.00    -0.481 OA
ATOM      5  H   UNL     1       6.193  -2.850   0.593  1.00  0.00     0.296 HD
ENDBRANCH   2   4
ENDBRANCH   1   2
BRANCH   1   6
ATOM      6  C   UNL     1       5.330  -0.005   2.026  1.00  0.00     0.047 C 
BRANCH   6   7
ATOM      7  C   UNL     1       5.590   1.292   1.404  1.00  0.00    -0.047 A 
ATOM      8  C   UNL     1       6.581   2.117   1.883  1.00  0.00     0.004 A 
ATOM      9  C   UNL     1       4.831   1.683   0.325  1.00  0.00     0.004 A 
ATOM     10  C   UNL     1       6.774   3.341   1.239  1.00  0.00     0.000 A 
ATOM     11  C   UNL     1       5.023   2.894  -0.310  1.00  0.00     0.000 A 
ATOM     12  C   UNL     1       6.013   3.726   0.164  1.00  0.00     0.000 A 
ENDBRANCH   6   7
ENDBRANCH   1   6
TORSDOF 4
ENDMDL
MODEL 3
REMARK VINA RESULT:      -3.8      2.924      4.708
REMARK SMILES O=C(O)CCc1ccccc1
REMARK SMILES IDX 4 1 2 2 1 3 3 4 5 6 6 7 7 8 11 9 8 10 10 11 9 12
REMARK H PARENT 3 5
REMARK Flexibility Score: inf
ROOT
ATOM      1  C   UNL     1       5.540   2.912   0.104  1.00  0.00     0.127 C 
ENDROOT
BRANCH   1   2
ATOM      2  C   UNL     1       6.190   4.051   0.793  1.00  0.00     0.303 C 
ATOM      3  O   UNL     1       7.031   4.775   0.204  1.00  0.00    -0.252 OA
BRANCH   2   4
ATOM      4  O   UNL     1       5.887   4.350   2.111  1.00  0.00    -0.481 OA
ATOM      5  H   UNL     1       5.580   3.601   2.737  1.00  0.00     0.296 HD
ENDBRANCH   2   4
ENDBRANCH   1   2
BRANCH   1   6
ATOM      6  C   UNL     1       4.850   2.070   1.134  1.00  0.00     0.047 C 
BRANCH   6   7
ATOM      7  C   UNL     1       5.595   0.872   1.518  1.00  0.00    -0.047 A 
ATOM      8  C   UNL     1       6.859   0.970   2.050  1.00  0.00     0.004 A 
ATOM      9  C   UNL     1       5.015  -0.363   1.343  1.00  0.00     0.004 A 
ATOM     10  C   UNL     1       7.511  -0.216   2.395  1.00  0.00     0.000 A 
ATOM     11  C   UNL     1       5.661  -1.535   1.684  1.00  0.00     0.000 A 
ATOM     12  C   UNL     1       6.928  -1.446   2.217  1.00  0.00     0.000 A 
ENDBRANCH   6   7
ENDBRANCH   1   6
TORSDOF 4
ENDMDL
MODEL 4
REMARK VINA RESULT:      -3.7     11.730     14.109
REMARK SMILES O=C(O)CCc1ccccc1
REMARK SMILES IDX 4 1 2 2 1 3 3 4 5 6 6 7 7 8 11 9 8 10 10 11 9 12
REMARK H PARENT 3 5
REMARK Flexibility Score: inf
ROOT
ATOM      1  C   UNL     1       8.052  -5.974  10.720  1.00  0.00     0.127 C 
ENDROOT
BRANCH   1   2
ATOM      2  C   UNL     1       8.233  -4.616  11.285  1.00  0.00     0.303 C 
ATOM      3  O   UNL     1       7.451  -3.679  10.990  1.00  0.00    -0.252 OA
BRANCH   2   4
ATOM      4  O   UNL     1       9.274  -4.343  12.158  1.00  0.00    -0.481 OA
ATOM      5  H   UNL     1       9.193  -4.625  13.138  1.00  0.00     0.296 HD
ENDBRANCH   2   4
ENDBRANCH   1   2
BRANCH   1   6
ATOM      6  C   UNL     1       8.147  -6.966  11.839  1.00  0.00     0.047 C 
BRANCH   6   7
ATOM      7  C   UNL     1       9.114  -8.037  11.604  1.00  0.00    -0.047 A 
ATOM      8  C   UNL     1      10.075  -7.914  10.628  1.00  0.00     0.004 A 
ATOM      9  C   UNL     1       9.056  -9.175  12.375  1.00  0.00     0.004 A 
ATOM     10  C   UNL     1      10.967  -8.976  10.459  1.00  0.00     0.000 A 
ATOM     11  C   UNL     1       9.939 -10.223  12.207  1.00  0.00     0.000 A 
ATOM     12  C   UNL     1      10.904 -10.109  11.231  1.00  0.00     0.000 A 
ENDBRANCH   6   7
ENDBRANCH   1   6
TORSDOF 4
ENDMDL
MODEL 5
REMARK VINA RESULT:      -3.7     11.580     13.377
REMARK SMILES O=C(O)CCc1ccccc1
REMARK SMILES IDX 4 1 2 2 1 3 3 4 5 6 6 7 7 8 11 9 8 10 10 11 9 12
REMARK H PARENT 3 5
REMARK Flexibility Score: inf
ROOT
ATOM      1  C   UNL     1       7.999  -6.014  11.366  1.00  0.00     0.127 C 
ENDROOT
BRANCH   1   2
ATOM      2  C   UNL     1       7.953  -4.533  11.340  1.00  0.00     0.303 C 
ATOM      3  O   UNL     1       8.309  -3.853  12.334  1.00  0.00    -0.252 OA
BRANCH   2   4
ATOM      4  O   UNL     1       7.513  -3.856  10.214  1.00  0.00    -0.481 OA
ATOM      5  H   UNL     1       8.154  -3.224   9.727  1.00  0.00     0.296 HD
ENDBRANCH   2   4
ENDBRANCH   1   2
BRANCH   1   6
ATOM      6  C   UNL     1       8.824  -6.480  10.205  1.00  0.00     0.047 C 
BRANCH   6   7
ATOM      7  C   UNL     1      10.145  -6.982  10.578  1.00  0.00    -0.047 A 
ATOM      8  C   UNL     1      11.134  -6.120  10.993  1.00  0.00     0.004 A 
ATOM      9  C   UNL     1      10.392  -8.334  10.512  1.00  0.00     0.004 A 
ATOM     10  C   UNL     1      12.372  -6.670  11.334  1.00  0.00     0.000 A 
ATOM     11  C   UNL     1      11.617  -8.876  10.849  1.00  0.00     0.000 A 
ATOM     12  C   UNL     1      12.613  -8.019  11.265  1.00  0.00     0.000 A 
ENDBRANCH   6   7
ENDBRANCH   1   6
TORSDOF 4
ENDMDL
