@<TRIPOS>MOLECULE
/home/cewinharhar/GITHUB/reincatalyze/data/processed/docking_pred/2023-Apr-26-1657_maxeplen10_maxtrainstep1000_exh32_gamma099_lrac9e-4_lrcr1e-3/6047b5c71b47d2a809e14c46b0582b8ae3076bc9_ligand_2.pdbqt
 12 12 0 0 0
SMALL
GASTEIGER

@<TRIPOS>ATOM
      1  C          6.2710   -0.5690    2.7220 C.3     1  UNL1        0.1270
      2  C          7.0960   -1.4920    1.9070 C.2     1  UNL1        0.3030
      3  O          8.2570   -1.1800    1.5460 O.2     1  UNL1       -0.2520
      4  O          6.6050   -2.7280    1.5190 O.3     1  UNL1       -0.4810
      5  H          5.6010   -2.9130    1.5900 H       1  UNL1        0.2960
      6  C          5.1980    0.0020    1.8460 C.3     1  UNL1        0.0470
      7  C          5.5230    1.3140    1.2890 C.2     1  UNL1       -0.0470
      8  C          4.8670    1.7870    0.1760 C.2     1  UNL1        0.0040
      9  C          6.4940    2.0790    1.8930 C.2     1  UNL1        0.0040
     10  C          5.2280    3.0490   -0.3020 C.2     1  UNL1        0.0000
     11  C          6.8490    3.3260    1.4190 C.2     1  UNL1        0.0000
     12  C          6.1980    3.8070    0.3040 C.2     1  UNL1        0.0000
@<TRIPOS>BOND
     1    10     8    1
     2    10    12    2
     3     8     7    2
     4    12    11    1
     5     7     6    1
     6     7     9    1
     7    11     9    2
     8     4     5    1
     9     4     2    1
    10     3     2    2
    11     6     1    1
    12     2     1    1
