@<TRIPOS>MOLECULE
/home/cewinharhar/GITHUB/reincatalyze/data/processed/docking_pred/2023-Apr-26-1657_maxeplen10_maxtrainstep1000_exh32_gamma099_lrac9e-4_lrcr1e-3/6047b5c71b47d2a809e14c46b0582b8ae3076bc9_ligand_2.pdbqt
 12 12 0 0 0
SMALL
GASTEIGER

@<TRIPOS>ATOM
      1  C          7.9990   -6.0140   11.3660 C.3     1  UNL1        0.1270
      2  C          7.9530   -4.5330   11.3400 C.2     1  UNL1        0.3030
      3  O          8.3090   -3.8530   12.3340 O.2     1  UNL1       -0.2520
      4  O          7.5130   -3.8560   10.2140 O.3     1  UNL1       -0.4810
      5  H          8.1540   -3.2240    9.7270 H       1  UNL1        0.2960
      6  C          8.8240   -6.4800   10.2050 C.3     1  UNL1        0.0470
      7  C         10.1450   -6.9820   10.5780 C.2     1  UNL1       -0.0470
      8  C         11.1340   -6.1200   10.9930 C.2     1  UNL1        0.0040
      9  C         10.3920   -8.3340   10.5120 C.2     1  UNL1        0.0040
     10  C         12.3720   -6.6700   11.3340 C.2     1  UNL1        0.0000
     11  C         11.6170   -8.8760   10.8490 C.2     1  UNL1        0.0000
     12  C         12.6130   -8.0190   11.2650 C.2     1  UNL1        0.0000
@<TRIPOS>BOND
     1     5     4    1
     2     6     7    1
     3     6     1    1
     4     4     2    1
     5     9     7    2
     6     9    11    1
     7     7     8    1
     8    11    12    2
     9     8    10    2
    10    12    10    1
    11     2     1    1
    12     2     3    2
