@<TRIPOS>MOLECULE
/home/cewinharhar/GITHUB/reincatalyze/data/processed/docking_pred/2023-Apr-26-1657_maxeplen10_maxtrainstep1000_exh32_gamma099_lrac9e-4_lrcr1e-3/6047b5c71b47d2a809e14c46b0582b8ae3076bc9_ligand_2.pdbqt
 12 12 0 0 0
SMALL
GASTEIGER

@<TRIPOS>ATOM
      1  C          5.5400    2.9120    0.1040 C.3     1  UNL1        0.1270
      2  C          6.1900    4.0510    0.7930 C.2     1  UNL1        0.3030
      3  O          7.0310    4.7750    0.2040 O.2     1  UNL1       -0.2520
      4  O          5.8870    4.3500    2.1110 O.3     1  UNL1       -0.4810
      5  H          5.5800    3.6010    2.7370 H       1  UNL1        0.2960
      6  C          4.8500    2.0700    1.1340 C.3     1  UNL1        0.0470
      7  C          5.5950    0.8720    1.5180 C.2     1  UNL1       -0.0470
      8  C          6.8590    0.9700    2.0500 C.2     1  UNL1        0.0040
      9  C          5.0150   -0.3630    1.3430 C.2     1  UNL1        0.0040
     10  C          7.5110   -0.2160    2.3950 C.2     1  UNL1        0.0000
     11  C          5.6610   -1.5350    1.6840 C.2     1  UNL1        0.0000
     12  C          6.9280   -1.4460    2.2170 C.2     1  UNL1        0.0000
@<TRIPOS>BOND
     1     1     2    1
     2     1     6    1
     3     3     2    2
     4     2     4    1
     5     6     7    1
     6     9     7    2
     7     9    11    1
     8     7     8    1
     9    11    12    2
    10     8    10    2
    11     4     5    1
    12    12    10    1
