@<TRIPOS>MOLECULE
/home/cewinharhar/GITHUB/reincatalyze/data/processed/docking_pred/2023-Apr-26-1657_maxeplen10_maxtrainstep1000_exh32_gamma099_lrac9e-4_lrcr1e-3/6070aa1b8336213875ea865ca7f6d729a9af33a9_ligand_2.pdbqt
 12 12 0 0 0
SMALL
GASTEIGER

@<TRIPOS>ATOM
      1  C          8.2390    0.2380   -2.1980 C.3     1  UNL1        0.1270
      2  C          9.3710    0.3540   -1.2470 C.2     1  UNL1        0.3030
      3  O          9.4570   -0.3980   -0.2450 O.2     1  UNL1       -0.2520
      4  O         10.3670    1.2970   -1.4400 O.3     1  UNL1       -0.4810
      5  H         10.9990    1.2020   -2.2390 H       1  UNL1        0.2960
      6  C          7.1350   -0.5200   -1.5260 C.3     1  UNL1        0.0470
      7  C          6.3500    0.2810   -0.5880 C.2     1  UNL1       -0.0470
      8  C          6.1340   -0.1540    0.6990 C.2     1  UNL1        0.0040
      9  C          5.8260    1.4820   -1.0060 C.2     1  UNL1        0.0040
     10  C          5.3750    0.6620    1.5410 C.2     1  UNL1        0.0000
     11  C          5.0760    2.2880   -0.1720 C.2     1  UNL1        0.0000
     12  C          4.8550    1.8590    1.1180 C.2     1  UNL1        0.0000
@<TRIPOS>BOND
     1     5     4    1
     2     1     6    1
     3     1     2    1
     4     6     7    1
     5     4     2    1
     6     2     3    2
     7     9     7    2
     8     9    11    1
     9     7     8    1
    10    11    12    2
    11     8    10    2
    12    12    10    1
