@<TRIPOS>MOLECULE
/home/cewinharhar/GITHUB/reincatalyze/data/processed/docking_pred/2023-Apr-26-1657_maxeplen10_maxtrainstep1000_exh32_gamma099_lrac9e-4_lrcr1e-3/6070aa1b8336213875ea865ca7f6d729a9af33a9_ligand_2.pdbqt
 12 12 0 0 0
SMALL
GASTEIGER

@<TRIPOS>ATOM
      1  C          8.4360   -0.6790   -2.0040 C.3     1  UNL1        0.1270
      2  C          8.3870   -1.9000   -2.8430 C.2     1  UNL1        0.3030
      3  O          7.2930   -2.3930   -3.2120 O.2     1  UNL1       -0.2520
      4  O          9.5530   -2.5330   -3.2430 O.3     1  UNL1       -0.4810
      5  H         10.4020   -1.9790   -3.3830 H       1  UNL1        0.2960
      6  C          7.0890   -0.0240   -2.0490 C.3     1  UNL1        0.0470
      7  C          6.4740    0.1610   -0.7350 C.2     1  UNL1       -0.0470
      8  C          6.5540   -0.8230    0.2230 C.2     1  UNL1        0.0040
      9  C          5.8130    1.3360   -0.4630 C.2     1  UNL1        0.0040
     10  C          5.9440   -0.5780    1.4560 C.2     1  UNL1        0.0000
     11  C          5.2100    1.5760    0.7560 C.2     1  UNL1        0.0000
     12  C          5.2850    0.5950    1.7210 C.2     1  UNL1        0.0000
@<TRIPOS>BOND
     1     5     4    1
     2     4     2    1
     3     3     2    2
     4     2     1    1
     5     6     1    1
     6     6     7    1
     7     7     9    2
     8     7     8    1
     9     9    11    1
    10     8    10    2
    11    11    12    2
    12    10    12    1
