@<TRIPOS>MOLECULE
/home/cewinharhar/GITHUB/reincatalyze/data/processed/docking_pred/2023-Apr-26-1657_maxeplen10_maxtrainstep1000_exh32_gamma099_lrac9e-4_lrcr1e-3/6070aa1b8336213875ea865ca7f6d729a9af33a9_ligand_2.pdbqt
 12 12 0 0 0
SMALL
GASTEIGER

@<TRIPOS>ATOM
      1  C          8.4020   -0.6620   -2.0650 C.3     1  UNL1        0.1270
      2  C          8.3710   -1.9010   -2.8780 C.2     1  UNL1        0.3030
      3  O          7.2840   -2.4100   -3.2490 O.2     1  UNL1       -0.2520
      4  O          9.5460   -2.5350   -3.2510 O.3     1  UNL1       -0.4810
      5  H          9.5130   -3.2730   -3.9600 H       1  UNL1        0.2960
      6  C          7.0270   -0.0670   -2.0630 C.3     1  UNL1        0.0470
      7  C          6.4550    0.1050   -0.7290 C.2     1  UNL1       -0.0470
      8  C          5.8060    1.2680   -0.3860 C.2     1  UNL1        0.0040
      9  C          6.5700   -0.9150    0.1870 C.2     1  UNL1        0.0040
     10  C          5.2840    1.3620    0.9060 C.2     1  UNL1        0.0000
     11  C          6.0530   -0.8210    1.4640 C.2     1  UNL1        0.0000
     12  C          5.4020    0.3420    1.8160 C.2     1  UNL1        0.0000
@<TRIPOS>BOND
     1     5     4    1
     2     4     2    1
     3     3     2    2
     4     2     1    1
     5     1     6    1
     6     6     7    1
     7     7     8    2
     8     7     9    1
     9     8    10    1
    10     9    11    2
    11    10    12    2
    12    11    12    1
