@<TRIPOS>MOLECULE
/home/cewinharhar/GITHUB/reincatalyze/data/processed/docking_pred/2023-Apr-26-1657_maxeplen10_maxtrainstep1000_exh32_gamma099_lrac9e-4_lrcr1e-3/6070aa1b8336213875ea865ca7f6d729a9af33a9_ligand_2.pdbqt
 12 12 0 0 0
SMALL
GASTEIGER

@<TRIPOS>ATOM
      1  C          8.0050   -2.3240    0.8290 C.3     1  UNL1        0.1270
      2  C          8.8190   -3.4460    0.3050 C.2     1  UNL1        0.3030
      3  O          8.7350   -3.8060   -0.8950 O.2     1  UNL1       -0.2520
      4  O          9.6990   -4.1300    1.1290 O.3     1  UNL1       -0.4810
      5  H         10.5160   -3.6400    1.5060 H       1  UNL1        0.2960
      6  C          7.4940   -1.5300   -0.3340 C.3     1  UNL1        0.0470
      7  C          6.6360   -0.4080    0.0440 C.2     1  UNL1       -0.0470
      8  C          6.3780    0.6100   -0.8440 C.2     1  UNL1        0.0040
      9  C          6.0820   -0.3800    1.3030 C.2     1  UNL1        0.0040
     10  C          5.5480    1.6490   -0.4170 C.2     1  UNL1        0.0000
     11  C          5.2630    0.6480    1.7240 C.2     1  UNL1        0.0000
     12  C          5.0000    1.6720    0.8410 C.2     1  UNL1        0.0000
@<TRIPOS>BOND
     1     3     2    2
     2     8    10    1
     3     8     7    2
     4    10    12    2
     5     6     7    1
     6     6     1    1
     7     7     9    1
     8     2     1    1
     9     2     4    1
    10    12    11    1
    11     4     5    1
    12     9    11    2
