MODEL 1
REMARK VINA RESULT:      -7.3      0.000      0.000
REMARK SMILES O=C(O)CCc1ccccc1
REMARK SMILES IDX 4 1 2 2 1 3 3 4 5 6 6 7 7 8 11 9 8 10 10 11 9 12
REMARK H PARENT 3 5
REMARK Flexibility Score: inf
ROOT
ATOM      1  C   UNL     1       8.402  -0.662  -2.065  1.00  0.00     0.127 C 
ENDROOT
BRANCH   1   2
ATOM      2  C   UNL     1       8.371  -1.901  -2.878  1.00  0.00     0.303 C 
ATOM      3  O   UNL     1       7.284  -2.410  -3.249  1.00  0.00    -0.252 OA
BRANCH   2   4
ATOM      4  O   UNL     1       9.546  -2.535  -3.251  1.00  0.00    -0.481 OA
ATOM      5  H   UNL     1       9.513  -3.273  -3.960  1.00  0.00     0.296 HD
ENDBRANCH   2   4
ENDBRANCH   1   2
BRANCH   1   6
ATOM      6  C   UNL     1       7.027  -0.067  -2.063  1.00  0.00     0.047 C 
BRANCH   6   7
ATOM      7  C   UNL     1       6.455   0.105  -0.729  1.00  0.00    -0.047 A 
ATOM      8  C   UNL     1       5.806   1.268  -0.386  1.00  0.00     0.004 A 
ATOM      9  C   UNL     1       6.570  -0.915   0.187  1.00  0.00     0.004 A 
ATOM     10  C   UNL     1       5.284   1.362   0.906  1.00  0.00     0.000 A 
ATOM     11  C   UNL     1       6.053  -0.821   1.464  1.00  0.00     0.000 A 
ATOM     12  C   UNL     1       5.402   0.342   1.816  1.00  0.00     0.000 A 
ENDBRANCH   6   7
ENDBRANCH   1   6
TORSDOF 4
ENDMDL
MODEL 2
REMARK VINA RESULT:      -7.3      0.157      1.444
REMARK SMILES O=C(O)CCc1ccccc1
REMARK SMILES IDX 4 1 2 2 1 3 3 4 5 6 6 7 7 8 11 9 8 10 10 11 9 12
REMARK H PARENT 3 5
REMARK Flexibility Score: inf
ROOT
ATOM      1  C   UNL     1       8.436  -0.679  -2.004  1.00  0.00     0.127 C 
ENDROOT
BRANCH   1   2
ATOM      2  C   UNL     1       8.387  -1.900  -2.843  1.00  0.00     0.303 C 
ATOM      3  O   UNL     1       7.293  -2.393  -3.212  1.00  0.00    -0.252 OA
BRANCH   2   4
ATOM      4  O   UNL     1       9.553  -2.533  -3.243  1.00  0.00    -0.481 OA
ATOM      5  H   UNL     1      10.402  -1.979  -3.383  1.00  0.00     0.296 HD
ENDBRANCH   2   4
ENDBRANCH   1   2
BRANCH   1   6
ATOM      6  C   UNL     1       7.089  -0.024  -2.049  1.00  0.00     0.047 C 
BRANCH   6   7
ATOM      7  C   UNL     1       6.474   0.161  -0.735  1.00  0.00    -0.047 A 
ATOM      8  C   UNL     1       6.554  -0.823   0.223  1.00  0.00     0.004 A 
ATOM      9  C   UNL     1       5.813   1.336  -0.463  1.00  0.00     0.004 A 
ATOM     10  C   UNL     1       5.944  -0.578   1.456  1.00  0.00     0.000 A 
ATOM     11  C   UNL     1       5.210   1.576   0.756  1.00  0.00     0.000 A 
ATOM     12  C   UNL     1       5.285   0.595   1.721  1.00  0.00     0.000 A 
ENDBRANCH   6   7
ENDBRANCH   1   6
TORSDOF 4
ENDMDL
MODEL 3
REMARK VINA RESULT:      -6.8      3.315      5.155
REMARK SMILES O=C(O)CCc1ccccc1
REMARK SMILES IDX 4 1 2 2 1 3 3 4 5 6 6 7 7 8 11 9 8 10 10 11 9 12
REMARK H PARENT 3 5
REMARK Flexibility Score: inf
ROOT
ATOM      1  C   UNL     1       4.995   1.790   0.697  1.00  0.00     0.127 C 
ENDROOT
BRANCH   1   2
ATOM      2  C   UNL     1       4.479   1.114   1.911  1.00  0.00     0.303 C 
ATOM      3  O   UNL     1       5.135   0.207   2.480  1.00  0.00    -0.252 OA
BRANCH   2   4
ATOM      4  O   UNL     1       3.254   1.467   2.452  1.00  0.00    -0.481 OA
ATOM      5  H   UNL     1       2.743   2.263   2.061  1.00  0.00     0.296 HD
ENDBRANCH   2   4
ENDBRANCH   1   2
BRANCH   1   6
ATOM      6  C   UNL     1       6.493   1.772   0.749  1.00  0.00     0.047 C 
BRANCH   6   7
ATOM      7  C   UNL     1       7.117   1.020  -0.339  1.00  0.00    -0.047 A 
ATOM      8  C   UNL     1       6.389   0.114  -1.075  1.00  0.00     0.004 A 
ATOM      9  C   UNL     1       8.446   1.230  -0.623  1.00  0.00     0.004 A 
ATOM     10  C   UNL     1       7.050  -0.568  -2.099  1.00  0.00     0.000 A 
ATOM     11  C   UNL     1       9.098   0.554  -1.636  1.00  0.00     0.000 A 
ATOM     12  C   UNL     1       8.376  -0.356  -2.378  1.00  0.00     0.000 A 
ENDBRANCH   6   7
ENDBRANCH   1   6
TORSDOF 4
ENDMDL
MODEL 4
REMARK VINA RESULT:      -6.6      1.932      2.610
REMARK SMILES O=C(O)CCc1ccccc1
REMARK SMILES IDX 4 1 2 2 1 3 3 4 5 6 6 7 7 8 11 9 8 10 10 11 9 12
REMARK H PARENT 3 5
REMARK Flexibility Score: inf
ROOT
ATOM      1  C   UNL     1       8.239   0.238  -2.198  1.00  0.00     0.127 C 
ENDROOT
BRANCH   1   2
ATOM      2  C   UNL     1       9.371   0.354  -1.247  1.00  0.00     0.303 C 
ATOM      3  O   UNL     1       9.457  -0.398  -0.245  1.00  0.00    -0.252 OA
BRANCH   2   4
ATOM      4  O   UNL     1      10.367   1.297  -1.440  1.00  0.00    -0.481 OA
ATOM      5  H   UNL     1      10.999   1.202  -2.239  1.00  0.00     0.296 HD
ENDBRANCH   2   4
ENDBRANCH   1   2
BRANCH   1   6
ATOM      6  C   UNL     1       7.135  -0.520  -1.526  1.00  0.00     0.047 C 
BRANCH   6   7
ATOM      7  C   UNL     1       6.350   0.281  -0.588  1.00  0.00    -0.047 A 
ATOM      8  C   UNL     1       6.134  -0.154   0.699  1.00  0.00     0.004 A 
ATOM      9  C   UNL     1       5.826   1.482  -1.006  1.00  0.00     0.004 A 
ATOM     10  C   UNL     1       5.375   0.662   1.541  1.00  0.00     0.000 A 
ATOM     11  C   UNL     1       5.076   2.288  -0.172  1.00  0.00     0.000 A 
ATOM     12  C   UNL     1       4.855   1.859   1.118  1.00  0.00     0.000 A 
ENDBRANCH   6   7
ENDBRANCH   1   6
TORSDOF 4
ENDMDL
MODEL 5
REMARK VINA RESULT:      -6.5      2.095      2.558
REMARK SMILES O=C(O)CCc1ccccc1
REMARK SMILES IDX 4 1 2 2 1 3 3 4 5 6 6 7 7 8 11 9 8 10 10 11 9 12
REMARK H PARENT 3 5
REMARK Flexibility Score: inf
ROOT
ATOM      1  C   UNL     1       8.005  -2.324   0.829  1.00  0.00     0.127 C 
ENDROOT
BRANCH   1   2
ATOM      2  C   UNL     1       8.819  -3.446   0.305  1.00  0.00     0.303 C 
ATOM      3  O   UNL     1       8.735  -3.806  -0.895  1.00  0.00    -0.252 OA
BRANCH   2   4
ATOM      4  O   UNL     1       9.699  -4.130   1.129  1.00  0.00    -0.481 OA
ATOM      5  H   UNL     1      10.516  -3.640   1.506  1.00  0.00     0.296 HD
ENDBRANCH   2   4
ENDBRANCH   1   2
BRANCH   1   6
ATOM      6  C   UNL     1       7.494  -1.530  -0.334  1.00  0.00     0.047 C 
BRANCH   6   7
ATOM      7  C   UNL     1       6.636  -0.408   0.044  1.00  0.00    -0.047 A 
ATOM      8  C   UNL     1       6.378   0.610  -0.844  1.00  0.00     0.004 A 
ATOM      9  C   UNL     1       6.082  -0.380   1.303  1.00  0.00     0.004 A 
ATOM     10  C   UNL     1       5.548   1.649  -0.417  1.00  0.00     0.000 A 
ATOM     11  C   UNL     1       5.263   0.648   1.724  1.00  0.00     0.000 A 
ATOM     12  C   UNL     1       5.000   1.672   0.841  1.00  0.00     0.000 A 
ENDBRANCH   6   7
ENDBRANCH   1   6
TORSDOF 4
ENDMDL
