MODEL 1
REMARK VINA RESULT:      -7.3      0.000      0.000
REMARK SMILES O=C(O)CCc1ccccc1
REMARK SMILES IDX 4 1 2 2 1 3 3 4 5 6 6 7 7 8 11 9 8 10 10 11 9 12
REMARK H PARENT 3 5
REMARK Flexibility Score: inf
ROOT
ATOM      1  C   UNL     1       8.444  -0.642  -2.103  1.00  0.00     0.127 C 
ENDROOT
BRANCH   1   2
ATOM      2  C   UNL     1       8.399  -1.901  -2.883  1.00  0.00     0.303 C 
ATOM      3  O   UNL     1       7.305  -2.416  -3.225  1.00  0.00    -0.252 OA
BRANCH   2   4
ATOM      4  O   UNL     1       9.566  -2.547  -3.257  1.00  0.00    -0.481 OA
ATOM      5  H   UNL     1       9.981  -3.237  -2.625  1.00  0.00     0.296 HD
ENDBRANCH   2   4
ENDBRANCH   1   2
BRANCH   1   6
ATOM      6  C   UNL     1       7.069  -0.048  -2.088  1.00  0.00     0.047 C 
BRANCH   6   7
ATOM      7  C   UNL     1       6.495   0.089  -0.751  1.00  0.00    -0.047 A 
ATOM      8  C   UNL     1       6.627  -0.918   0.178  1.00  0.00     0.004 A 
ATOM      9  C   UNL     1       5.818   1.241  -0.425  1.00  0.00     0.004 A 
ATOM     10  C   UNL     1       6.054  -0.719   1.436  1.00  0.00     0.000 A 
ATOM     11  C   UNL     1       5.252   1.436   0.820  1.00  0.00     0.000 A 
ATOM     12  C   UNL     1       5.380   0.433   1.755  1.00  0.00     0.000 A 
ENDBRANCH   6   7
ENDBRANCH   1   6
TORSDOF 4
ENDMDL
MODEL 2
REMARK VINA RESULT:      -7.3      0.096      1.439
REMARK SMILES O=C(O)CCc1ccccc1
REMARK SMILES IDX 4 1 2 2 1 3 3 4 5 6 6 7 7 8 11 9 8 10 10 11 9 12
REMARK H PARENT 3 5
REMARK Flexibility Score: inf
ROOT
ATOM      1  C   UNL     1       8.383  -0.636  -2.098  1.00  0.00     0.127 C 
ENDROOT
BRANCH   1   2
ATOM      2  C   UNL     1       8.362  -1.887  -2.893  1.00  0.00     0.303 C 
ATOM      3  O   UNL     1       7.279  -2.409  -3.257  1.00  0.00    -0.252 OA
BRANCH   2   4
ATOM      4  O   UNL     1       9.542  -2.517  -3.256  1.00  0.00    -0.481 OA
ATOM      5  H   UNL     1       9.529  -3.205  -4.013  1.00  0.00     0.296 HD
ENDBRANCH   2   4
ENDBRANCH   1   2
BRANCH   1   6
ATOM      6  C   UNL     1       6.995  -0.072  -2.073  1.00  0.00     0.047 C 
BRANCH   6   7
ATOM      7  C   UNL     1       6.443   0.088  -0.729  1.00  0.00    -0.047 A 
ATOM      8  C   UNL     1       5.815   1.255  -0.360  1.00  0.00     0.004 A 
ATOM      9  C   UNL     1       6.555  -0.947   0.171  1.00  0.00     0.004 A 
ATOM     10  C   UNL     1       5.310   1.338   0.939  1.00  0.00     0.000 A 
ATOM     11  C   UNL     1       6.056  -0.864   1.456  1.00  0.00     0.000 A 
ATOM     12  C   UNL     1       5.426   0.303   1.833  1.00  0.00     0.000 A 
ENDBRANCH   6   7
ENDBRANCH   1   6
TORSDOF 4
ENDMDL
MODEL 3
REMARK VINA RESULT:      -7.0      0.714      1.401
REMARK SMILES O=C(O)CCc1ccccc1
REMARK SMILES IDX 4 1 2 2 1 3 3 4 5 6 6 7 7 8 11 9 8 10 10 11 9 12
REMARK H PARENT 3 5
REMARK Flexibility Score: inf
ROOT
ATOM      1  C   UNL     1       8.283  -0.537  -2.295  1.00  0.00     0.127 C 
ENDROOT
BRANCH   1   2
ATOM      2  C   UNL     1       8.390  -1.868  -2.939  1.00  0.00     0.303 C 
ATOM      3  O   UNL     1       9.494  -2.460  -3.031  1.00  0.00    -0.252 OA
BRANCH   2   4
ATOM      4  O   UNL     1       7.270  -2.497  -3.459  1.00  0.00    -0.481 OA
ATOM      5  H   UNL     1       7.162  -2.569  -4.474  1.00  0.00     0.296 HD
ENDBRANCH   2   4
ENDBRANCH   1   2
BRANCH   1   6
ATOM      6  C   UNL     1       8.225  -0.736  -0.811  1.00  0.00     0.047 C 
BRANCH   6   7
ATOM      7  C   UNL     1       7.155   0.012  -0.153  1.00  0.00    -0.047 A 
ATOM      8  C   UNL     1       6.874  -0.187   1.179  1.00  0.00     0.004 A 
ATOM      9  C   UNL     1       6.428   0.926  -0.881  1.00  0.00     0.004 A 
ATOM     10  C   UNL     1       5.839   0.563   1.743  1.00  0.00     0.000 A 
ATOM     11  C   UNL     1       5.406   1.666  -0.322  1.00  0.00     0.000 A 
ATOM     12  C   UNL     1       5.117   1.472   1.012  1.00  0.00     0.000 A 
ENDBRANCH   6   7
ENDBRANCH   1   6
TORSDOF 4
ENDMDL
MODEL 4
REMARK VINA RESULT:      -6.8      3.306      5.140
REMARK SMILES O=C(O)CCc1ccccc1
REMARK SMILES IDX 4 1 2 2 1 3 3 4 5 6 6 7 7 8 11 9 8 10 10 11 9 12
REMARK H PARENT 3 5
REMARK Flexibility Score: inf
ROOT
ATOM      1  C   UNL     1       4.995   1.811   0.704  1.00  0.00     0.127 C 
ENDROOT
BRANCH   1   2
ATOM      2  C   UNL     1       4.490   1.122   1.915  1.00  0.00     0.303 C 
ATOM      3  O   UNL     1       5.161   0.223   2.479  1.00  0.00    -0.252 OA
BRANCH   2   4
ATOM      4  O   UNL     1       3.259   1.453   2.459  1.00  0.00    -0.481 OA
ATOM      5  H   UNL     1       3.219   1.846   3.404  1.00  0.00     0.296 HD
ENDBRANCH   2   4
ENDBRANCH   1   2
BRANCH   1   6
ATOM      6  C   UNL     1       6.492   1.803   0.747  1.00  0.00     0.047 C 
BRANCH   6   7
ATOM      7  C   UNL     1       7.115   1.047  -0.339  1.00  0.00    -0.047 A 
ATOM      8  C   UNL     1       6.378   0.165  -1.094  1.00  0.00     0.004 A 
ATOM      9  C   UNL     1       8.452   1.230  -0.603  1.00  0.00     0.004 A 
ATOM     10  C   UNL     1       7.037  -0.522  -2.116  1.00  0.00     0.000 A 
ATOM     11  C   UNL     1       9.103   0.550  -1.614  1.00  0.00     0.000 A 
ATOM     12  C   UNL     1       8.372  -0.337  -2.374  1.00  0.00     0.000 A 
ENDBRANCH   6   7
ENDBRANCH   1   6
TORSDOF 4
ENDMDL
MODEL 5
REMARK VINA RESULT:      -6.8      1.029      1.890
REMARK SMILES O=C(O)CCc1ccccc1
REMARK SMILES IDX 4 1 2 2 1 3 3 4 5 6 6 7 7 8 11 9 8 10 10 11 9 12
REMARK H PARENT 3 5
REMARK Flexibility Score: inf
ROOT
ATOM      1  C   UNL     1       7.356  -1.206  -2.326  1.00  0.00     0.127 C 
ENDROOT
BRANCH   1   2
ATOM      2  C   UNL     1       8.813  -1.361  -2.544  1.00  0.00     0.303 C 
ATOM      3  O   UNL     1       9.275  -2.336  -3.186  1.00  0.00    -0.252 OA
BRANCH   2   4
ATOM      4  O   UNL     1       9.709  -0.430  -2.043  1.00  0.00    -0.481 OA
ATOM      5  H   UNL     1       9.938  -0.442  -1.046  1.00  0.00     0.296 HD
ENDBRANCH   2   4
ENDBRANCH   1   2
BRANCH   1   6
ATOM      6  C   UNL     1       7.071  -1.429  -0.872  1.00  0.00     0.047 C 
BRANCH   6   7
ATOM      7  C   UNL     1       6.374  -0.319  -0.226  1.00  0.00    -0.047 A 
ATOM      8  C   UNL     1       6.099   0.838  -0.918  1.00  0.00     0.004 A 
ATOM      9  C   UNL     1       5.990  -0.442   1.090  1.00  0.00     0.004 A 
ATOM     10  C   UNL     1       5.429   1.857  -0.237  1.00  0.00     0.000 A 
ATOM     11  C   UNL     1       5.328   0.567   1.761  1.00  0.00     0.000 A 
ATOM     12  C   UNL     1       5.050   1.729   1.075  1.00  0.00     0.000 A 
ENDBRANCH   6   7
ENDBRANCH   1   6
TORSDOF 4
ENDMDL
