@<TRIPOS>MOLECULE
/home/cewinharhar/GITHUB/reincatalyze/data/processed/docking_pred/2023-Apr-26-1657_maxeplen10_maxtrainstep1000_exh32_gamma099_lrac9e-4_lrcr1e-3/62f66f9004302081042513b5faa006f3d97c65a4_ligand_2.pdbqt
 12 12 0 0 0
SMALL
GASTEIGER

@<TRIPOS>ATOM
      1  C          8.4440   -0.6420   -2.1030 C.3     1  UNL1        0.1270
      2  C          8.3990   -1.9010   -2.8830 C.2     1  UNL1        0.3030
      3  O          7.3050   -2.4160   -3.2250 O.2     1  UNL1       -0.2520
      4  O          9.5660   -2.5470   -3.2570 O.3     1  UNL1       -0.4810
      5  H          9.9810   -3.2370   -2.6250 H       1  UNL1        0.2960
      6  C          7.0690   -0.0480   -2.0880 C.3     1  UNL1        0.0470
      7  C          6.4950    0.0890   -0.7510 C.2     1  UNL1       -0.0470
      8  C          6.6270   -0.9180    0.1780 C.2     1  UNL1        0.0040
      9  C          5.8180    1.2410   -0.4250 C.2     1  UNL1        0.0040
     10  C          6.0540   -0.7190    1.4360 C.2     1  UNL1        0.0000
     11  C          5.2520    1.4360    0.8200 C.2     1  UNL1        0.0000
     12  C          5.3800    0.4330    1.7550 C.2     1  UNL1        0.0000
@<TRIPOS>BOND
     1     4     2    1
     2     4     5    1
     3     3     2    2
     4     2     1    1
     5     1     6    1
     6     6     7    1
     7     7     9    2
     8     7     8    1
     9     9    11    1
    10     8    10    2
    11    11    12    2
    12    10    12    1
