@<TRIPOS>MOLECULE
/home/cewinharhar/GITHUB/reincatalyze/data/processed/docking_pred/2023-Apr-26-1657_maxeplen10_maxtrainstep1000_exh32_gamma099_lrac9e-4_lrcr1e-3/62f66f9004302081042513b5faa006f3d97c65a4_ligand_2.pdbqt
 12 12 0 0 0
SMALL
GASTEIGER

@<TRIPOS>ATOM
      1  C          4.9950    1.8110    0.7040 C.3     1  UNL1        0.1270
      2  C          4.4900    1.1220    1.9150 C.2     1  UNL1        0.3030
      3  O          5.1610    0.2230    2.4790 O.2     1  UNL1       -0.2520
      4  O          3.2590    1.4530    2.4590 O.3     1  UNL1       -0.4810
      5  H          3.2190    1.8460    3.4040 H       1  UNL1        0.2960
      6  C          6.4920    1.8030    0.7470 C.3     1  UNL1        0.0470
      7  C          7.1150    1.0470   -0.3390 C.2     1  UNL1       -0.0470
      8  C          6.3780    0.1650   -1.0940 C.2     1  UNL1        0.0040
      9  C          8.4520    1.2300   -0.6030 C.2     1  UNL1        0.0040
     10  C          7.0370   -0.5220   -2.1160 C.2     1  UNL1        0.0000
     11  C          9.1030    0.5500   -1.6140 C.2     1  UNL1        0.0000
     12  C          8.3720   -0.3370   -2.3740 C.2     1  UNL1        0.0000
@<TRIPOS>BOND
     1    12    10    2
     2    12    11    1
     3    10     8    1
     4    11     9    2
     5     8     7    2
     6     9     7    1
     7     7     6    1
     8     1     6    1
     9     1     2    1
    10     2     4    1
    11     2     3    2
    12     4     5    1
