@<TRIPOS>MOLECULE
/home/cewinharhar/GITHUB/reincatalyze/data/processed/docking_pred/2023-Apr-26-1657_maxeplen10_maxtrainstep1000_exh32_gamma099_lrac9e-4_lrcr1e-3/62f66f9004302081042513b5faa006f3d97c65a4_ligand_2.pdbqt
 12 12 0 0 0
SMALL
GASTEIGER

@<TRIPOS>ATOM
      1  C          8.2830   -0.5370   -2.2950 C.3     1  UNL1        0.1270
      2  C          8.3900   -1.8680   -2.9390 C.2     1  UNL1        0.3030
      3  O          9.4940   -2.4600   -3.0310 O.2     1  UNL1       -0.2520
      4  O          7.2700   -2.4970   -3.4590 O.3     1  UNL1       -0.4810
      5  H          7.1620   -2.5690   -4.4740 H       1  UNL1        0.2960
      6  C          8.2250   -0.7360   -0.8110 C.3     1  UNL1        0.0470
      7  C          7.1550    0.0120   -0.1530 C.2     1  UNL1       -0.0470
      8  C          6.8740   -0.1870    1.1790 C.2     1  UNL1        0.0040
      9  C          6.4280    0.9260   -0.8810 C.2     1  UNL1        0.0040
     10  C          5.8390    0.5630    1.7430 C.2     1  UNL1        0.0000
     11  C          5.4060    1.6660   -0.3220 C.2     1  UNL1        0.0000
     12  C          5.1170    1.4720    1.0120 C.2     1  UNL1        0.0000
@<TRIPOS>BOND
     1     5     4    1
     2     4     2    1
     3     3     2    2
     4     2     1    1
     5     1     6    1
     6     9    11    1
     7     9     7    2
     8     6     7    1
     9    11    12    2
    10     7     8    1
    11    12    10    1
    12     8    10    2
