@<TRIPOS>MOLECULE
/home/cewinharhar/GITHUB/reincatalyze/data/processed/docking_pred/2023-Apr-26-1657_maxeplen10_maxtrainstep1000_exh32_gamma099_lrac9e-4_lrcr1e-3/62f66f9004302081042513b5faa006f3d97c65a4_ligand_2.pdbqt
 12 12 0 0 0
SMALL
GASTEIGER

@<TRIPOS>ATOM
      1  C          8.3830   -0.6360   -2.0980 C.3     1  UNL1        0.1270
      2  C          8.3620   -1.8870   -2.8930 C.2     1  UNL1        0.3030
      3  O          7.2790   -2.4090   -3.2570 O.2     1  UNL1       -0.2520
      4  O          9.5420   -2.5170   -3.2560 O.3     1  UNL1       -0.4810
      5  H          9.5290   -3.2050   -4.0130 H       1  UNL1        0.2960
      6  C          6.9950   -0.0720   -2.0730 C.3     1  UNL1        0.0470
      7  C          6.4430    0.0880   -0.7290 C.2     1  UNL1       -0.0470
      8  C          5.8150    1.2550   -0.3600 C.2     1  UNL1        0.0040
      9  C          6.5550   -0.9470    0.1710 C.2     1  UNL1        0.0040
     10  C          5.3100    1.3380    0.9390 C.2     1  UNL1        0.0000
     11  C          6.0560   -0.8640    1.4560 C.2     1  UNL1        0.0000
     12  C          5.4260    0.3030    1.8330 C.2     1  UNL1        0.0000
@<TRIPOS>BOND
     1     5     4    1
     2     3     2    2
     3     4     2    1
     4     2     1    1
     5     1     6    1
     6     6     7    1
     7     7     8    2
     8     7     9    1
     9     8    10    1
    10     9    11    2
    11    10    12    2
    12    11    12    1
