@<TRIPOS>MOLECULE
/home/cewinharhar/GITHUB/reincatalyze/data/processed/docking_pred/2023-Apr-26-1657_maxeplen10_maxtrainstep1000_exh32_gamma099_lrac9e-4_lrcr1e-3/62f66f9004302081042513b5faa006f3d97c65a4_ligand_2.pdbqt
 12 12 0 0 0
SMALL
GASTEIGER

@<TRIPOS>ATOM
      1  C          7.3560   -1.2060   -2.3260 C.3     1  UNL1        0.1270
      2  C          8.8130   -1.3610   -2.5440 C.2     1  UNL1        0.3030
      3  O          9.2750   -2.3360   -3.1860 O.2     1  UNL1       -0.2520
      4  O          9.7090   -0.4300   -2.0430 O.3     1  UNL1       -0.4810
      5  H          9.9380   -0.4420   -1.0460 H       1  UNL1        0.2960
      6  C          7.0710   -1.4290   -0.8720 C.3     1  UNL1        0.0470
      7  C          6.3740   -0.3190   -0.2260 C.2     1  UNL1       -0.0470
      8  C          6.0990    0.8380   -0.9180 C.2     1  UNL1        0.0040
      9  C          5.9900   -0.4420    1.0900 C.2     1  UNL1        0.0040
     10  C          5.4290    1.8570   -0.2370 C.2     1  UNL1        0.0000
     11  C          5.3280    0.5670    1.7610 C.2     1  UNL1        0.0000
     12  C          5.0500    1.7290    1.0750 C.2     1  UNL1        0.0000
@<TRIPOS>BOND
     1     3     2    2
     2     2     1    1
     3     2     4    1
     4     1     6    1
     5     4     5    1
     6     8    10    1
     7     8     7    2
     8     6     7    1
     9    10    12    2
    10     7     9    1
    11    12    11    1
    12     9    11    2
