@<TRIPOS>MOLECULE
/home/cewinharhar/GITHUB/reincatalyze/data/processed/docking_pred/2023-Apr-26-1657_maxeplen10_maxtrainstep1000_exh32_gamma099_lrac9e-4_lrcr1e-3/64ade7361adfbcba1ebdf367c3e16aacabd62181_ligand_2.pdbqt
 12 12 0 0 0
SMALL
GASTEIGER

@<TRIPOS>ATOM
      1  C          8.4210   -0.6080   -2.1600 C.3     1  UNL1        0.1270
      2  C          8.4600   -1.8870   -2.9060 C.2     1  UNL1        0.3030
      3  O          9.5380   -2.5070   -3.0800 O.2     1  UNL1       -0.2520
      4  O          7.3020   -2.4370   -3.4340 O.3     1  UNL1       -0.4810
      5  H          6.8340   -3.1970   -2.9320 H       1  UNL1        0.2960
      6  C          7.0020   -0.1270   -2.1230 C.3     1  UNL1        0.0470
      7  C          6.4700    0.0510   -0.7730 C.2     1  UNL1       -0.0470
      8  C          5.8540    1.2270   -0.4090 C.2     1  UNL1        0.0040
      9  C          6.5880   -0.9740    0.1370 C.2     1  UNL1        0.0040
     10  C          5.3680    1.3270    0.8960 C.2     1  UNL1        0.0000
     11  C          6.1080   -0.8730    1.4270 C.2     1  UNL1        0.0000
     12  C          5.4900    0.3010    1.8000 C.2     1  UNL1        0.0000
@<TRIPOS>BOND
     1     4     5    1
     2     4     2    1
     3     3     2    2
     4     2     1    1
     5     1     6    1
     6     6     7    1
     7     7     8    2
     8     7     9    1
     9     8    10    1
    10     9    11    2
    11    10    12    2
    12    11    12    1
