MODEL 1
REMARK VINA RESULT:      -7.3      0.000      0.000
REMARK SMILES O=C(O)CCc1ccccc1
REMARK SMILES IDX 4 1 2 2 1 3 3 4 5 6 6 7 7 8 11 9 8 10 10 11 9 12
REMARK H PARENT 3 5
REMARK Flexibility Score: inf
ROOT
ATOM      1  C   UNL     1       8.421  -0.608  -2.160  1.00  0.00     0.127 C 
ENDROOT
BRANCH   1   2
ATOM      2  C   UNL     1       8.460  -1.887  -2.906  1.00  0.00     0.303 C 
ATOM      3  O   UNL     1       9.538  -2.507  -3.080  1.00  0.00    -0.252 OA
BRANCH   2   4
ATOM      4  O   UNL     1       7.302  -2.437  -3.434  1.00  0.00    -0.481 OA
ATOM      5  H   UNL     1       6.834  -3.197  -2.932  1.00  0.00     0.296 HD
ENDBRANCH   2   4
ENDBRANCH   1   2
BRANCH   1   6
ATOM      6  C   UNL     1       7.002  -0.127  -2.123  1.00  0.00     0.047 C 
BRANCH   6   7
ATOM      7  C   UNL     1       6.470   0.051  -0.773  1.00  0.00    -0.047 A 
ATOM      8  C   UNL     1       5.854   1.227  -0.409  1.00  0.00     0.004 A 
ATOM      9  C   UNL     1       6.588  -0.974   0.137  1.00  0.00     0.004 A 
ATOM     10  C   UNL     1       5.368   1.327   0.896  1.00  0.00     0.000 A 
ATOM     11  C   UNL     1       6.108  -0.873   1.427  1.00  0.00     0.000 A 
ATOM     12  C   UNL     1       5.490   0.301   1.800  1.00  0.00     0.000 A 
ENDBRANCH   6   7
ENDBRANCH   1   6
TORSDOF 4
ENDMDL
MODEL 2
REMARK VINA RESULT:      -7.3      0.116      1.732
REMARK SMILES O=C(O)CCc1ccccc1
REMARK SMILES IDX 4 1 2 2 1 3 3 4 5 6 6 7 7 8 11 9 8 10 10 11 9 12
REMARK H PARENT 3 5
REMARK Flexibility Score: inf
ROOT
ATOM      1  C   UNL     1       8.402  -0.617  -2.125  1.00  0.00     0.127 C 
ENDROOT
BRANCH   1   2
ATOM      2  C   UNL     1       8.369  -1.890  -2.883  1.00  0.00     0.303 C 
ATOM      3  O   UNL     1       7.282  -2.404  -3.245  1.00  0.00    -0.252 OA
BRANCH   2   4
ATOM      4  O   UNL     1       9.542  -2.549  -3.215  1.00  0.00    -0.481 OA
ATOM      5  H   UNL     1       9.701  -2.830  -4.187  1.00  0.00     0.296 HD
ENDBRANCH   2   4
ENDBRANCH   1   2
BRANCH   1   6
ATOM      6  C   UNL     1       7.013  -0.057  -2.085  1.00  0.00     0.047 C 
BRANCH   6   7
ATOM      7  C   UNL     1       6.464   0.078  -0.737  1.00  0.00    -0.047 A 
ATOM      8  C   UNL     1       6.598  -0.938   0.181  1.00  0.00     0.004 A 
ATOM      9  C   UNL     1       5.810   1.238  -0.391  1.00  0.00     0.004 A 
ATOM     10  C   UNL     1       6.050  -0.740   1.451  1.00  0.00     0.000 A 
ATOM     11  C   UNL     1       5.269   1.431   0.864  1.00  0.00     0.000 A 
ATOM     12  C   UNL     1       5.398   0.419   1.790  1.00  0.00     0.000 A 
ENDBRANCH   6   7
ENDBRANCH   1   6
TORSDOF 4
ENDMDL
MODEL 3
REMARK VINA RESULT:      -7.2      0.665      1.111
REMARK SMILES O=C(O)CCc1ccccc1
REMARK SMILES IDX 4 1 2 2 1 3 3 4 5 6 6 7 7 8 11 9 8 10 10 11 9 12
REMARK H PARENT 3 5
REMARK Flexibility Score: inf
ROOT
ATOM      1  C   UNL     1       8.320  -0.963  -1.818  1.00  0.00     0.127 C 
ENDROOT
BRANCH   1   2
ATOM      2  C   UNL     1       8.428  -2.044  -2.826  1.00  0.00     0.303 C 
ATOM      3  O   UNL     1       9.539  -2.545  -3.127  1.00  0.00    -0.252 OA
BRANCH   2   4
ATOM      4  O   UNL     1       7.300  -2.531  -3.467  1.00  0.00    -0.481 OA
ATOM      5  H   UNL     1       7.322  -3.470  -3.874  1.00  0.00     0.296 HD
ENDBRANCH   2   4
ENDBRANCH   1   2
BRANCH   1   6
ATOM      6  C   UNL     1       7.380  -1.415  -0.742  1.00  0.00     0.047 C 
BRANCH   6   7
ATOM      7  C   UNL     1       6.566  -0.341  -0.175  1.00  0.00    -0.047 A 
ATOM      8  C   UNL     1       6.245   0.768  -0.922  1.00  0.00     0.004 A 
ATOM      9  C   UNL     1       6.119  -0.451   1.122  1.00  0.00     0.004 A 
ATOM     10  C   UNL     1       5.463   1.754  -0.316  1.00  0.00     0.000 A 
ATOM     11  C   UNL     1       5.347   0.525   1.720  1.00  0.00     0.000 A 
ATOM     12  C   UNL     1       5.021   1.640   0.978  1.00  0.00     0.000 A 
ENDBRANCH   6   7
ENDBRANCH   1   6
TORSDOF 4
ENDMDL
MODEL 4
REMARK VINA RESULT:      -7.1      0.667      1.892
REMARK SMILES O=C(O)CCc1ccccc1
REMARK SMILES IDX 4 1 2 2 1 3 3 4 5 6 6 7 7 8 11 9 8 10 10 11 9 12
REMARK H PARENT 3 5
REMARK Flexibility Score: inf
ROOT
ATOM      1  C   UNL     1       8.313  -0.974  -1.747  1.00  0.00     0.127 C 
ENDROOT
BRANCH   1   2
ATOM      2  C   UNL     1       8.333  -2.004  -2.813  1.00  0.00     0.303 C 
ATOM      3  O   UNL     1       7.269  -2.429  -3.328  1.00  0.00    -0.252 OA
BRANCH   2   4
ATOM      4  O   UNL     1       9.531  -2.527  -3.272  1.00  0.00    -0.481 OA
ATOM      5  H   UNL     1       9.840  -2.312  -4.225  1.00  0.00     0.296 HD
ENDBRANCH   2   4
ENDBRANCH   1   2
BRANCH   1   6
ATOM      6  C   UNL     1       7.391  -1.439  -0.662  1.00  0.00     0.047 C 
BRANCH   6   7
ATOM      7  C   UNL     1       6.567  -0.377  -0.086  1.00  0.00    -0.047 A 
ATOM      8  C   UNL     1       6.104  -0.468   1.206  1.00  0.00     0.004 A 
ATOM      9  C   UNL     1       6.260   0.724  -0.852  1.00  0.00     0.004 A 
ATOM     10  C   UNL     1       5.324   0.584   1.691  1.00  0.00     0.000 A 
ATOM     11  C   UNL     1       5.488   1.763  -0.371  1.00  0.00     0.000 A 
ATOM     12  C   UNL     1       5.019   1.679   0.922  1.00  0.00     0.000 A 
ENDBRANCH   6   7
ENDBRANCH   1   6
TORSDOF 4
ENDMDL
MODEL 5
REMARK VINA RESULT:      -6.8      3.383      5.083
REMARK SMILES O=C(O)CCc1ccccc1
REMARK SMILES IDX 4 1 2 2 1 3 3 4 5 6 6 7 7 8 11 9 8 10 10 11 9 12
REMARK H PARENT 3 5
REMARK Flexibility Score: inf
ROOT
ATOM      1  C   UNL     1       4.983   1.798   0.694  1.00  0.00     0.127 C 
ENDROOT
BRANCH   1   2
ATOM      2  C   UNL     1       4.472   1.118   1.907  1.00  0.00     0.303 C 
ATOM      3  O   UNL     1       5.131   0.209   2.470  1.00  0.00    -0.252 OA
BRANCH   2   4
ATOM      4  O   UNL     1       3.249   1.468   2.455  1.00  0.00    -0.481 OA
ATOM      5  H   UNL     1       3.224   1.956   3.355  1.00  0.00     0.296 HD
ENDBRANCH   2   4
ENDBRANCH   1   2
BRANCH   1   6
ATOM      6  C   UNL     1       6.481   1.788   0.744  1.00  0.00     0.047 C 
BRANCH   6   7
ATOM      7  C   UNL     1       7.107   1.032  -0.340  1.00  0.00    -0.047 A 
ATOM      8  C   UNL     1       6.382   0.120  -1.072  1.00  0.00     0.004 A 
ATOM      9  C   UNL     1       8.435   1.245  -0.626  1.00  0.00     0.004 A 
ATOM     10  C   UNL     1       7.044  -0.564  -2.093  1.00  0.00     0.000 A 
ATOM     11  C   UNL     1       9.089   0.567  -1.636  1.00  0.00     0.000 A 
ATOM     12  C   UNL     1       8.370  -0.349  -2.373  1.00  0.00     0.000 A 
ENDBRANCH   6   7
ENDBRANCH   1   6
TORSDOF 4
ENDMDL
