@<TRIPOS>MOLECULE
/home/cewinharhar/GITHUB/reincatalyze/data/processed/docking_pred/2023-Apr-26-1657_maxeplen10_maxtrainstep1000_exh32_gamma099_lrac9e-4_lrcr1e-3/64ade7361adfbcba1ebdf367c3e16aacabd62181_ligand_2.pdbqt
 12 12 0 0 0
SMALL
GASTEIGER

@<TRIPOS>ATOM
      1  C          4.9830    1.7980    0.6940 C.3     1  UNL1        0.1270
      2  C          4.4720    1.1180    1.9070 C.2     1  UNL1        0.3030
      3  O          5.1310    0.2090    2.4700 O.2     1  UNL1       -0.2520
      4  O          3.2490    1.4680    2.4550 O.3     1  UNL1       -0.4810
      5  H          3.2240    1.9560    3.3550 H       1  UNL1        0.2960
      6  C          6.4810    1.7880    0.7440 C.3     1  UNL1        0.0470
      7  C          7.1070    1.0320   -0.3400 C.2     1  UNL1       -0.0470
      8  C          6.3820    0.1200   -1.0720 C.2     1  UNL1        0.0040
      9  C          8.4350    1.2450   -0.6260 C.2     1  UNL1        0.0040
     10  C          7.0440   -0.5640   -2.0930 C.2     1  UNL1        0.0000
     11  C          9.0890    0.5670   -1.6360 C.2     1  UNL1        0.0000
     12  C          8.3700   -0.3490   -2.3730 C.2     1  UNL1        0.0000
@<TRIPOS>BOND
     1    12    10    2
     2    12    11    1
     3    10     8    1
     4    11     9    2
     5     8     7    2
     6     9     7    1
     7     7     6    1
     8     1     6    1
     9     1     2    1
    10     2     4    1
    11     2     3    2
    12     4     5    1
