@<TRIPOS>MOLECULE
/home/cewinharhar/GITHUB/reincatalyze/data/processed/docking_pred/2023-Apr-26-1657_maxeplen10_maxtrainstep1000_exh32_gamma099_lrac9e-4_lrcr1e-3/64ade7361adfbcba1ebdf367c3e16aacabd62181_ligand_2.pdbqt
 12 12 0 0 0
SMALL
GASTEIGER

@<TRIPOS>ATOM
      1  C          8.4020   -0.6170   -2.1250 C.3     1  UNL1        0.1270
      2  C          8.3690   -1.8900   -2.8830 C.2     1  UNL1        0.3030
      3  O          7.2820   -2.4040   -3.2450 O.2     1  UNL1       -0.2520
      4  O          9.5420   -2.5490   -3.2150 O.3     1  UNL1       -0.4810
      5  H          9.7010   -2.8300   -4.1870 H       1  UNL1        0.2960
      6  C          7.0130   -0.0570   -2.0850 C.3     1  UNL1        0.0470
      7  C          6.4640    0.0780   -0.7370 C.2     1  UNL1       -0.0470
      8  C          6.5980   -0.9380    0.1810 C.2     1  UNL1        0.0040
      9  C          5.8100    1.2380   -0.3910 C.2     1  UNL1        0.0040
     10  C          6.0500   -0.7400    1.4510 C.2     1  UNL1        0.0000
     11  C          5.2690    1.4310    0.8640 C.2     1  UNL1        0.0000
     12  C          5.3980    0.4190    1.7900 C.2     1  UNL1        0.0000
@<TRIPOS>BOND
     1     5     4    1
     2     3     2    2
     3     4     2    1
     4     2     1    1
     5     1     6    1
     6     6     7    1
     7     7     9    2
     8     7     8    1
     9     9    11    1
    10     8    10    2
    11    11    12    2
    12    10    12    1
