@<TRIPOS>MOLECULE
/home/cewinharhar/GITHUB/reincatalyze/data/processed/docking_pred/2023-Apr-26-1657_maxeplen10_maxtrainstep1000_exh32_gamma099_lrac9e-4_lrcr1e-3/64ade7361adfbcba1ebdf367c3e16aacabd62181_ligand_2.pdbqt
 12 12 0 0 0
SMALL
GASTEIGER

@<TRIPOS>ATOM
      1  C          8.3130   -0.9740   -1.7470 C.3     1  UNL1        0.1270
      2  C          8.3330   -2.0040   -2.8130 C.2     1  UNL1        0.3030
      3  O          7.2690   -2.4290   -3.3280 O.2     1  UNL1       -0.2520
      4  O          9.5310   -2.5270   -3.2720 O.3     1  UNL1       -0.4810
      5  H          9.8400   -2.3120   -4.2250 H       1  UNL1        0.2960
      6  C          7.3910   -1.4390   -0.6620 C.3     1  UNL1        0.0470
      7  C          6.5670   -0.3770   -0.0860 C.2     1  UNL1       -0.0470
      8  C          6.1040   -0.4680    1.2060 C.2     1  UNL1        0.0040
      9  C          6.2600    0.7240   -0.8520 C.2     1  UNL1        0.0040
     10  C          5.3240    0.5840    1.6910 C.2     1  UNL1        0.0000
     11  C          5.4880    1.7630   -0.3710 C.2     1  UNL1        0.0000
     12  C          5.0190    1.6790    0.9220 C.2     1  UNL1        0.0000
@<TRIPOS>BOND
     1     5     4    1
     2     3     2    2
     3     4     2    1
     4     2     1    1
     5     1     6    1
     6     9    11    1
     7     9     7    2
     8     6     7    1
     9    11    12    2
    10     7     8    1
    11    12    10    1
    12     8    10    2
