@<TRIPOS>MOLECULE
/home/cewinharhar/GITHUB/reincatalyze/data/processed/docking_pred/2023-Apr-26-1657_maxeplen10_maxtrainstep1000_exh32_gamma099_lrac9e-4_lrcr1e-3/64ade7361adfbcba1ebdf367c3e16aacabd62181_ligand_2.pdbqt
 12 12 0 0 0
SMALL
GASTEIGER

@<TRIPOS>ATOM
      1  C          8.3200   -0.9630   -1.8180 C.3     1  UNL1        0.1270
      2  C          8.4280   -2.0440   -2.8260 C.2     1  UNL1        0.3030
      3  O          9.5390   -2.5450   -3.1270 O.2     1  UNL1       -0.2520
      4  O          7.3000   -2.5310   -3.4670 O.3     1  UNL1       -0.4810
      5  H          7.3220   -3.4700   -3.8740 H       1  UNL1        0.2960
      6  C          7.3800   -1.4150   -0.7420 C.3     1  UNL1        0.0470
      7  C          6.5660   -0.3410   -0.1750 C.2     1  UNL1       -0.0470
      8  C          6.2450    0.7680   -0.9220 C.2     1  UNL1        0.0040
      9  C          6.1190   -0.4510    1.1220 C.2     1  UNL1        0.0040
     10  C          5.4630    1.7540   -0.3160 C.2     1  UNL1        0.0000
     11  C          5.3470    0.5250    1.7200 C.2     1  UNL1        0.0000
     12  C          5.0210    1.6400    0.9780 C.2     1  UNL1        0.0000
@<TRIPOS>BOND
     1     5     4    1
     2     4     2    1
     3     3     2    2
     4     2     1    1
     5     1     6    1
     6     8    10    1
     7     8     7    2
     8     6     7    1
     9    10    12    2
    10     7     9    1
    11    12    11    1
    12     9    11    2
