@<TRIPOS>MOLECULE
/home/cewinharhar/GITHUB/reincatalyze/data/processed/docking_pred/2023-Apr-26-1657_maxeplen10_maxtrainstep1000_exh32_gamma099_lrac9e-4_lrcr1e-3/650932a4c96e02f0afcc120cab6b741f416c7ae8_ligand_2.pdbqt
 12 12 0 0 0
SMALL
GASTEIGER

@<TRIPOS>ATOM
      1  C          5.0350    1.7430    0.6940 C.3     1  UNL1        0.1270
      2  C          4.6050    1.0420    1.9260 C.2     1  UNL1        0.3030
      3  O          5.3480    0.1990    2.4880 O.2     1  UNL1       -0.2520
      4  O          3.3680    1.2990    2.4940 O.3     1  UNL1       -0.4810
      5  H          2.5960    0.6460    2.3290 H       1  UNL1        0.2960
      6  C          6.5320    1.8050    0.6850 C.3     1  UNL1        0.0470
      7  C          7.1530    1.0180   -0.3790 C.2     1  UNL1       -0.0470
      8  C          6.4070    0.1450   -1.1350 C.2     1  UNL1        0.0040
      9  C          8.5000    1.1600   -0.6200 C.2     1  UNL1        0.0040
     10  C          7.0660   -0.5740   -2.1350 C.2     1  UNL1        0.0000
     11  C          9.1500    0.4490   -1.6090 C.2     1  UNL1        0.0000
     12  C          8.4100   -0.4280   -2.3710 C.2     1  UNL1        0.0000
@<TRIPOS>BOND
     1    12    10    2
     2    12    11    1
     3    10     8    1
     4    11     9    2
     5     8     7    2
     6     9     7    1
     7     7     6    1
     8     6     1    1
     9     1     2    1
    10     2     3    2
    11     2     4    1
    12     5     4    1
