@<TRIPOS>MOLECULE
/home/cewinharhar/GITHUB/reincatalyze/data/processed/docking_pred/2023-Apr-26-1657_maxeplen10_maxtrainstep1000_exh32_gamma099_lrac9e-4_lrcr1e-3/650932a4c96e02f0afcc120cab6b741f416c7ae8_ligand_2.pdbqt
 12 12 0 0 0
SMALL
GASTEIGER

@<TRIPOS>ATOM
      1  C          8.4080   -0.6190   -2.1160 C.3     1  UNL1        0.1270
      2  C          8.3840   -1.8840   -2.8880 C.2     1  UNL1        0.3030
      3  O          7.2990   -2.4170   -3.2300 O.2     1  UNL1       -0.2520
      4  O          9.5620   -2.5150   -3.2550 O.3     1  UNL1       -0.4810
      5  H          9.7420   -2.7040   -4.2450 H       1  UNL1        0.2960
      6  C          7.0200   -0.0560   -2.0910 C.3     1  UNL1        0.0470
      7  C          6.4650    0.1000   -0.7480 C.2     1  UNL1       -0.0470
      8  C          5.8250    1.2610   -0.3810 C.2     1  UNL1        0.0040
      9  C          6.5880   -0.9330    0.1530 C.2     1  UNL1        0.0040
     10  C          5.3190    1.3390    0.9180 C.2     1  UNL1        0.0000
     11  C          6.0870   -0.8540    1.4370 C.2     1  UNL1        0.0000
     12  C          5.4450    0.3060    1.8120 C.2     1  UNL1        0.0000
@<TRIPOS>BOND
     1     5     4    1
     2     4     2    1
     3     3     2    2
     4     2     1    1
     5     1     6    1
     6     6     7    1
     7     7     8    2
     8     7     9    1
     9     8    10    1
    10     9    11    2
    11    10    12    2
    12    11    12    1
