@<TRIPOS>MOLECULE
/home/cewinharhar/GITHUB/reincatalyze/data/processed/docking_pred/2023-Apr-26-1657_maxeplen10_maxtrainstep1000_exh32_gamma099_lrac9e-4_lrcr1e-3/650932a4c96e02f0afcc120cab6b741f416c7ae8_ligand_2.pdbqt
 12 12 0 0 0
SMALL
GASTEIGER

@<TRIPOS>ATOM
      1  C          8.1860    0.2930   -2.0840 C.3     1  UNL1        0.1270
      2  C          9.3630    0.3670   -1.1870 C.2     1  UNL1        0.3030
      3  O          9.4750   -0.3970   -0.1960 O.2     1  UNL1       -0.2520
      4  O         10.3750    1.2840   -1.4180 O.3     1  UNL1       -0.4810
      5  H         10.8760    1.6880   -0.6220 H       1  UNL1        0.2960
      6  C          7.1450   -0.5610   -1.4250 C.3     1  UNL1        0.0470
      7  C          6.3580    0.1380   -0.4100 C.2     1  UNL1       -0.0470
      8  C          5.8010    1.3680   -0.6760 C.2     1  UNL1        0.0040
      9  C          6.1760   -0.4490    0.8200 C.2     1  UNL1        0.0040
     10  C          5.0610    1.9770    0.3400 C.2     1  UNL1        0.0000
     11  C          5.4440    0.1540    1.8230 C.2     1  UNL1        0.0000
     12  C          4.8830    1.3870    1.5660 C.2     1  UNL1        0.0000
@<TRIPOS>BOND
     1     1     6    1
     2     1     2    1
     3     6     7    1
     4     4     2    1
     5     4     5    1
     6     2     3    2
     7     8     7    2
     8     8    10    1
     9     7     9    1
    10    10    12    2
    11     9    11    2
    12    12    11    1
