MODEL 1
REMARK VINA RESULT:      -7.4      0.000      0.000
REMARK SMILES O=C(O)CCc1ccccc1
REMARK SMILES IDX 4 1 2 2 1 3 3 4 5 6 6 7 7 8 11 9 8 10 10 11 9 12
REMARK H PARENT 3 5
REMARK Flexibility Score: inf
ROOT
ATOM      1  C   UNL     1       8.480  -0.613  -2.171  1.00  0.00     0.127 C 
ENDROOT
BRANCH   1   2
ATOM      2  C   UNL     1       8.495  -1.894  -2.915  1.00  0.00     0.303 C 
ATOM      3  O   UNL     1       9.565  -2.523  -3.106  1.00  0.00    -0.252 OA
BRANCH   2   4
ATOM      4  O   UNL     1       7.325  -2.434  -3.423  1.00  0.00    -0.481 OA
ATOM      5  H   UNL     1       7.371  -3.278  -4.000  1.00  0.00     0.296 HD
ENDBRANCH   2   4
ENDBRANCH   1   2
BRANCH   1   6
ATOM      6  C   UNL     1       7.073  -0.099  -2.147  1.00  0.00     0.047 C 
BRANCH   6   7
ATOM      7  C   UNL     1       6.517   0.049  -0.803  1.00  0.00    -0.047 A 
ATOM      8  C   UNL     1       6.643  -0.959   0.125  1.00  0.00     0.004 A 
ATOM      9  C   UNL     1       5.864   1.213  -0.471  1.00  0.00     0.004 A 
ATOM     10  C   UNL     1       6.088  -0.748   1.389  1.00  0.00     0.000 A 
ATOM     11  C   UNL     1       5.315   1.419   0.779  1.00  0.00     0.000 A 
ATOM     12  C   UNL     1       5.437   0.415   1.715  1.00  0.00     0.000 A 
ENDBRANCH   6   7
ENDBRANCH   1   6
TORSDOF 4
ENDMDL
MODEL 2
REMARK VINA RESULT:      -7.3      0.126      1.732
REMARK SMILES O=C(O)CCc1ccccc1
REMARK SMILES IDX 4 1 2 2 1 3 3 4 5 6 6 7 7 8 11 9 8 10 10 11 9 12
REMARK H PARENT 3 5
REMARK Flexibility Score: inf
ROOT
ATOM      1  C   UNL     1       8.408  -0.619  -2.116  1.00  0.00     0.127 C 
ENDROOT
BRANCH   1   2
ATOM      2  C   UNL     1       8.384  -1.884  -2.888  1.00  0.00     0.303 C 
ATOM      3  O   UNL     1       7.299  -2.417  -3.230  1.00  0.00    -0.252 OA
BRANCH   2   4
ATOM      4  O   UNL     1       9.562  -2.515  -3.255  1.00  0.00    -0.481 OA
ATOM      5  H   UNL     1       9.742  -2.704  -4.245  1.00  0.00     0.296 HD
ENDBRANCH   2   4
ENDBRANCH   1   2
BRANCH   1   6
ATOM      6  C   UNL     1       7.020  -0.056  -2.091  1.00  0.00     0.047 C 
BRANCH   6   7
ATOM      7  C   UNL     1       6.465   0.100  -0.748  1.00  0.00    -0.047 A 
ATOM      8  C   UNL     1       5.825   1.261  -0.381  1.00  0.00     0.004 A 
ATOM      9  C   UNL     1       6.588  -0.933   0.153  1.00  0.00     0.004 A 
ATOM     10  C   UNL     1       5.319   1.339   0.918  1.00  0.00     0.000 A 
ATOM     11  C   UNL     1       6.087  -0.854   1.437  1.00  0.00     0.000 A 
ATOM     12  C   UNL     1       5.445   0.306   1.812  1.00  0.00     0.000 A 
ENDBRANCH   6   7
ENDBRANCH   1   6
TORSDOF 4
ENDMDL
MODEL 3
REMARK VINA RESULT:      -6.8      3.336      5.029
REMARK SMILES O=C(O)CCc1ccccc1
REMARK SMILES IDX 4 1 2 2 1 3 3 4 5 6 6 7 7 8 11 9 8 10 10 11 9 12
REMARK H PARENT 3 5
REMARK Flexibility Score: inf
ROOT
ATOM      1  C   UNL     1       5.035   1.743   0.694  1.00  0.00     0.127 C 
ENDROOT
BRANCH   1   2
ATOM      2  C   UNL     1       4.605   1.042   1.926  1.00  0.00     0.303 C 
ATOM      3  O   UNL     1       5.348   0.199   2.488  1.00  0.00    -0.252 OA
BRANCH   2   4
ATOM      4  O   UNL     1       3.368   1.299   2.494  1.00  0.00    -0.481 OA
ATOM      5  H   UNL     1       2.596   0.646   2.329  1.00  0.00     0.296 HD
ENDBRANCH   2   4
ENDBRANCH   1   2
BRANCH   1   6
ATOM      6  C   UNL     1       6.532   1.805   0.685  1.00  0.00     0.047 C 
BRANCH   6   7
ATOM      7  C   UNL     1       7.153   1.018  -0.379  1.00  0.00    -0.047 A 
ATOM      8  C   UNL     1       6.407   0.145  -1.135  1.00  0.00     0.004 A 
ATOM      9  C   UNL     1       8.500   1.160  -0.620  1.00  0.00     0.004 A 
ATOM     10  C   UNL     1       7.066  -0.574  -2.135  1.00  0.00     0.000 A 
ATOM     11  C   UNL     1       9.150   0.449  -1.609  1.00  0.00     0.000 A 
ATOM     12  C   UNL     1       8.410  -0.428  -2.371  1.00  0.00     0.000 A 
ENDBRANCH   6   7
ENDBRANCH   1   6
TORSDOF 4
ENDMDL
MODEL 4
REMARK VINA RESULT:      -6.7      1.947      2.623
REMARK SMILES O=C(O)CCc1ccccc1
REMARK SMILES IDX 4 1 2 2 1 3 3 4 5 6 6 7 7 8 11 9 8 10 10 11 9 12
REMARK H PARENT 3 5
REMARK Flexibility Score: inf
ROOT
ATOM      1  C   UNL     1       8.186   0.293  -2.084  1.00  0.00     0.127 C 
ENDROOT
BRANCH   1   2
ATOM      2  C   UNL     1       9.363   0.367  -1.187  1.00  0.00     0.303 C 
ATOM      3  O   UNL     1       9.475  -0.397  -0.196  1.00  0.00    -0.252 OA
BRANCH   2   4
ATOM      4  O   UNL     1      10.375   1.284  -1.418  1.00  0.00    -0.481 OA
ATOM      5  H   UNL     1      10.876   1.688  -0.622  1.00  0.00     0.296 HD
ENDBRANCH   2   4
ENDBRANCH   1   2
BRANCH   1   6
ATOM      6  C   UNL     1       7.145  -0.561  -1.425  1.00  0.00     0.047 C 
BRANCH   6   7
ATOM      7  C   UNL     1       6.358   0.138  -0.410  1.00  0.00    -0.047 A 
ATOM      8  C   UNL     1       5.801   1.368  -0.676  1.00  0.00     0.004 A 
ATOM      9  C   UNL     1       6.176  -0.449   0.820  1.00  0.00     0.004 A 
ATOM     10  C   UNL     1       5.061   1.977   0.340  1.00  0.00     0.000 A 
ATOM     11  C   UNL     1       5.444   0.154   1.823  1.00  0.00     0.000 A 
ATOM     12  C   UNL     1       4.883   1.387   1.566  1.00  0.00     0.000 A 
ENDBRANCH   6   7
ENDBRANCH   1   6
TORSDOF 4
ENDMDL
MODEL 5
REMARK VINA RESULT:      -6.6      3.709      4.974
REMARK SMILES O=C(O)CCc1ccccc1
REMARK SMILES IDX 4 1 2 2 1 3 3 4 5 6 6 7 7 8 11 9 8 10 10 11 9 12
REMARK H PARENT 3 5
REMARK Flexibility Score: inf
ROOT
ATOM      1  C   UNL     1       5.341   2.942   0.076  1.00  0.00     0.127 C 
ENDROOT
BRANCH   1   2
ATOM      2  C   UNL     1       6.210   3.871   0.837  1.00  0.00     0.303 C 
ATOM      3  O   UNL     1       6.862   4.774   0.257  1.00  0.00    -0.252 OA
BRANCH   2   4
ATOM      4  O   UNL     1       6.326   3.767   2.214  1.00  0.00    -0.481 OA
ATOM      5  H   UNL     1       7.253   3.643   2.630  1.00  0.00     0.296 HD
ENDBRANCH   2   4
ENDBRANCH   1   2
BRANCH   1   6
ATOM      6  C   UNL     1       5.250   1.654   0.836  1.00  0.00     0.047 C 
BRANCH   6   7
ATOM      7  C   UNL     1       6.012   0.558   0.240  1.00  0.00    -0.047 A 
ATOM      8  C   UNL     1       6.410  -0.516   1.002  1.00  0.00     0.004 A 
ATOM      9  C   UNL     1       6.328   0.609  -1.097  1.00  0.00     0.004 A 
ATOM     10  C   UNL     1       7.135  -1.528   0.367  1.00  0.00     0.000 A 
ATOM     11  C   UNL     1       7.045  -0.392  -1.724  1.00  0.00     0.000 A 
ATOM     12  C   UNL     1       7.448  -1.471  -0.968  1.00  0.00     0.000 A 
ENDBRANCH   6   7
ENDBRANCH   1   6
TORSDOF 4
ENDMDL
