@<TRIPOS>MOLECULE
/home/cewinharhar/GITHUB/reincatalyze/data/processed/docking_pred/2023-Apr-26-1657_maxeplen10_maxtrainstep1000_exh32_gamma099_lrac9e-4_lrcr1e-3/650932a4c96e02f0afcc120cab6b741f416c7ae8_ligand_2.pdbqt
 12 12 0 0 0
SMALL
GASTEIGER

@<TRIPOS>ATOM
      1  C          5.3410    2.9420    0.0760 C.3     1  UNL1        0.1270
      2  C          6.2100    3.8710    0.8370 C.2     1  UNL1        0.3030
      3  O          6.8620    4.7740    0.2570 O.2     1  UNL1       -0.2520
      4  O          6.3260    3.7670    2.2140 O.3     1  UNL1       -0.4810
      5  H          7.2530    3.6430    2.6300 H       1  UNL1        0.2960
      6  C          5.2500    1.6540    0.8360 C.3     1  UNL1        0.0470
      7  C          6.0120    0.5580    0.2400 C.2     1  UNL1       -0.0470
      8  C          6.4100   -0.5160    1.0020 C.2     1  UNL1        0.0040
      9  C          6.3280    0.6090   -1.0970 C.2     1  UNL1        0.0040
     10  C          7.1350   -1.5280    0.3670 C.2     1  UNL1        0.0000
     11  C          7.0450   -0.3920   -1.7240 C.2     1  UNL1        0.0000
     12  C          7.4480   -1.4710   -0.9680 C.2     1  UNL1        0.0000
@<TRIPOS>BOND
     1    11     9    1
     2    11    12    2
     3     9     7    2
     4    12    10    1
     5     1     6    1
     6     1     2    1
     7     7     6    1
     8     7     8    1
     9     3     2    2
    10    10     8    2
    11     2     4    1
    12     4     5    1
