@<TRIPOS>MOLECULE
/home/cewinharhar/GITHUB/reincatalyze/data/processed/docking_pred/2023-Apr-26-1657_maxeplen10_maxtrainstep1000_exh32_gamma099_lrac9e-4_lrcr1e-3/650932a4c96e02f0afcc120cab6b741f416c7ae8_ligand_2.pdbqt
 12 12 0 0 0
SMALL
GASTEIGER

@<TRIPOS>ATOM
      1  C          8.4800   -0.6130   -2.1710 C.3     1  UNL1        0.1270
      2  C          8.4950   -1.8940   -2.9150 C.2     1  UNL1        0.3030
      3  O          9.5650   -2.5230   -3.1060 O.2     1  UNL1       -0.2520
      4  O          7.3250   -2.4340   -3.4230 O.3     1  UNL1       -0.4810
      5  H          7.3710   -3.2780   -4.0000 H       1  UNL1        0.2960
      6  C          7.0730   -0.0990   -2.1470 C.3     1  UNL1        0.0470
      7  C          6.5170    0.0490   -0.8030 C.2     1  UNL1       -0.0470
      8  C          6.6430   -0.9590    0.1250 C.2     1  UNL1        0.0040
      9  C          5.8640    1.2130   -0.4710 C.2     1  UNL1        0.0040
     10  C          6.0880   -0.7480    1.3890 C.2     1  UNL1        0.0000
     11  C          5.3150    1.4190    0.7790 C.2     1  UNL1        0.0000
     12  C          5.4370    0.4150    1.7150 C.2     1  UNL1        0.0000
@<TRIPOS>BOND
     1     5     4    1
     2     4     2    1
     3     3     2    2
     4     2     1    1
     5     1     6    1
     6     6     7    1
     7     7     9    2
     8     7     8    1
     9     9    11    1
    10     8    10    2
    11    11    12    2
    12    10    12    1
