@<TRIPOS>MOLECULE
/home/cewinharhar/GITHUB/reincatalyze/data/processed/docking_pred/2023-Apr-26-1657_maxeplen10_maxtrainstep1000_exh32_gamma099_lrac9e-4_lrcr1e-3/65610c622cc3bd86a4d466f03d6f61670904542e_ligand_2.pdbqt
 12 12 0 0 0
SMALL
GASTEIGER

@<TRIPOS>ATOM
      1  C          8.4200   -0.6390   -2.0910 C.3     1  UNL1        0.1270
      2  C          8.3880   -1.8950   -2.8770 C.2     1  UNL1        0.3030
      3  O          7.3010   -2.4160   -3.2280 O.2     1  UNL1       -0.2520
      4  O          9.5620   -2.5310   -3.2470 O.3     1  UNL1       -0.4810
      5  H          9.9790   -2.3240   -4.1590 H       1  UNL1        0.2960
      6  C          7.0420   -0.0510   -2.0880 C.3     1  UNL1        0.0470
      7  C          6.4680    0.1100   -0.7530 C.2     1  UNL1       -0.0470
      8  C          5.8110    1.2670   -0.4050 C.2     1  UNL1        0.0040
      9  C          6.5900   -0.9130    0.1590 C.2     1  UNL1        0.0040
     10  C          5.2880    1.3520    0.8870 C.2     1  UNL1        0.0000
     11  C          6.0720   -0.8280    1.4360 C.2     1  UNL1        0.0000
     12  C          5.4130    0.3280    1.7920 C.2     1  UNL1        0.0000
@<TRIPOS>BOND
     1     5     4    1
     2     4     2    1
     3     3     2    2
     4     2     1    1
     5     1     6    1
     6     6     7    1
     7     7     8    2
     8     7     9    1
     9     8    10    1
    10     9    11    2
    11    10    12    2
    12    11    12    1
