MODEL 1
REMARK VINA RESULT:      -7.3      0.000      0.000
REMARK SMILES O=C(O)CCc1ccccc1
REMARK SMILES IDX 4 1 2 2 1 3 3 4 5 6 6 7 7 8 11 9 8 10 10 11 9 12
REMARK H PARENT 3 5
REMARK Flexibility Score: inf
ROOT
ATOM      1  C   UNL     1       8.447  -0.575  -2.209  1.00  0.00     0.127 C 
ENDROOT
BRANCH   1   2
ATOM      2  C   UNL     1       8.488  -1.876  -2.918  1.00  0.00     0.303 C 
ATOM      3  O   UNL     1       9.571  -2.489  -3.089  1.00  0.00    -0.252 OA
BRANCH   2   4
ATOM      4  O   UNL     1       7.329  -2.452  -3.412  1.00  0.00    -0.481 OA
ATOM      5  H   UNL     1       6.726  -1.908  -4.035  1.00  0.00     0.296 HD
ENDBRANCH   2   4
ENDBRANCH   1   2
BRANCH   1   6
ATOM      6  C   UNL     1       7.023  -0.112  -2.157  1.00  0.00     0.047 C 
BRANCH   6   7
ATOM      7  C   UNL     1       6.494   0.031  -0.802  1.00  0.00    -0.047 A 
ATOM      8  C   UNL     1       6.616  -0.989   0.113  1.00  0.00     0.004 A 
ATOM      9  C   UNL     1       5.870   1.205  -0.445  1.00  0.00     0.004 A 
ATOM     10  C   UNL     1       6.088  -0.781   1.390  1.00  0.00     0.000 A 
ATOM     11  C   UNL     1       5.349   1.408   0.817  1.00  0.00     0.000 A 
ATOM     12  C   UNL     1       5.466   0.391   1.739  1.00  0.00     0.000 A 
ENDBRANCH   6   7
ENDBRANCH   1   6
TORSDOF 4
ENDMDL
MODEL 2
REMARK VINA RESULT:      -7.3      0.119      1.732
REMARK SMILES O=C(O)CCc1ccccc1
REMARK SMILES IDX 4 1 2 2 1 3 3 4 5 6 6 7 7 8 11 9 8 10 10 11 9 12
REMARK H PARENT 3 5
REMARK Flexibility Score: inf
ROOT
ATOM      1  C   UNL     1       8.420  -0.639  -2.091  1.00  0.00     0.127 C 
ENDROOT
BRANCH   1   2
ATOM      2  C   UNL     1       8.388  -1.895  -2.877  1.00  0.00     0.303 C 
ATOM      3  O   UNL     1       7.301  -2.416  -3.228  1.00  0.00    -0.252 OA
BRANCH   2   4
ATOM      4  O   UNL     1       9.562  -2.531  -3.247  1.00  0.00    -0.481 OA
ATOM      5  H   UNL     1       9.979  -2.324  -4.159  1.00  0.00     0.296 HD
ENDBRANCH   2   4
ENDBRANCH   1   2
BRANCH   1   6
ATOM      6  C   UNL     1       7.042  -0.051  -2.088  1.00  0.00     0.047 C 
BRANCH   6   7
ATOM      7  C   UNL     1       6.468   0.110  -0.753  1.00  0.00    -0.047 A 
ATOM      8  C   UNL     1       5.811   1.267  -0.405  1.00  0.00     0.004 A 
ATOM      9  C   UNL     1       6.590  -0.913   0.159  1.00  0.00     0.004 A 
ATOM     10  C   UNL     1       5.288   1.352   0.887  1.00  0.00     0.000 A 
ATOM     11  C   UNL     1       6.072  -0.828   1.436  1.00  0.00     0.000 A 
ATOM     12  C   UNL     1       5.413   0.328   1.792  1.00  0.00     0.000 A 
ENDBRANCH   6   7
ENDBRANCH   1   6
TORSDOF 4
ENDMDL
MODEL 3
REMARK VINA RESULT:      -6.8      3.366      5.064
REMARK SMILES O=C(O)CCc1ccccc1
REMARK SMILES IDX 4 1 2 2 1 3 3 4 5 6 6 7 7 8 11 9 8 10 10 11 9 12
REMARK H PARENT 3 5
REMARK Flexibility Score: inf
ROOT
ATOM      1  C   UNL     1       5.059   1.793   0.682  1.00  0.00     0.127 C 
ENDROOT
BRANCH   1   2
ATOM      2  C   UNL     1       4.539   1.124   1.898  1.00  0.00     0.303 C 
ATOM      3  O   UNL     1       5.201   0.232   2.484  1.00  0.00    -0.252 OA
BRANCH   2   4
ATOM      4  O   UNL     1       3.303   1.467   2.423  1.00  0.00    -0.481 OA
ATOM      5  H   UNL     1       2.736   0.747   2.879  1.00  0.00     0.296 HD
ENDBRANCH   2   4
ENDBRANCH   1   2
BRANCH   1   6
ATOM      6  C   UNL     1       6.556   1.772   0.738  1.00  0.00     0.047 C 
BRANCH   6   7
ATOM      7  C   UNL     1       7.181   1.019  -0.349  1.00  0.00    -0.047 A 
ATOM      8  C   UNL     1       8.505   1.213  -0.669  1.00  0.00     0.004 A 
ATOM      9  C   UNL     1       6.429   0.106  -1.052  1.00  0.00     0.004 A 
ATOM     10  C   UNL     1       9.035   0.458  -1.718  1.00  0.00     0.000 A 
ATOM     11  C   UNL     1       6.955  -0.638  -2.089  1.00  0.00     0.000 A 
ATOM     12  C   UNL     1       8.280  -0.450  -2.416  1.00  0.00     0.000 A 
ENDBRANCH   6   7
ENDBRANCH   1   6
TORSDOF 4
ENDMDL
MODEL 4
REMARK VINA RESULT:      -6.6      3.821      4.937
REMARK SMILES O=C(O)CCc1ccccc1
REMARK SMILES IDX 4 1 2 2 1 3 3 4 5 6 6 7 7 8 11 9 8 10 10 11 9 12
REMARK H PARENT 3 5
REMARK Flexibility Score: inf
ROOT
ATOM      1  C   UNL     1       5.441   2.791   0.054  1.00  0.00     0.127 C 
ENDROOT
BRANCH   1   2
ATOM      2  C   UNL     1       6.197   3.769   0.871  1.00  0.00     0.303 C 
ATOM      3  O   UNL     1       6.185   3.716   2.126  1.00  0.00    -0.252 OA
BRANCH   2   4
ATOM      4  O   UNL     1       6.939   4.773   0.271  1.00  0.00    -0.481 OA
ATOM      5  H   UNL     1       7.874   4.559  -0.087  1.00  0.00     0.296 HD
ENDBRANCH   2   4
ENDBRANCH   1   2
BRANCH   1   6
ATOM      6  C   UNL     1       4.931   1.713   0.961  1.00  0.00     0.047 C 
BRANCH   6   7
ATOM      7  C   UNL     1       5.750   0.503   0.966  1.00  0.00    -0.047 A 
ATOM      8  C   UNL     1       5.810  -0.302   2.080  1.00  0.00     0.004 A 
ATOM      9  C   UNL     1       6.465   0.171  -0.162  1.00  0.00     0.004 A 
ATOM     10  C   UNL     1       6.613  -1.443   2.013  1.00  0.00     0.000 A 
ATOM     11  C   UNL     1       7.258  -0.957  -0.226  1.00  0.00     0.000 A 
ATOM     12  C   UNL     1       7.324  -1.768   0.886  1.00  0.00     0.000 A 
ENDBRANCH   6   7
ENDBRANCH   1   6
TORSDOF 4
ENDMDL
MODEL 5
REMARK VINA RESULT:      -6.6      1.873      2.864
REMARK SMILES O=C(O)CCc1ccccc1
REMARK SMILES IDX 4 1 2 2 1 3 3 4 5 6 6 7 7 8 11 9 8 10 10 11 9 12
REMARK H PARENT 3 5
REMARK Flexibility Score: inf
ROOT
ATOM      1  C   UNL     1       8.251  -1.517   1.082  1.00  0.00     0.127 C 
ENDROOT
BRANCH   1   2
ATOM      2  C   UNL     1       8.503  -2.762   0.319  1.00  0.00     0.303 C 
ATOM      3  O   UNL     1       9.107  -3.733   0.839  1.00  0.00    -0.252 OA
BRANCH   2   4
ATOM      4  O   UNL     1       8.078  -2.889  -0.994  1.00  0.00    -0.481 OA
ATOM      5  H   UNL     1       7.209  -2.433  -1.285  1.00  0.00     0.296 HD
ENDBRANCH   2   4
ENDBRANCH   1   2
BRANCH   1   6
ATOM      6  C   UNL     1       6.774  -1.393   1.305  1.00  0.00     0.047 C 
BRANCH   6   7
ATOM      7  C   UNL     1       6.199  -0.150   0.794  1.00  0.00    -0.047 A 
ATOM      8  C   UNL     1       5.411   0.642   1.597  1.00  0.00     0.004 A 
ATOM      9  C   UNL     1       6.455   0.224  -0.504  1.00  0.00     0.004 A 
ATOM     10  C   UNL     1       4.895   1.816   1.043  1.00  0.00     0.000 A 
ATOM     11  C   UNL     1       5.944   1.385  -1.051  1.00  0.00     0.000 A 
ATOM     12  C   UNL     1       5.153   2.184  -0.254  1.00  0.00     0.000 A 
ENDBRANCH   6   7
ENDBRANCH   1   6
TORSDOF 4
ENDMDL
