@<TRIPOS>MOLECULE
/home/cewinharhar/GITHUB/reincatalyze/data/processed/docking_pred/2023-Apr-26-1657_maxeplen10_maxtrainstep1000_exh32_gamma099_lrac9e-4_lrcr1e-3/65610c622cc3bd86a4d466f03d6f61670904542e_ligand_2.pdbqt
 12 12 0 0 0
SMALL
GASTEIGER

@<TRIPOS>ATOM
      1  C          5.4410    2.7910    0.0540 C.3     1  UNL1        0.1270
      2  C          6.1970    3.7690    0.8710 C.2     1  UNL1        0.3030
      3  O          6.1850    3.7160    2.1260 O.2     1  UNL1       -0.2520
      4  O          6.9390    4.7730    0.2710 O.3     1  UNL1       -0.4810
      5  H          7.8740    4.5590   -0.0870 H       1  UNL1        0.2960
      6  C          4.9310    1.7130    0.9610 C.3     1  UNL1        0.0470
      7  C          5.7500    0.5030    0.9660 C.2     1  UNL1       -0.0470
      8  C          5.8100   -0.3020    2.0800 C.2     1  UNL1        0.0040
      9  C          6.4650    0.1710   -0.1620 C.2     1  UNL1        0.0040
     10  C          6.6130   -1.4430    2.0130 C.2     1  UNL1        0.0000
     11  C          7.2580   -0.9570   -0.2260 C.2     1  UNL1        0.0000
     12  C          7.3240   -1.7680    0.8860 C.2     1  UNL1        0.0000
@<TRIPOS>BOND
     1    11     9    1
     2    11    12    2
     3     9     7    2
     4     5     4    1
     5     1     2    1
     6     1     6    1
     7     4     2    1
     8     2     3    2
     9    12    10    1
    10     6     7    1
    11     7     8    1
    12    10     8    2
