@<TRIPOS>MOLECULE
/home/cewinharhar/GITHUB/reincatalyze/data/processed/docking_pred/2023-Apr-26-1657_maxeplen10_maxtrainstep1000_exh32_gamma099_lrac9e-4_lrcr1e-3/65610c622cc3bd86a4d466f03d6f61670904542e_ligand_2.pdbqt
 12 12 0 0 0
SMALL
GASTEIGER

@<TRIPOS>ATOM
      1  C          8.2510   -1.5170    1.0820 C.3     1  UNL1        0.1270
      2  C          8.5030   -2.7620    0.3190 C.2     1  UNL1        0.3030
      3  O          9.1070   -3.7330    0.8390 O.2     1  UNL1       -0.2520
      4  O          8.0780   -2.8890   -0.9940 O.3     1  UNL1       -0.4810
      5  H          7.2090   -2.4330   -1.2850 H       1  UNL1        0.2960
      6  C          6.7740   -1.3930    1.3050 C.3     1  UNL1        0.0470
      7  C          6.1990   -0.1500    0.7940 C.2     1  UNL1       -0.0470
      8  C          5.4110    0.6420    1.5970 C.2     1  UNL1        0.0040
      9  C          6.4550    0.2240   -0.5040 C.2     1  UNL1        0.0040
     10  C          4.8950    1.8160    1.0430 C.2     1  UNL1        0.0000
     11  C          5.9440    1.3850   -1.0510 C.2     1  UNL1        0.0000
     12  C          5.1530    2.1840   -0.2540 C.2     1  UNL1        0.0000
@<TRIPOS>BOND
     1     5     4    1
     2    11     9    1
     3    11    12    2
     4     4     2    1
     5     9     7    2
     6    12    10    1
     7     2     3    2
     8     2     1    1
     9     7     6    1
    10     7     8    1
    11    10     8    2
    12     1     6    1
