@<TRIPOS>MOLECULE
/home/cewinharhar/GITHUB/reincatalyze/data/processed/docking_pred/2023-Apr-26-1657_maxeplen10_maxtrainstep1000_exh32_gamma099_lrac9e-4_lrcr1e-3/65610c622cc3bd86a4d466f03d6f61670904542e_ligand_2.pdbqt
 12 12 0 0 0
SMALL
GASTEIGER

@<TRIPOS>ATOM
      1  C          5.0590    1.7930    0.6820 C.3     1  UNL1        0.1270
      2  C          4.5390    1.1240    1.8980 C.2     1  UNL1        0.3030
      3  O          5.2010    0.2320    2.4840 O.2     1  UNL1       -0.2520
      4  O          3.3030    1.4670    2.4230 O.3     1  UNL1       -0.4810
      5  H          2.7360    0.7470    2.8790 H       1  UNL1        0.2960
      6  C          6.5560    1.7720    0.7380 C.3     1  UNL1        0.0470
      7  C          7.1810    1.0190   -0.3490 C.2     1  UNL1       -0.0470
      8  C          8.5050    1.2130   -0.6690 C.2     1  UNL1        0.0040
      9  C          6.4290    0.1060   -1.0520 C.2     1  UNL1        0.0040
     10  C          9.0350    0.4580   -1.7180 C.2     1  UNL1        0.0000
     11  C          6.9550   -0.6380   -2.0890 C.2     1  UNL1        0.0000
     12  C          8.2800   -0.4500   -2.4160 C.2     1  UNL1        0.0000
@<TRIPOS>BOND
     1    12    11    2
     2    12    10    1
     3    11     9    1
     4    10     8    2
     5     9     7    2
     6     8     7    1
     7     7     6    1
     8     1     6    1
     9     1     2    1
    10     2     4    1
    11     2     3    2
    12     4     5    1
