MODEL 1
REMARK VINA RESULT:      -7.4      0.000      0.000
REMARK SMILES O=C(O)CCc1ccccc1
REMARK SMILES IDX 4 1 2 2 1 3 3 4 5 6 6 7 7 8 11 9 8 10 10 11 9 12
REMARK H PARENT 3 5
REMARK Flexibility Score: inf
ROOT
ATOM      1  C   UNL     1       8.471  -0.663  -2.087  1.00  0.00     0.127 C 
ENDROOT
BRANCH   1   2
ATOM      2  C   UNL     1       8.484  -1.914  -2.882  1.00  0.00     0.303 C 
ATOM      3  O   UNL     1       9.551  -2.543  -3.088  1.00  0.00    -0.252 OA
BRANCH   2   4
ATOM      4  O   UNL     1       7.314  -2.424  -3.421  1.00  0.00    -0.481 OA
ATOM      5  H   UNL     1       6.578  -1.779  -3.722  1.00  0.00     0.296 HD
ENDBRANCH   2   4
ENDBRANCH   1   2
BRANCH   1   6
ATOM      6  C   UNL     1       7.072  -0.127  -2.074  1.00  0.00     0.047 C 
BRANCH   6   7
ATOM      7  C   UNL     1       6.501   0.012  -0.736  1.00  0.00    -0.047 A 
ATOM      8  C   UNL     1       6.614  -1.003   0.186  1.00  0.00     0.004 A 
ATOM      9  C   UNL     1       5.846   1.175  -0.403  1.00  0.00     0.004 A 
ATOM     10  C   UNL     1       6.045  -0.801   1.446  1.00  0.00     0.000 A 
ATOM     11  C   UNL     1       5.284   1.373   0.842  1.00  0.00     0.000 A 
ATOM     12  C   UNL     1       5.392   0.361   1.772  1.00  0.00     0.000 A 
ENDBRANCH   6   7
ENDBRANCH   1   6
TORSDOF 4
ENDMDL
MODEL 2
REMARK VINA RESULT:      -7.3      0.061      1.437
REMARK SMILES O=C(O)CCc1ccccc1
REMARK SMILES IDX 4 1 2 2 1 3 3 4 5 6 6 7 7 8 11 9 8 10 10 11 9 12
REMARK H PARENT 3 5
REMARK Flexibility Score: inf
ROOT
ATOM      1  C   UNL     1       8.432  -0.678  -2.059  1.00  0.00     0.127 C 
ENDROOT
BRANCH   1   2
ATOM      2  C   UNL     1       8.452  -1.919  -2.870  1.00  0.00     0.303 C 
ATOM      3  O   UNL     1       9.521  -2.545  -3.074  1.00  0.00    -0.252 OA
BRANCH   2   4
ATOM      4  O   UNL     1       7.287  -2.422  -3.426  1.00  0.00    -0.481 OA
ATOM      5  H   UNL     1       6.886  -3.287  -3.053  1.00  0.00     0.296 HD
ENDBRANCH   2   4
ENDBRANCH   1   2
BRANCH   1   6
ATOM      6  C   UNL     1       7.033  -0.140  -2.056  1.00  0.00     0.047 C 
BRANCH   6   7
ATOM      7  C   UNL     1       6.468   0.041  -0.720  1.00  0.00    -0.047 A 
ATOM      8  C   UNL     1       5.843   1.216  -0.374  1.00  0.00     0.004 A 
ATOM      9  C   UNL     1       6.565  -0.983   0.194  1.00  0.00     0.004 A 
ATOM     10  C   UNL     1       5.326   1.319   0.919  1.00  0.00     0.000 A 
ATOM     11  C   UNL     1       6.053  -0.880   1.472  1.00  0.00     0.000 A 
ATOM     12  C   UNL     1       5.426   0.295   1.827  1.00  0.00     0.000 A 
ENDBRANCH   6   7
ENDBRANCH   1   6
TORSDOF 4
ENDMDL
MODEL 3
REMARK VINA RESULT:      -6.7      3.341      5.042
REMARK SMILES O=C(O)CCc1ccccc1
REMARK SMILES IDX 4 1 2 2 1 3 3 4 5 6 6 7 7 8 11 9 8 10 10 11 9 12
REMARK H PARENT 3 5
REMARK Flexibility Score: inf
ROOT
ATOM      1  C   UNL     1       5.030   1.734   0.656  1.00  0.00     0.127 C 
ENDROOT
BRANCH   1   2
ATOM      2  C   UNL     1       4.604   1.062   1.906  1.00  0.00     0.303 C 
ATOM      3  O   UNL     1       5.348   0.232   2.485  1.00  0.00    -0.252 OA
BRANCH   2   4
ATOM      4  O   UNL     1       3.368   1.332   2.472  1.00  0.00    -0.481 OA
ATOM      5  H   UNL     1       2.638   1.762   1.897  1.00  0.00     0.296 HD
ENDBRANCH   2   4
ENDBRANCH   1   2
BRANCH   1   6
ATOM      6  C   UNL     1       6.526   1.830   0.660  1.00  0.00     0.047 C 
BRANCH   6   7
ATOM      7  C   UNL     1       7.174   1.050  -0.393  1.00  0.00    -0.047 A 
ATOM      8  C   UNL     1       8.518   1.192  -0.647  1.00  0.00     0.004 A 
ATOM      9  C   UNL     1       6.423   0.165  -1.132  1.00  0.00     0.004 A 
ATOM     10  C   UNL     1       9.071   0.414  -1.667  1.00  0.00     0.000 A 
ATOM     11  C   UNL     1       6.971  -0.602  -2.141  1.00  0.00     0.000 A 
ATOM     12  C   UNL     1       8.317  -0.466  -2.402  1.00  0.00     0.000 A 
ENDBRANCH   6   7
ENDBRANCH   1   6
TORSDOF 4
ENDMDL
MODEL 4
REMARK VINA RESULT:      -6.7      1.920      2.308
REMARK SMILES O=C(O)CCc1ccccc1
REMARK SMILES IDX 4 1 2 2 1 3 3 4 5 6 6 7 7 8 11 9 8 10 10 11 9 12
REMARK H PARENT 3 5
REMARK Flexibility Score: inf
ROOT
ATOM      1  C   UNL     1       8.192   0.271  -2.249  1.00  0.00     0.127 C 
ENDROOT
BRANCH   1   2
ATOM      2  C   UNL     1       9.311   0.357  -1.281  1.00  0.00     0.303 C 
ATOM      3  O   UNL     1       9.389  -0.429  -0.305  1.00  0.00    -0.252 OA
BRANCH   2   4
ATOM      4  O   UNL     1      10.305   1.311  -1.428  1.00  0.00    -0.481 OA
ATOM      5  H   UNL     1      10.905   1.536  -0.630  1.00  0.00     0.296 HD
ENDBRANCH   2   4
ENDBRANCH   1   2
BRANCH   1   6
ATOM      6  C   UNL     1       7.063  -0.469  -1.598  1.00  0.00     0.047 C 
BRANCH   6   7
ATOM      7  C   UNL     1       6.305   0.330  -0.637  1.00  0.00    -0.047 A 
ATOM      8  C   UNL     1       6.093  -0.125   0.644  1.00  0.00     0.004 A 
ATOM      9  C   UNL     1       5.802   1.550  -1.026  1.00  0.00     0.004 A 
ATOM     10  C   UNL     1       5.361   0.690   1.509  1.00  0.00     0.000 A 
ATOM     11  C   UNL     1       5.078   2.355  -0.170  1.00  0.00     0.000 A 
ATOM     12  C   UNL     1       4.861   1.906   1.115  1.00  0.00     0.000 A 
ENDBRANCH   6   7
ENDBRANCH   1   6
TORSDOF 4
ENDMDL
MODEL 5
REMARK VINA RESULT:      -6.6      3.796      4.922
REMARK SMILES O=C(O)CCc1ccccc1
REMARK SMILES IDX 4 1 2 2 1 3 3 4 5 6 6 7 7 8 11 9 8 10 10 11 9 12
REMARK H PARENT 3 5
REMARK Flexibility Score: inf
ROOT
ATOM      1  C   UNL     1       5.440   2.876   0.070  1.00  0.00     0.127 C 
ENDROOT
BRANCH   1   2
ATOM      2  C   UNL     1       6.281   3.823   0.838  1.00  0.00     0.303 C 
ATOM      3  O   UNL     1       6.873   4.775   0.272  1.00  0.00    -0.252 OA
BRANCH   2   4
ATOM      4  O   UNL     1       6.440   3.682   2.208  1.00  0.00    -0.481 OA
ATOM      5  H   UNL     1       7.148   4.241   2.690  1.00  0.00     0.296 HD
ENDBRANCH   2   4
ENDBRANCH   1   2
BRANCH   1   6
ATOM      6  C   UNL     1       4.977   1.796   1.000  1.00  0.00     0.047 C 
BRANCH   6   7
ATOM      7  C   UNL     1       5.761   0.565   0.919  1.00  0.00    -0.047 A 
ATOM      8  C   UNL     1       5.757  -0.341   1.954  1.00  0.00     0.004 A 
ATOM      9  C   UNL     1       6.505   0.316  -0.211  1.00  0.00     0.004 A 
ATOM     10  C   UNL     1       6.529  -1.496   1.808  1.00  0.00     0.000 A 
ATOM     11  C   UNL     1       7.268  -0.826  -0.354  1.00  0.00     0.000 A 
ATOM     12  C   UNL     1       7.270  -1.738   0.679  1.00  0.00     0.000 A 
ENDBRANCH   6   7
ENDBRANCH   1   6
TORSDOF 4
ENDMDL
