@<TRIPOS>MOLECULE
/home/cewinharhar/GITHUB/reincatalyze/data/processed/docking_pred/2023-Apr-26-1657_maxeplen10_maxtrainstep1000_exh32_gamma099_lrac9e-4_lrcr1e-3/661305b30cebe31e235170a50c1781f21e405ac9_ligand_2.pdbqt
 12 12 0 0 0
SMALL
GASTEIGER

@<TRIPOS>ATOM
      1  C          5.0300    1.7340    0.6560 C.3     1  UNL1        0.1270
      2  C          4.6040    1.0620    1.9060 C.2     1  UNL1        0.3030
      3  O          5.3480    0.2320    2.4850 O.2     1  UNL1       -0.2520
      4  O          3.3680    1.3320    2.4720 O.3     1  UNL1       -0.4810
      5  H          2.6380    1.7620    1.8970 H       1  UNL1        0.2960
      6  C          6.5260    1.8300    0.6600 C.3     1  UNL1        0.0470
      7  C          7.1740    1.0500   -0.3930 C.2     1  UNL1       -0.0470
      8  C          8.5180    1.1920   -0.6470 C.2     1  UNL1        0.0040
      9  C          6.4230    0.1650   -1.1320 C.2     1  UNL1        0.0040
     10  C          9.0710    0.4140   -1.6670 C.2     1  UNL1        0.0000
     11  C          6.9710   -0.6020   -2.1410 C.2     1  UNL1        0.0000
     12  C          8.3170   -0.4660   -2.4020 C.2     1  UNL1        0.0000
@<TRIPOS>BOND
     1    12    11    2
     2    12    10    1
     3    11     9    1
     4    10     8    2
     5     9     7    2
     6     8     7    1
     7     7     6    1
     8     1     6    1
     9     1     2    1
    10     5     4    1
    11     2     4    1
    12     2     3    2
