@<TRIPOS>MOLECULE
/home/cewinharhar/GITHUB/reincatalyze/data/processed/docking_pred/2023-Apr-26-1657_maxeplen10_maxtrainstep1000_exh32_gamma099_lrac9e-4_lrcr1e-3/661305b30cebe31e235170a50c1781f21e405ac9_ligand_2.pdbqt
 12 12 0 0 0
SMALL
GASTEIGER

@<TRIPOS>ATOM
      1  C          8.4710   -0.6630   -2.0870 C.3     1  UNL1        0.1270
      2  C          8.4840   -1.9140   -2.8820 C.2     1  UNL1        0.3030
      3  O          9.5510   -2.5430   -3.0880 O.2     1  UNL1       -0.2520
      4  O          7.3140   -2.4240   -3.4210 O.3     1  UNL1       -0.4810
      5  H          6.5780   -1.7790   -3.7220 H       1  UNL1        0.2960
      6  C          7.0720   -0.1270   -2.0740 C.3     1  UNL1        0.0470
      7  C          6.5010    0.0120   -0.7360 C.2     1  UNL1       -0.0470
      8  C          6.6140   -1.0030    0.1860 C.2     1  UNL1        0.0040
      9  C          5.8460    1.1750   -0.4030 C.2     1  UNL1        0.0040
     10  C          6.0450   -0.8010    1.4460 C.2     1  UNL1        0.0000
     11  C          5.2840    1.3730    0.8420 C.2     1  UNL1        0.0000
     12  C          5.3920    0.3610    1.7720 C.2     1  UNL1        0.0000
@<TRIPOS>BOND
     1     5     4    1
     2     4     2    1
     3     3     2    2
     4     2     1    1
     5     1     6    1
     6     6     7    1
     7     7     9    2
     8     7     8    1
     9     9    11    1
    10     8    10    2
    11    11    12    2
    12    10    12    1
