@<TRIPOS>MOLECULE
/home/cewinharhar/GITHUB/reincatalyze/data/processed/docking_pred/2023-Apr-26-1657_maxeplen10_maxtrainstep1000_exh32_gamma099_lrac9e-4_lrcr1e-3/661305b30cebe31e235170a50c1781f21e405ac9_ligand_2.pdbqt
 12 12 0 0 0
SMALL
GASTEIGER

@<TRIPOS>ATOM
      1  C          8.4320   -0.6780   -2.0590 C.3     1  UNL1        0.1270
      2  C          8.4520   -1.9190   -2.8700 C.2     1  UNL1        0.3030
      3  O          9.5210   -2.5450   -3.0740 O.2     1  UNL1       -0.2520
      4  O          7.2870   -2.4220   -3.4260 O.3     1  UNL1       -0.4810
      5  H          6.8860   -3.2870   -3.0530 H       1  UNL1        0.2960
      6  C          7.0330   -0.1400   -2.0560 C.3     1  UNL1        0.0470
      7  C          6.4680    0.0410   -0.7200 C.2     1  UNL1       -0.0470
      8  C          5.8430    1.2160   -0.3740 C.2     1  UNL1        0.0040
      9  C          6.5650   -0.9830    0.1940 C.2     1  UNL1        0.0040
     10  C          5.3260    1.3190    0.9190 C.2     1  UNL1        0.0000
     11  C          6.0530   -0.8800    1.4720 C.2     1  UNL1        0.0000
     12  C          5.4260    0.2950    1.8270 C.2     1  UNL1        0.0000
@<TRIPOS>BOND
     1     4     5    1
     2     4     2    1
     3     3     2    2
     4     2     1    1
     5     1     6    1
     6     6     7    1
     7     7     8    2
     8     7     9    1
     9     8    10    1
    10     9    11    2
    11    10    12    2
    12    11    12    1
