@<TRIPOS>MOLECULE
/home/cewinharhar/GITHUB/reincatalyze/data/processed/docking_pred/2023-Apr-26-1657_maxeplen10_maxtrainstep1000_exh32_gamma099_lrac9e-4_lrcr1e-3/661305b30cebe31e235170a50c1781f21e405ac9_ligand_2.pdbqt
 12 12 0 0 0
SMALL
GASTEIGER

@<TRIPOS>ATOM
      1  C          5.4400    2.8760    0.0700 C.3     1  UNL1        0.1270
      2  C          6.2810    3.8230    0.8380 C.2     1  UNL1        0.3030
      3  O          6.8730    4.7750    0.2720 O.2     1  UNL1       -0.2520
      4  O          6.4400    3.6820    2.2080 O.3     1  UNL1       -0.4810
      5  H          7.1480    4.2410    2.6900 H       1  UNL1        0.2960
      6  C          4.9770    1.7960    1.0000 C.3     1  UNL1        0.0470
      7  C          5.7610    0.5650    0.9190 C.2     1  UNL1       -0.0470
      8  C          5.7570   -0.3410    1.9540 C.2     1  UNL1        0.0040
      9  C          6.5050    0.3160   -0.2110 C.2     1  UNL1        0.0040
     10  C          6.5290   -1.4960    1.8080 C.2     1  UNL1        0.0000
     11  C          7.2680   -0.8260   -0.3540 C.2     1  UNL1        0.0000
     12  C          7.2700   -1.7380    0.6790 C.2     1  UNL1        0.0000
@<TRIPOS>BOND
     1    11     9    1
     2    11    12    2
     3     9     7    2
     4     1     2    1
     5     1     6    1
     6     3     2    2
     7    12    10    1
     8     2     4    1
     9     7     6    1
    10     7     8    1
    11    10     8    2
    12     4     5    1
