@<TRIPOS>MOLECULE
/home/cewinharhar/GITHUB/reincatalyze/data/processed/docking_pred/2023-Apr-26-1657_maxeplen10_maxtrainstep1000_exh32_gamma099_lrac9e-4_lrcr1e-3/67714d3181cdcfbe83529be90e704c7fe5693ba3_ligand_2.pdbqt
 12 12 0 0 0
SMALL
GASTEIGER

@<TRIPOS>ATOM
      1  C          5.0250    1.7550    0.6740 C.3     1  UNL1        0.1270
      2  C          4.5640    1.0700    1.9050 C.2     1  UNL1        0.3030
      3  O          3.4450    1.3290    2.4140 O.2     1  UNL1       -0.2520
      4  O          5.3580    0.1210    2.5300 O.3     1  UNL1       -0.4810
      5  H          6.3750    0.2340    2.5190 H       1  UNL1        0.2960
      6  C          6.5220    1.8150    0.7020 C.3     1  UNL1        0.0470
      7  C          7.1680    1.0500   -0.3630 C.2     1  UNL1       -0.0470
      8  C          8.5060    1.2170   -0.6370 C.2     1  UNL1        0.0040
      9  C          6.4220    0.1530   -1.0920 C.2     1  UNL1        0.0040
     10  C          9.0570    0.4520   -1.6670 C.2     1  UNL1        0.0000
     11  C          6.9690   -0.6020   -2.1110 C.2     1  UNL1        0.0000
     12  C          8.3080   -0.4410   -2.3920 C.2     1  UNL1        0.0000
@<TRIPOS>BOND
     1    12    11    2
     2    12    10    1
     3    11     9    1
     4    10     8    2
     5     9     7    2
     6     8     7    1
     7     7     6    1
     8     1     6    1
     9     1     2    1
    10     2     3    2
    11     2     4    1
    12     5     4    1
