@<TRIPOS>MOLECULE
/home/cewinharhar/GITHUB/reincatalyze/data/processed/docking_pred/2023-Apr-26-1657_maxeplen10_maxtrainstep1000_exh32_gamma099_lrac9e-4_lrcr1e-3/67714d3181cdcfbe83529be90e704c7fe5693ba3_ligand_2.pdbqt
 12 12 0 0 0
SMALL
GASTEIGER

@<TRIPOS>ATOM
      1  C          8.4450   -0.5910   -2.1780 C.3     1  UNL1        0.1270
      2  C          8.4810   -1.8870   -2.8970 C.2     1  UNL1        0.3030
      3  O          9.5600   -2.5060   -3.0690 O.2     1  UNL1       -0.2520
      4  O          7.3210   -2.4520   -3.4010 O.3     1  UNL1       -0.4810
      5  H          7.3650   -3.0050   -4.2610 H       1  UNL1        0.2960
      6  C          7.0250   -0.1140   -2.1390 C.3     1  UNL1        0.0470
      7  C          6.4840    0.0340   -0.7890 C.2     1  UNL1       -0.0470
      8  C          6.6110   -0.9770    0.1340 C.2     1  UNL1        0.0040
      9  C          5.8460    1.2040   -0.4470 C.2     1  UNL1        0.0040
     10  C          6.0710   -0.7660    1.4050 C.2     1  UNL1        0.0000
     11  C          5.3130    1.4110    0.8100 C.2     1  UNL1        0.0000
     12  C          5.4340    0.4020    1.7410 C.2     1  UNL1        0.0000
@<TRIPOS>BOND
     1     5     4    1
     2     4     2    1
     3     3     2    2
     4     2     1    1
     5     1     6    1
     6     6     7    1
     7     7     9    2
     8     7     8    1
     9     9    11    1
    10     8    10    2
    11    11    12    2
    12    10    12    1
