MODEL 1
REMARK VINA RESULT:      -7.4      0.000      0.000
REMARK SMILES O=C(O)CCc1ccccc1
REMARK SMILES IDX 4 1 2 2 1 3 3 4 5 6 6 7 7 8 11 9 8 10 10 11 9 12
REMARK H PARENT 3 5
REMARK Flexibility Score: inf
ROOT
ATOM      1  C   UNL     1       8.445  -0.591  -2.178  1.00  0.00     0.127 C 
ENDROOT
BRANCH   1   2
ATOM      2  C   UNL     1       8.481  -1.887  -2.897  1.00  0.00     0.303 C 
ATOM      3  O   UNL     1       9.560  -2.506  -3.069  1.00  0.00    -0.252 OA
BRANCH   2   4
ATOM      4  O   UNL     1       7.321  -2.452  -3.401  1.00  0.00    -0.481 OA
ATOM      5  H   UNL     1       7.365  -3.005  -4.261  1.00  0.00     0.296 HD
ENDBRANCH   2   4
ENDBRANCH   1   2
BRANCH   1   6
ATOM      6  C   UNL     1       7.025  -0.114  -2.139  1.00  0.00     0.047 C 
BRANCH   6   7
ATOM      7  C   UNL     1       6.484   0.034  -0.789  1.00  0.00    -0.047 A 
ATOM      8  C   UNL     1       6.611  -0.977   0.134  1.00  0.00     0.004 A 
ATOM      9  C   UNL     1       5.846   1.204  -0.447  1.00  0.00     0.004 A 
ATOM     10  C   UNL     1       6.071  -0.766   1.405  1.00  0.00     0.000 A 
ATOM     11  C   UNL     1       5.313   1.411   0.810  1.00  0.00     0.000 A 
ATOM     12  C   UNL     1       5.434   0.402   1.741  1.00  0.00     0.000 A 
ENDBRANCH   6   7
ENDBRANCH   1   6
TORSDOF 4
ENDMDL
MODEL 2
REMARK VINA RESULT:      -7.3      0.115      1.731
REMARK SMILES O=C(O)CCc1ccccc1
REMARK SMILES IDX 4 1 2 2 1 3 3 4 5 6 6 7 7 8 11 9 8 10 10 11 9 12
REMARK H PARENT 3 5
REMARK Flexibility Score: inf
ROOT
ATOM      1  C   UNL     1       8.408  -0.640  -2.092  1.00  0.00     0.127 C 
ENDROOT
BRANCH   1   2
ATOM      2  C   UNL     1       8.378  -1.893  -2.884  1.00  0.00     0.303 C 
ATOM      3  O   UNL     1       7.291  -2.414  -3.237  1.00  0.00    -0.252 OA
BRANCH   2   4
ATOM      4  O   UNL     1       9.553  -2.525  -3.256  1.00  0.00    -0.481 OA
ATOM      5  H   UNL     1      10.426  -2.282  -2.779  1.00  0.00     0.296 HD
ENDBRANCH   2   4
ENDBRANCH   1   2
BRANCH   1   6
ATOM      6  C   UNL     1       7.027  -0.058  -2.080  1.00  0.00     0.047 C 
BRANCH   6   7
ATOM      7  C   UNL     1       6.462   0.103  -0.741  1.00  0.00    -0.047 A 
ATOM      8  C   UNL     1       5.811   1.262  -0.387  1.00  0.00     0.004 A 
ATOM      9  C   UNL     1       6.585  -0.923   0.167  1.00  0.00     0.004 A 
ATOM     10  C   UNL     1       5.296   1.346   0.908  1.00  0.00     0.000 A 
ATOM     11  C   UNL     1       6.075  -0.837   1.448  1.00  0.00     0.000 A 
ATOM     12  C   UNL     1       5.422   0.321   1.810  1.00  0.00     0.000 A 
ENDBRANCH   6   7
ENDBRANCH   1   6
TORSDOF 4
ENDMDL
MODEL 3
REMARK VINA RESULT:      -6.8      3.372      5.054
REMARK SMILES O=C(O)CCc1ccccc1
REMARK SMILES IDX 4 1 2 2 1 3 3 4 5 6 6 7 7 8 11 9 8 10 10 11 9 12
REMARK H PARENT 3 5
REMARK Flexibility Score: inf
ROOT
ATOM      1  C   UNL     1       5.029   1.798   0.743  1.00  0.00     0.127 C 
ENDROOT
BRANCH   1   2
ATOM      2  C   UNL     1       4.484   1.106   1.934  1.00  0.00     0.303 C 
ATOM      3  O   UNL     1       5.122   0.185   2.501  1.00  0.00    -0.252 OA
BRANCH   2   4
ATOM      4  O   UNL     1       3.250   1.459   2.457  1.00  0.00    -0.481 OA
ATOM      5  H   UNL     1       3.064   2.441   2.682  1.00  0.00     0.296 HD
ENDBRANCH   2   4
ENDBRANCH   1   2
BRANCH   1   6
ATOM      6  C   UNL     1       6.524   1.716   0.794  1.00  0.00     0.047 C 
BRANCH   6   7
ATOM      7  C   UNL     1       7.118   0.971  -0.315  1.00  0.00    -0.047 A 
ATOM      8  C   UNL     1       6.388   0.025  -0.997  1.00  0.00     0.004 A 
ATOM      9  C   UNL     1       8.420   1.228  -0.676  1.00  0.00     0.004 A 
ATOM     10  C   UNL     1       7.018  -0.647  -2.046  1.00  0.00     0.000 A 
ATOM     11  C   UNL     1       9.042   0.562  -1.713  1.00  0.00     0.000 A 
ATOM     12  C   UNL     1       8.318  -0.388  -2.401  1.00  0.00     0.000 A 
ENDBRANCH   6   7
ENDBRANCH   1   6
TORSDOF 4
ENDMDL
MODEL 4
REMARK VINA RESULT:      -6.6      3.320      5.100
REMARK SMILES O=C(O)CCc1ccccc1
REMARK SMILES IDX 4 1 2 2 1 3 3 4 5 6 6 7 7 8 11 9 8 10 10 11 9 12
REMARK H PARENT 3 5
REMARK Flexibility Score: inf
ROOT
ATOM      1  C   UNL     1       5.025   1.755   0.674  1.00  0.00     0.127 C 
ENDROOT
BRANCH   1   2
ATOM      2  C   UNL     1       4.564   1.070   1.905  1.00  0.00     0.303 C 
ATOM      3  O   UNL     1       3.445   1.329   2.414  1.00  0.00    -0.252 OA
BRANCH   2   4
ATOM      4  O   UNL     1       5.358   0.121   2.530  1.00  0.00    -0.481 OA
ATOM      5  H   UNL     1       6.375   0.234   2.519  1.00  0.00     0.296 HD
ENDBRANCH   2   4
ENDBRANCH   1   2
BRANCH   1   6
ATOM      6  C   UNL     1       6.522   1.815   0.702  1.00  0.00     0.047 C 
BRANCH   6   7
ATOM      7  C   UNL     1       7.168   1.050  -0.363  1.00  0.00    -0.047 A 
ATOM      8  C   UNL     1       8.506   1.217  -0.637  1.00  0.00     0.004 A 
ATOM      9  C   UNL     1       6.422   0.153  -1.092  1.00  0.00     0.004 A 
ATOM     10  C   UNL     1       9.057   0.452  -1.667  1.00  0.00     0.000 A 
ATOM     11  C   UNL     1       6.969  -0.602  -2.111  1.00  0.00     0.000 A 
ATOM     12  C   UNL     1       8.308  -0.441  -2.392  1.00  0.00     0.000 A 
ENDBRANCH   6   7
ENDBRANCH   1   6
TORSDOF 4
ENDMDL
MODEL 5
REMARK VINA RESULT:      -6.6      3.701      4.954
REMARK SMILES O=C(O)CCc1ccccc1
REMARK SMILES IDX 4 1 2 2 1 3 3 4 5 6 6 7 7 8 11 9 8 10 10 11 9 12
REMARK H PARENT 3 5
REMARK Flexibility Score: inf
ROOT
ATOM      1  C   UNL     1       5.328   2.944   0.098  1.00  0.00     0.127 C 
ENDROOT
BRANCH   1   2
ATOM      2  C   UNL     1       6.224   3.848   0.857  1.00  0.00     0.303 C 
ATOM      3  O   UNL     1       6.878   4.751   0.279  1.00  0.00    -0.252 OA
BRANCH   2   4
ATOM      4  O   UNL     1       6.366   3.720   2.229  1.00  0.00    -0.481 OA
ATOM      5  H   UNL     1       7.200   4.101   2.684  1.00  0.00     0.296 HD
ENDBRANCH   2   4
ENDBRANCH   1   2
BRANCH   1   6
ATOM      6  C   UNL     1       5.217   1.652   0.849  1.00  0.00     0.047 C 
BRANCH   6   7
ATOM      7  C   UNL     1       5.987   0.556   0.264  1.00  0.00    -0.047 A 
ATOM      8  C   UNL     1       6.360  -0.527   1.026  1.00  0.00     0.004 A 
ATOM      9  C   UNL     1       6.335   0.615  -1.066  1.00  0.00     0.004 A 
ATOM     10  C   UNL     1       7.093  -1.538   0.400  1.00  0.00     0.000 A 
ATOM     11  C   UNL     1       7.060  -0.385  -1.683  1.00  0.00     0.000 A 
ATOM     12  C   UNL     1       7.439  -1.473  -0.926  1.00  0.00     0.000 A 
ENDBRANCH   6   7
ENDBRANCH   1   6
TORSDOF 4
ENDMDL
