@<TRIPOS>MOLECULE
/home/cewinharhar/GITHUB/reincatalyze/data/processed/docking_pred/2023-Apr-26-1657_maxeplen10_maxtrainstep1000_exh32_gamma099_lrac9e-4_lrcr1e-3/67714d3181cdcfbe83529be90e704c7fe5693ba3_ligand_2.pdbqt
 12 12 0 0 0
SMALL
GASTEIGER

@<TRIPOS>ATOM
      1  C          5.3280    2.9440    0.0980 C.3     1  UNL1        0.1270
      2  C          6.2240    3.8480    0.8570 C.2     1  UNL1        0.3030
      3  O          6.8780    4.7510    0.2790 O.2     1  UNL1       -0.2520
      4  O          6.3660    3.7200    2.2290 O.3     1  UNL1       -0.4810
      5  H          7.2000    4.1010    2.6840 H       1  UNL1        0.2960
      6  C          5.2170    1.6520    0.8490 C.3     1  UNL1        0.0470
      7  C          5.9870    0.5560    0.2640 C.2     1  UNL1       -0.0470
      8  C          6.3600   -0.5270    1.0260 C.2     1  UNL1        0.0040
      9  C          6.3350    0.6150   -1.0660 C.2     1  UNL1        0.0040
     10  C          7.0930   -1.5380    0.4000 C.2     1  UNL1        0.0000
     11  C          7.0600   -0.3850   -1.6830 C.2     1  UNL1        0.0000
     12  C          7.4390   -1.4730   -0.9260 C.2     1  UNL1        0.0000
@<TRIPOS>BOND
     1    11     9    1
     2    11    12    2
     3     9     7    2
     4    12    10    1
     5     1     6    1
     6     1     2    1
     7     7     6    1
     8     7     8    1
     9     3     2    2
    10    10     8    2
    11     2     4    1
    12     4     5    1
