@<TRIPOS>MOLECULE
/home/cewinharhar/GITHUB/reincatalyze/data/processed/docking_pred/2023-Apr-26-1657_maxeplen10_maxtrainstep1000_exh32_gamma099_lrac9e-4_lrcr1e-3/67714d3181cdcfbe83529be90e704c7fe5693ba3_ligand_2.pdbqt
 12 12 0 0 0
SMALL
GASTEIGER

@<TRIPOS>ATOM
      1  C          8.4080   -0.6400   -2.0920 C.3     1  UNL1        0.1270
      2  C          8.3780   -1.8930   -2.8840 C.2     1  UNL1        0.3030
      3  O          7.2910   -2.4140   -3.2370 O.2     1  UNL1       -0.2520
      4  O          9.5530   -2.5250   -3.2560 O.3     1  UNL1       -0.4810
      5  H         10.4260   -2.2820   -2.7790 H       1  UNL1        0.2960
      6  C          7.0270   -0.0580   -2.0800 C.3     1  UNL1        0.0470
      7  C          6.4620    0.1030   -0.7410 C.2     1  UNL1       -0.0470
      8  C          5.8110    1.2620   -0.3870 C.2     1  UNL1        0.0040
      9  C          6.5850   -0.9230    0.1670 C.2     1  UNL1        0.0040
     10  C          5.2960    1.3460    0.9080 C.2     1  UNL1        0.0000
     11  C          6.0750   -0.8370    1.4480 C.2     1  UNL1        0.0000
     12  C          5.4220    0.3210    1.8100 C.2     1  UNL1        0.0000
@<TRIPOS>BOND
     1     4     2    1
     2     4     5    1
     3     3     2    2
     4     2     1    1
     5     1     6    1
     6     6     7    1
     7     7     8    2
     8     7     9    1
     9     8    10    1
    10     9    11    2
    11    10    12    2
    12    11    12    1
