@<TRIPOS>MOLECULE
/home/cewinharhar/GITHUB/reincatalyze/data/processed/docking_pred/2023-Apr-26-1657_maxeplen10_maxtrainstep1000_exh32_gamma099_lrac9e-4_lrcr1e-3/677496c5c46bc5e4ac1ff58ba47d0b72a83fedc5_ligand_2.pdbqt
 12 12 0 0 0
SMALL
GASTEIGER

@<TRIPOS>ATOM
      1  C          8.4160   -0.7270   -1.9970 C.3     1  UNL1        0.1270
      2  C          8.3470   -1.9070   -2.8910 C.2     1  UNL1        0.3030
      3  O          7.2450   -2.3490   -3.2990 O.2     1  UNL1       -0.2520
      4  O          9.5000   -2.5560   -3.3010 O.3     1  UNL1       -0.4810
      5  H          9.7340   -2.5800   -4.2970 H       1  UNL1        0.2960
      6  C          7.0730   -0.0640   -1.9870 C.3     1  UNL1        0.0470
      7  C          6.4960    0.0910   -0.6530 C.2     1  UNL1       -0.0470
      8  C          5.8350    1.2450   -0.3010 C.2     1  UNL1        0.0040
      9  C          6.6170   -0.9370    0.2540 C.2     1  UNL1        0.0040
     10  C          5.3080    1.3230    0.9900 C.2     1  UNL1        0.0000
     11  C          6.0960   -0.8580    1.5300 C.2     1  UNL1        0.0000
     12  C          5.4340    0.2950    1.8910 C.2     1  UNL1        0.0000
@<TRIPOS>BOND
     1     5     4    1
     2     4     2    1
     3     3     2    2
     4     2     1    1
     5     1     6    1
     6     6     7    1
     7     7     8    2
     8     7     9    1
     9     8    10    1
    10     9    11    2
    11    10    12    2
    12    11    12    1
