@<TRIPOS>MOLECULE
/home/cewinharhar/GITHUB/reincatalyze/data/processed/docking_pred/2023-Apr-26-1657_maxeplen10_maxtrainstep1000_exh32_gamma099_lrac9e-4_lrcr1e-3/677496c5c46bc5e4ac1ff58ba47d0b72a83fedc5_ligand_2.pdbqt
 12 12 0 0 0
SMALL
GASTEIGER

@<TRIPOS>ATOM
      1  C          5.4470    2.9070   -0.0280 C.3     1  UNL1        0.1270
      2  C          6.2650    3.8240    0.8010 C.2     1  UNL1        0.3030
      3  O          6.9030    4.7740    0.2840 O.2     1  UNL1       -0.2520
      4  O          6.3480    3.6560    2.1740 O.3     1  UNL1       -0.4810
      5  H          7.2660    3.5240    2.6070 H       1  UNL1        0.2960
      6  C          4.8790    1.8470    0.8650 C.3     1  UNL1        0.0470
      7  C          5.6750    0.6220    0.9150 C.2     1  UNL1       -0.0470
      8  C          5.7630   -0.1130    2.0750 C.2     1  UNL1        0.0040
      9  C          6.3390    0.2060   -0.2160 C.2     1  UNL1        0.0040
     10  C          6.5410   -1.2720    2.0500 C.2     1  UNL1        0.0000
     11  C          7.1080   -0.9400   -0.2380 C.2     1  UNL1        0.0000
     12  C          7.2020   -1.6820    0.9190 C.2     1  UNL1        0.0000
@<TRIPOS>BOND
     1    11     9    1
     2    11    12    2
     3     9     7    2
     4     1     2    1
     5     1     6    1
     6     3     2    2
     7     2     4    1
     8     6     7    1
     9     7     8    1
    10    12    10    1
    11    10     8    2
    12     4     5    1
