@<TRIPOS>MOLECULE
/home/cewinharhar/GITHUB/reincatalyze/data/processed/docking_pred/2023-Apr-26-1657_maxeplen10_maxtrainstep1000_exh32_gamma099_lrac9e-4_lrcr1e-3/677496c5c46bc5e4ac1ff58ba47d0b72a83fedc5_ligand_2.pdbqt
 12 12 0 0 0
SMALL
GASTEIGER

@<TRIPOS>ATOM
      1  C          8.4820    0.6630   -1.7020 C.3     1  UNL1        0.1270
      2  C          9.6260    0.2770   -0.8420 C.2     1  UNL1        0.3030
      3  O          9.4780   -0.5220    0.1160 O.2     1  UNL1       -0.2520
      4  O         10.8920    0.7880   -1.0730 O.3     1  UNL1       -0.4810
      5  H         10.9910    1.6700   -1.5830 H       1  UNL1        0.2960
      6  C          7.3180   -0.2160   -1.3610 C.3     1  UNL1        0.0470
      7  C          6.4220    0.3480   -0.3520 C.2     1  UNL1       -0.0470
      8  C          5.8060    1.5600   -0.5580 C.2     1  UNL1        0.0040
      9  C          6.1980   -0.3500    0.8120 C.2     1  UNL1        0.0040
     10  C          4.9630    2.0380    0.4470 C.2     1  UNL1        0.0000
     11  C          5.3640    0.1240    1.8050 C.2     1  UNL1        0.0000
     12  C          4.7430    1.3380    1.6070 C.2     1  UNL1        0.0000
@<TRIPOS>BOND
     1     1     6    1
     2     1     2    1
     3     5     4    1
     4     6     7    1
     5     4     2    1
     6     2     3    2
     7     8     7    2
     8     8    10    1
     9     7     9    1
    10    10    12    2
    11     9    11    2
    12    12    11    1
