MODEL 1
REMARK VINA RESULT:      -7.3      0.000      0.000
REMARK SMILES O=C(O)CCc1ccccc1
REMARK SMILES IDX 4 1 2 2 1 3 3 4 5 6 6 7 7 8 11 9 8 10 10 11 9 12
REMARK H PARENT 3 5
REMARK Flexibility Score: inf
ROOT
ATOM      1  C   UNL     1       8.441  -0.583  -2.196  1.00  0.00     0.127 C 
ENDROOT
BRANCH   1   2
ATOM      2  C   UNL     1       8.473  -1.885  -2.903  1.00  0.00     0.303 C 
ATOM      3  O   UNL     1       9.550  -2.510  -3.068  1.00  0.00    -0.252 OA
BRANCH   2   4
ATOM      4  O   UNL     1       7.311  -2.450  -3.403  1.00  0.00    -0.481 OA
ATOM      5  H   UNL     1       6.875  -2.045  -4.236  1.00  0.00     0.296 HD
ENDBRANCH   2   4
ENDBRANCH   1   2
BRANCH   1   6
ATOM      6  C   UNL     1       7.021  -0.107  -2.150  1.00  0.00     0.047 C 
BRANCH   6   7
ATOM      7  C   UNL     1       6.485   0.037  -0.798  1.00  0.00    -0.047 A 
ATOM      8  C   UNL     1       6.611  -0.979   0.120  1.00  0.00     0.004 A 
ATOM      9  C   UNL     1       5.850   1.206  -0.448  1.00  0.00     0.004 A 
ATOM     10  C   UNL     1       6.076  -0.773   1.394  1.00  0.00     0.000 A 
ATOM     11  C   UNL     1       5.322   1.409   0.811  1.00  0.00     0.000 A 
ATOM     12  C   UNL     1       5.443   0.395   1.737  1.00  0.00     0.000 A 
ENDBRANCH   6   7
ENDBRANCH   1   6
TORSDOF 4
ENDMDL
MODEL 2
REMARK VINA RESULT:      -7.2      0.181      1.737
REMARK SMILES O=C(O)CCc1ccccc1
REMARK SMILES IDX 4 1 2 2 1 3 3 4 5 6 6 7 7 8 11 9 8 10 10 11 9 12
REMARK H PARENT 3 5
REMARK Flexibility Score: inf
ROOT
ATOM      1  C   UNL     1       8.416  -0.727  -1.997  1.00  0.00     0.127 C 
ENDROOT
BRANCH   1   2
ATOM      2  C   UNL     1       8.347  -1.907  -2.891  1.00  0.00     0.303 C 
ATOM      3  O   UNL     1       7.245  -2.349  -3.299  1.00  0.00    -0.252 OA
BRANCH   2   4
ATOM      4  O   UNL     1       9.500  -2.556  -3.301  1.00  0.00    -0.481 OA
ATOM      5  H   UNL     1       9.734  -2.580  -4.297  1.00  0.00     0.296 HD
ENDBRANCH   2   4
ENDBRANCH   1   2
BRANCH   1   6
ATOM      6  C   UNL     1       7.073  -0.064  -1.987  1.00  0.00     0.047 C 
BRANCH   6   7
ATOM      7  C   UNL     1       6.496   0.091  -0.653  1.00  0.00    -0.047 A 
ATOM      8  C   UNL     1       5.835   1.245  -0.301  1.00  0.00     0.004 A 
ATOM      9  C   UNL     1       6.617  -0.937   0.254  1.00  0.00     0.004 A 
ATOM     10  C   UNL     1       5.308   1.323   0.990  1.00  0.00     0.000 A 
ATOM     11  C   UNL     1       6.096  -0.858   1.530  1.00  0.00     0.000 A 
ATOM     12  C   UNL     1       5.434   0.295   1.891  1.00  0.00     0.000 A 
ENDBRANCH   6   7
ENDBRANCH   1   6
TORSDOF 4
ENDMDL
MODEL 3
REMARK VINA RESULT:      -6.7      3.332      5.028
REMARK SMILES O=C(O)CCc1ccccc1
REMARK SMILES IDX 4 1 2 2 1 3 3 4 5 6 6 7 7 8 11 9 8 10 10 11 9 12
REMARK H PARENT 3 5
REMARK Flexibility Score: inf
ROOT
ATOM      1  C   UNL     1       5.050   1.736   0.669  1.00  0.00     0.127 C 
ENDROOT
BRANCH   1   2
ATOM      2  C   UNL     1       4.602   1.050   1.904  1.00  0.00     0.303 C 
ATOM      3  O   UNL     1       5.325   0.195   2.472  1.00  0.00    -0.252 OA
BRANCH   2   4
ATOM      4  O   UNL     1       3.369   1.336   2.467  1.00  0.00    -0.481 OA
ATOM      5  H   UNL     1       2.845   0.588   2.931  1.00  0.00     0.296 HD
ENDBRANCH   2   4
ENDBRANCH   1   2
BRANCH   1   6
ATOM      6  C   UNL     1       6.547   1.802   0.684  1.00  0.00     0.047 C 
BRANCH   6   7
ATOM      7  C   UNL     1       7.187   1.032  -0.381  1.00  0.00    -0.047 A 
ATOM      8  C   UNL     1       8.523   1.197  -0.664  1.00  0.00     0.004 A 
ATOM      9  C   UNL     1       6.437   0.131  -1.102  1.00  0.00     0.004 A 
ATOM     10  C   UNL     1       9.068   0.427  -1.694  1.00  0.00     0.000 A 
ATOM     11  C   UNL     1       6.977  -0.629  -2.120  1.00  0.00     0.000 A 
ATOM     12  C   UNL     1       8.315  -0.469  -2.410  1.00  0.00     0.000 A 
ENDBRANCH   6   7
ENDBRANCH   1   6
TORSDOF 4
ENDMDL
MODEL 4
REMARK VINA RESULT:      -6.7      3.825      4.903
REMARK SMILES O=C(O)CCc1ccccc1
REMARK SMILES IDX 4 1 2 2 1 3 3 4 5 6 6 7 7 8 11 9 8 10 10 11 9 12
REMARK H PARENT 3 5
REMARK Flexibility Score: inf
ROOT
ATOM      1  C   UNL     1       5.447   2.907  -0.028  1.00  0.00     0.127 C 
ENDROOT
BRANCH   1   2
ATOM      2  C   UNL     1       6.265   3.824   0.801  1.00  0.00     0.303 C 
ATOM      3  O   UNL     1       6.903   4.774   0.284  1.00  0.00    -0.252 OA
BRANCH   2   4
ATOM      4  O   UNL     1       6.348   3.656   2.174  1.00  0.00    -0.481 OA
ATOM      5  H   UNL     1       7.266   3.524   2.607  1.00  0.00     0.296 HD
ENDBRANCH   2   4
ENDBRANCH   1   2
BRANCH   1   6
ATOM      6  C   UNL     1       4.879   1.847   0.865  1.00  0.00     0.047 C 
BRANCH   6   7
ATOM      7  C   UNL     1       5.675   0.622   0.915  1.00  0.00    -0.047 A 
ATOM      8  C   UNL     1       5.763  -0.113   2.075  1.00  0.00     0.004 A 
ATOM      9  C   UNL     1       6.339   0.206  -0.216  1.00  0.00     0.004 A 
ATOM     10  C   UNL     1       6.541  -1.272   2.050  1.00  0.00     0.000 A 
ATOM     11  C   UNL     1       7.108  -0.940  -0.238  1.00  0.00     0.000 A 
ATOM     12  C   UNL     1       7.202  -1.682   0.919  1.00  0.00     0.000 A 
ENDBRANCH   6   7
ENDBRANCH   1   6
TORSDOF 4
ENDMDL
MODEL 5
REMARK VINA RESULT:      -6.5      2.060      2.725
REMARK SMILES O=C(O)CCc1ccccc1
REMARK SMILES IDX 4 1 2 2 1 3 3 4 5 6 6 7 7 8 11 9 8 10 10 11 9 12
REMARK H PARENT 3 5
REMARK Flexibility Score: inf
ROOT
ATOM      1  C   UNL     1       8.482   0.663  -1.702  1.00  0.00     0.127 C 
ENDROOT
BRANCH   1   2
ATOM      2  C   UNL     1       9.626   0.277  -0.842  1.00  0.00     0.303 C 
ATOM      3  O   UNL     1       9.478  -0.522   0.116  1.00  0.00    -0.252 OA
BRANCH   2   4
ATOM      4  O   UNL     1      10.892   0.788  -1.073  1.00  0.00    -0.481 OA
ATOM      5  H   UNL     1      10.991   1.670  -1.583  1.00  0.00     0.296 HD
ENDBRANCH   2   4
ENDBRANCH   1   2
BRANCH   1   6
ATOM      6  C   UNL     1       7.318  -0.216  -1.361  1.00  0.00     0.047 C 
BRANCH   6   7
ATOM      7  C   UNL     1       6.422   0.348  -0.352  1.00  0.00    -0.047 A 
ATOM      8  C   UNL     1       5.806   1.560  -0.558  1.00  0.00     0.004 A 
ATOM      9  C   UNL     1       6.198  -0.350   0.812  1.00  0.00     0.004 A 
ATOM     10  C   UNL     1       4.963   2.038   0.447  1.00  0.00     0.000 A 
ATOM     11  C   UNL     1       5.364   0.124   1.805  1.00  0.00     0.000 A 
ATOM     12  C   UNL     1       4.743   1.338   1.607  1.00  0.00     0.000 A 
ENDBRANCH   6   7
ENDBRANCH   1   6
TORSDOF 4
ENDMDL
