@<TRIPOS>MOLECULE
/home/cewinharhar/GITHUB/reincatalyze/data/processed/docking_pred/2023-Apr-26-1657_maxeplen10_maxtrainstep1000_exh32_gamma099_lrac9e-4_lrcr1e-3/677496c5c46bc5e4ac1ff58ba47d0b72a83fedc5_ligand_2.pdbqt
 12 12 0 0 0
SMALL
GASTEIGER

@<TRIPOS>ATOM
      1  C          5.0500    1.7360    0.6690 C.3     1  UNL1        0.1270
      2  C          4.6020    1.0500    1.9040 C.2     1  UNL1        0.3030
      3  O          5.3250    0.1950    2.4720 O.2     1  UNL1       -0.2520
      4  O          3.3690    1.3360    2.4670 O.3     1  UNL1       -0.4810
      5  H          2.8450    0.5880    2.9310 H       1  UNL1        0.2960
      6  C          6.5470    1.8020    0.6840 C.3     1  UNL1        0.0470
      7  C          7.1870    1.0320   -0.3810 C.2     1  UNL1       -0.0470
      8  C          8.5230    1.1970   -0.6640 C.2     1  UNL1        0.0040
      9  C          6.4370    0.1310   -1.1020 C.2     1  UNL1        0.0040
     10  C          9.0680    0.4270   -1.6940 C.2     1  UNL1        0.0000
     11  C          6.9770   -0.6290   -2.1200 C.2     1  UNL1        0.0000
     12  C          8.3150   -0.4690   -2.4100 C.2     1  UNL1        0.0000
@<TRIPOS>BOND
     1    12    11    2
     2    12    10    1
     3    11     9    1
     4    10     8    2
     5     9     7    2
     6     8     7    1
     7     7     6    1
     8     1     6    1
     9     1     2    1
    10     2     4    1
    11     2     3    2
    12     4     5    1
