@<TRIPOS>MOLECULE
/home/cewinharhar/GITHUB/reincatalyze/data/processed/docking_pred/2023-Apr-26-1657_maxeplen10_maxtrainstep1000_exh32_gamma099_lrac9e-4_lrcr1e-3/677496c5c46bc5e4ac1ff58ba47d0b72a83fedc5_ligand_2.pdbqt
 12 12 0 0 0
SMALL
GASTEIGER

@<TRIPOS>ATOM
      1  C          8.4410   -0.5830   -2.1960 C.3     1  UNL1        0.1270
      2  C          8.4730   -1.8850   -2.9030 C.2     1  UNL1        0.3030
      3  O          9.5500   -2.5100   -3.0680 O.2     1  UNL1       -0.2520
      4  O          7.3110   -2.4500   -3.4030 O.3     1  UNL1       -0.4810
      5  H          6.8750   -2.0450   -4.2360 H       1  UNL1        0.2960
      6  C          7.0210   -0.1070   -2.1500 C.3     1  UNL1        0.0470
      7  C          6.4850    0.0370   -0.7980 C.2     1  UNL1       -0.0470
      8  C          6.6110   -0.9790    0.1200 C.2     1  UNL1        0.0040
      9  C          5.8500    1.2060   -0.4480 C.2     1  UNL1        0.0040
     10  C          6.0760   -0.7730    1.3940 C.2     1  UNL1        0.0000
     11  C          5.3220    1.4090    0.8110 C.2     1  UNL1        0.0000
     12  C          5.4430    0.3950    1.7370 C.2     1  UNL1        0.0000
@<TRIPOS>BOND
     1     5     4    1
     2     4     2    1
     3     3     2    2
     4     2     1    1
     5     1     6    1
     6     6     7    1
     7     7     9    2
     8     7     8    1
     9     9    11    1
    10     8    10    2
    11    11    12    2
    12    10    12    1
