@<TRIPOS>MOLECULE
/home/cewinharhar/GITHUB/reincatalyze/data/processed/docking_pred/2023-Apr-26-1657_maxeplen10_maxtrainstep1000_exh32_gamma099_lrac9e-4_lrcr1e-3/67ebe37560d6b2ff0daae954040d2bc7ae74be81_ligand_2.pdbqt
 12 12 0 0 0
SMALL
GASTEIGER

@<TRIPOS>ATOM
      1  C          8.2240    0.2350   -2.1940 C.3     1  UNL1        0.1270
      2  C          9.3520    0.3440   -1.2390 C.2     1  UNL1        0.3030
      3  O          9.4360   -0.4140   -0.2410 O.2     1  UNL1       -0.2520
      4  O         10.3480    1.2900   -1.4220 O.3     1  UNL1       -0.4810
      5  H         10.7060    1.8040   -0.6120 H       1  UNL1        0.2960
      6  C          7.1160   -0.5230   -1.5290 C.3     1  UNL1        0.0470
      7  C          6.3370    0.2720   -0.5810 C.2     1  UNL1       -0.0470
      8  C          6.1120   -0.1790    0.6980 C.2     1  UNL1        0.0040
      9  C          5.8280    1.4860   -0.9830 C.2     1  UNL1        0.0040
     10  C          5.3590    0.6330    1.5500 C.2     1  UNL1        0.0000
     11  C          5.0840    2.2870   -0.1400 C.2     1  UNL1        0.0000
     12  C          4.8530    1.8420    1.1430 C.2     1  UNL1        0.0000
@<TRIPOS>BOND
     1     1     6    1
     2     1     2    1
     3     6     7    1
     4     4     2    1
     5     4     5    1
     6     2     3    2
     7     9     7    2
     8     9    11    1
     9     7     8    1
    10    11    12    2
    11     8    10    2
    12    12    10    1
