@<TRIPOS>MOLECULE
/home/cewinharhar/GITHUB/reincatalyze/data/processed/docking_pred/2023-Apr-26-1657_maxeplen10_maxtrainstep1000_exh32_gamma099_lrac9e-4_lrcr1e-3/67ebe37560d6b2ff0daae954040d2bc7ae74be81_ligand_2.pdbqt
 12 12 0 0 0
SMALL
GASTEIGER

@<TRIPOS>ATOM
      1  C          8.4000   -0.6210   -2.1230 C.3     1  UNL1        0.1270
      2  C          8.3680   -1.8870   -2.8930 C.2     1  UNL1        0.3030
      3  O          7.2810   -2.4060   -3.2470 O.2     1  UNL1       -0.2520
      4  O          9.5430   -2.5340   -3.2430 O.3     1  UNL1       -0.4810
      5  H          9.7740   -2.6500   -4.2330 H       1  UNL1        0.2960
      6  C          7.0130   -0.0540   -2.0920 C.3     1  UNL1        0.0470
      7  C          6.4610    0.0940   -0.7460 C.2     1  UNL1       -0.0470
      8  C          5.8130    1.2490   -0.3750 C.2     1  UNL1        0.0040
      9  C          6.5950   -0.9400    0.1510 C.2     1  UNL1        0.0040
     10  C          5.3110    1.3200    0.9270 C.2     1  UNL1        0.0000
     11  C          6.0970   -0.8680    1.4370 C.2     1  UNL1        0.0000
     12  C          5.4470    0.2860    1.8180 C.2     1  UNL1        0.0000
@<TRIPOS>BOND
     1     5     4    1
     2     3     2    2
     3     4     2    1
     4     2     1    1
     5     1     6    1
     6     6     7    1
     7     7     8    2
     8     7     9    1
     9     8    10    1
    10     9    11    2
    11    10    12    2
    12    11    12    1
