@<TRIPOS>MOLECULE
/home/cewinharhar/GITHUB/reincatalyze/data/processed/docking_pred/2023-Apr-26-1657_maxeplen10_maxtrainstep1000_exh32_gamma099_lrac9e-4_lrcr1e-3/67ebe37560d6b2ff0daae954040d2bc7ae74be81_ligand_2.pdbqt
 12 12 0 0 0
SMALL
GASTEIGER

@<TRIPOS>ATOM
      1  C          5.0530    1.7000    0.7000 C.3     1  UNL1        0.1270
      2  C          4.6050    1.0070    1.9310 C.2     1  UNL1        0.3030
      3  O          5.3240    0.1420    2.4890 O.2     1  UNL1       -0.2520
      4  O          3.3750    1.2960    2.5010 O.3     1  UNL1       -0.4810
      5  H          3.2420    1.1480    3.5050 H       1  UNL1        0.2960
      6  C          6.5490    1.7680    0.7160 C.3     1  UNL1        0.0470
      7  C          7.1900    1.0160   -0.3610 C.2     1  UNL1       -0.0470
      8  C          8.5230    1.1970   -0.6490 C.2     1  UNL1        0.0040
      9  C          6.4440    0.1180   -1.0890 C.2     1  UNL1        0.0040
     10  C          9.0700    0.4440   -1.6900 C.2     1  UNL1        0.0000
     11  C          6.9860   -0.6250   -2.1190 C.2     1  UNL1        0.0000
     12  C          8.3210   -0.4500   -2.4140 C.2     1  UNL1        0.0000
@<TRIPOS>BOND
     1    12    11    2
     2    12    10    1
     3    11     9    1
     4    10     8    2
     5     9     7    2
     6     8     7    1
     7     7     6    1
     8     1     6    1
     9     1     2    1
    10     2     3    2
    11     2     4    1
    12     4     5    1
