@<TRIPOS>MOLECULE
/home/cewinharhar/GITHUB/reincatalyze/data/processed/docking_pred/2023-Apr-26-1657_maxeplen10_maxtrainstep1000_exh32_gamma099_lrac9e-4_lrcr1e-3/67ebe37560d6b2ff0daae954040d2bc7ae74be81_ligand_2.pdbqt
 12 12 0 0 0
SMALL
GASTEIGER

@<TRIPOS>ATOM
      1  C          5.3850    2.9120    0.0360 C.3     1  UNL1        0.1270
      2  C          6.2020    3.8890    0.7940 C.2     1  UNL1        0.3030
      3  O          6.8770    4.7690    0.2050 O.2     1  UNL1       -0.2520
      4  O          6.2430    3.8580    2.1790 O.3     1  UNL1       -0.4810
      5  H          5.3860    4.0350    2.7090 H       1  UNL1        0.2960
      6  C          4.9140    1.8540    0.9870 C.3     1  UNL1        0.0470
      7  C          5.6950    0.6200    0.9380 C.2     1  UNL1       -0.0470
      8  C          5.7910   -0.1960    2.0420 C.2     1  UNL1        0.0040
      9  C          6.3380    0.2770   -0.2290 C.2     1  UNL1        0.0040
     10  C          6.5530   -1.3610    1.9230 C.2     1  UNL1        0.0000
     11  C          7.0910   -0.8740   -0.3450 C.2     1  UNL1        0.0000
     12  C          7.1930   -1.6970    0.7560 C.2     1  UNL1        0.0000
@<TRIPOS>BOND
     1    11     9    1
     2    11    12    2
     3     9     7    2
     4     1     2    1
     5     1     6    1
     6     3     2    2
     7    12    10    1
     8     2     4    1
     9     7     6    1
    10     7     8    1
    11    10     8    2
    12     4     5    1
