MODEL 1
REMARK VINA RESULT:      -7.3      0.000      0.000
REMARK SMILES O=C(O)CCc1ccccc1
REMARK SMILES IDX 4 1 2 2 1 3 3 4 5 6 6 7 7 8 11 9 8 10 10 11 9 12
REMARK H PARENT 3 5
REMARK Flexibility Score: inf
ROOT
ATOM      1  C   UNL     1       8.410  -0.675  -2.044  1.00  0.00     0.127 C 
ENDROOT
BRANCH   1   2
ATOM      2  C   UNL     1       8.369  -1.911  -2.861  1.00  0.00     0.303 C 
ATOM      3  O   UNL     1       7.279  -2.400  -3.248  1.00  0.00    -0.252 OA
BRANCH   2   4
ATOM      4  O   UNL     1       9.538  -2.564  -3.220  1.00  0.00    -0.481 OA
ATOM      5  H   UNL     1       9.773  -3.453  -2.770  1.00  0.00     0.296 HD
ENDBRANCH   2   4
ENDBRANCH   1   2
BRANCH   1   6
ATOM      6  C   UNL     1       7.037  -0.074  -2.031  1.00  0.00     0.047 C 
BRANCH   6   7
ATOM      7  C   UNL     1       6.465   0.071  -0.694  1.00  0.00    -0.047 A 
ATOM      8  C   UNL     1       6.589  -0.934   0.237  1.00  0.00     0.004 A 
ATOM      9  C   UNL     1       5.797   1.230  -0.372  1.00  0.00     0.004 A 
ATOM     10  C   UNL     1       6.018  -0.726   1.495  1.00  0.00     0.000 A 
ATOM     11  C   UNL     1       5.233   1.434   0.872  1.00  0.00     0.000 A 
ATOM     12  C   UNL     1       5.353   0.432   1.810  1.00  0.00     0.000 A 
ENDBRANCH   6   7
ENDBRANCH   1   6
TORSDOF 4
ENDMDL
MODEL 2
REMARK VINA RESULT:      -7.3      0.100      1.439
REMARK SMILES O=C(O)CCc1ccccc1
REMARK SMILES IDX 4 1 2 2 1 3 3 4 5 6 6 7 7 8 11 9 8 10 10 11 9 12
REMARK H PARENT 3 5
REMARK Flexibility Score: inf
ROOT
ATOM      1  C   UNL     1       8.400  -0.621  -2.123  1.00  0.00     0.127 C 
ENDROOT
BRANCH   1   2
ATOM      2  C   UNL     1       8.368  -1.887  -2.893  1.00  0.00     0.303 C 
ATOM      3  O   UNL     1       7.281  -2.406  -3.247  1.00  0.00    -0.252 OA
BRANCH   2   4
ATOM      4  O   UNL     1       9.543  -2.534  -3.243  1.00  0.00    -0.481 OA
ATOM      5  H   UNL     1       9.774  -2.650  -4.233  1.00  0.00     0.296 HD
ENDBRANCH   2   4
ENDBRANCH   1   2
BRANCH   1   6
ATOM      6  C   UNL     1       7.013  -0.054  -2.092  1.00  0.00     0.047 C 
BRANCH   6   7
ATOM      7  C   UNL     1       6.461   0.094  -0.746  1.00  0.00    -0.047 A 
ATOM      8  C   UNL     1       5.813   1.249  -0.375  1.00  0.00     0.004 A 
ATOM      9  C   UNL     1       6.595  -0.940   0.151  1.00  0.00     0.004 A 
ATOM     10  C   UNL     1       5.311   1.320   0.927  1.00  0.00     0.000 A 
ATOM     11  C   UNL     1       6.097  -0.868   1.437  1.00  0.00     0.000 A 
ATOM     12  C   UNL     1       5.447   0.286   1.818  1.00  0.00     0.000 A 
ENDBRANCH   6   7
ENDBRANCH   1   6
TORSDOF 4
ENDMDL
MODEL 3
REMARK VINA RESULT:      -6.7      3.269      5.111
REMARK SMILES O=C(O)CCc1ccccc1
REMARK SMILES IDX 4 1 2 2 1 3 3 4 5 6 6 7 7 8 11 9 8 10 10 11 9 12
REMARK H PARENT 3 5
REMARK Flexibility Score: inf
ROOT
ATOM      1  C   UNL     1       5.053   1.700   0.700  1.00  0.00     0.127 C 
ENDROOT
BRANCH   1   2
ATOM      2  C   UNL     1       4.605   1.007   1.931  1.00  0.00     0.303 C 
ATOM      3  O   UNL     1       5.324   0.142   2.489  1.00  0.00    -0.252 OA
BRANCH   2   4
ATOM      4  O   UNL     1       3.375   1.296   2.501  1.00  0.00    -0.481 OA
ATOM      5  H   UNL     1       3.242   1.148   3.505  1.00  0.00     0.296 HD
ENDBRANCH   2   4
ENDBRANCH   1   2
BRANCH   1   6
ATOM      6  C   UNL     1       6.549   1.768   0.716  1.00  0.00     0.047 C 
BRANCH   6   7
ATOM      7  C   UNL     1       7.190   1.016  -0.361  1.00  0.00    -0.047 A 
ATOM      8  C   UNL     1       8.523   1.197  -0.649  1.00  0.00     0.004 A 
ATOM      9  C   UNL     1       6.444   0.118  -1.089  1.00  0.00     0.004 A 
ATOM     10  C   UNL     1       9.070   0.444  -1.690  1.00  0.00     0.000 A 
ATOM     11  C   UNL     1       6.986  -0.625  -2.119  1.00  0.00     0.000 A 
ATOM     12  C   UNL     1       8.321  -0.450  -2.414  1.00  0.00     0.000 A 
ENDBRANCH   6   7
ENDBRANCH   1   6
TORSDOF 4
ENDMDL
MODEL 4
REMARK VINA RESULT:      -6.7      3.777      4.949
REMARK SMILES O=C(O)CCc1ccccc1
REMARK SMILES IDX 4 1 2 2 1 3 3 4 5 6 6 7 7 8 11 9 8 10 10 11 9 12
REMARK H PARENT 3 5
REMARK Flexibility Score: inf
ROOT
ATOM      1  C   UNL     1       5.385   2.912   0.036  1.00  0.00     0.127 C 
ENDROOT
BRANCH   1   2
ATOM      2  C   UNL     1       6.202   3.889   0.794  1.00  0.00     0.303 C 
ATOM      3  O   UNL     1       6.877   4.769   0.205  1.00  0.00    -0.252 OA
BRANCH   2   4
ATOM      4  O   UNL     1       6.243   3.858   2.179  1.00  0.00    -0.481 OA
ATOM      5  H   UNL     1       5.386   4.035   2.709  1.00  0.00     0.296 HD
ENDBRANCH   2   4
ENDBRANCH   1   2
BRANCH   1   6
ATOM      6  C   UNL     1       4.914   1.854   0.987  1.00  0.00     0.047 C 
BRANCH   6   7
ATOM      7  C   UNL     1       5.695   0.620   0.938  1.00  0.00    -0.047 A 
ATOM      8  C   UNL     1       5.791  -0.196   2.042  1.00  0.00     0.004 A 
ATOM      9  C   UNL     1       6.338   0.277  -0.229  1.00  0.00     0.004 A 
ATOM     10  C   UNL     1       6.553  -1.361   1.923  1.00  0.00     0.000 A 
ATOM     11  C   UNL     1       7.091  -0.874  -0.345  1.00  0.00     0.000 A 
ATOM     12  C   UNL     1       7.193  -1.697   0.756  1.00  0.00     0.000 A 
ENDBRANCH   6   7
ENDBRANCH   1   6
TORSDOF 4
ENDMDL
MODEL 5
REMARK VINA RESULT:      -6.7      1.919      2.229
REMARK SMILES O=C(O)CCc1ccccc1
REMARK SMILES IDX 4 1 2 2 1 3 3 4 5 6 6 7 7 8 11 9 8 10 10 11 9 12
REMARK H PARENT 3 5
REMARK Flexibility Score: inf
ROOT
ATOM      1  C   UNL     1       8.224   0.235  -2.194  1.00  0.00     0.127 C 
ENDROOT
BRANCH   1   2
ATOM      2  C   UNL     1       9.352   0.344  -1.239  1.00  0.00     0.303 C 
ATOM      3  O   UNL     1       9.436  -0.414  -0.241  1.00  0.00    -0.252 OA
BRANCH   2   4
ATOM      4  O   UNL     1      10.348   1.290  -1.422  1.00  0.00    -0.481 OA
ATOM      5  H   UNL     1      10.706   1.804  -0.612  1.00  0.00     0.296 HD
ENDBRANCH   2   4
ENDBRANCH   1   2
BRANCH   1   6
ATOM      6  C   UNL     1       7.116  -0.523  -1.529  1.00  0.00     0.047 C 
BRANCH   6   7
ATOM      7  C   UNL     1       6.337   0.272  -0.581  1.00  0.00    -0.047 A 
ATOM      8  C   UNL     1       6.112  -0.179   0.698  1.00  0.00     0.004 A 
ATOM      9  C   UNL     1       5.828   1.486  -0.983  1.00  0.00     0.004 A 
ATOM     10  C   UNL     1       5.359   0.633   1.550  1.00  0.00     0.000 A 
ATOM     11  C   UNL     1       5.084   2.287  -0.140  1.00  0.00     0.000 A 
ATOM     12  C   UNL     1       4.853   1.842   1.143  1.00  0.00     0.000 A 
ENDBRANCH   6   7
ENDBRANCH   1   6
TORSDOF 4
ENDMDL
