@<TRIPOS>MOLECULE
/home/cewinharhar/GITHUB/reincatalyze/data/processed/docking_pred/2023-Apr-26-1657_maxeplen10_maxtrainstep1000_exh32_gamma099_lrac9e-4_lrcr1e-3/67ebe37560d6b2ff0daae954040d2bc7ae74be81_ligand_2.pdbqt
 12 12 0 0 0
SMALL
GASTEIGER

@<TRIPOS>ATOM
      1  C          8.4100   -0.6750   -2.0440 C.3     1  UNL1        0.1270
      2  C          8.3690   -1.9110   -2.8610 C.2     1  UNL1        0.3030
      3  O          7.2790   -2.4000   -3.2480 O.2     1  UNL1       -0.2520
      4  O          9.5380   -2.5640   -3.2200 O.3     1  UNL1       -0.4810
      5  H          9.7730   -3.4530   -2.7700 H       1  UNL1        0.2960
      6  C          7.0370   -0.0740   -2.0310 C.3     1  UNL1        0.0470
      7  C          6.4650    0.0710   -0.6940 C.2     1  UNL1       -0.0470
      8  C          6.5890   -0.9340    0.2370 C.2     1  UNL1        0.0040
      9  C          5.7970    1.2300   -0.3720 C.2     1  UNL1        0.0040
     10  C          6.0180   -0.7260    1.4950 C.2     1  UNL1        0.0000
     11  C          5.2330    1.4340    0.8720 C.2     1  UNL1        0.0000
     12  C          5.3530    0.4320    1.8100 C.2     1  UNL1        0.0000
@<TRIPOS>BOND
     1     3     2    2
     2     4     2    1
     3     4     5    1
     4     2     1    1
     5     1     6    1
     6     6     7    1
     7     7     9    2
     8     7     8    1
     9     9    11    1
    10     8    10    2
    11    11    12    2
    12    10    12    1
