@<TRIPOS>MOLECULE
/home/cewinharhar/GITHUB/reincatalyze/data/processed/docking_pred/2023-Apr-26-1657_maxeplen10_maxtrainstep1000_exh32_gamma099_lrac9e-4_lrcr1e-3/681e80220216c71ec10eb1429598bf11558fcb24_ligand_2.pdbqt
 12 12 0 0 0
SMALL
GASTEIGER

@<TRIPOS>ATOM
      1  C          5.4690    2.8870   -0.0330 C.3     1  UNL1        0.1270
      2  C          6.2530    3.8360    0.7920 C.2     1  UNL1        0.3030
      3  O          6.9000    4.7750    0.2650 O.2     1  UNL1       -0.2520
      4  O          6.2930    3.7130    2.1710 O.3     1  UNL1       -0.4810
      5  H          6.8880    4.3450    2.7130 H       1  UNL1        0.2960
      6  C          4.9250    1.8200    0.8670 C.3     1  UNL1        0.0470
      7  C          5.7260    0.5970    0.8910 C.2     1  UNL1       -0.0470
      8  C          6.4140    0.1850   -0.2270 C.2     1  UNL1        0.0040
      9  C          5.7870   -0.1430    2.0490 C.2     1  UNL1        0.0040
     10  C          7.1600   -0.9920   -0.1320 C.2     1  UNL1        0.0000
     11  C          6.5240   -1.3070    2.1410 C.2     1  UNL1        0.0000
     12  C          7.2160   -1.7270    1.0260 C.2     1  UNL1        0.0000
@<TRIPOS>BOND
     1     8    10    1
     2     8     7    2
     3    10    12    2
     4     1     2    1
     5     1     6    1
     6     3     2    2
     7     2     4    1
     8     6     7    1
     9     7     9    1
    10    12    11    1
    11     9    11    2
    12     4     5    1
