@<TRIPOS>MOLECULE
/home/cewinharhar/GITHUB/reincatalyze/data/processed/docking_pred/2023-Apr-26-1657_maxeplen10_maxtrainstep1000_exh32_gamma099_lrac9e-4_lrcr1e-3/681e80220216c71ec10eb1429598bf11558fcb24_ligand_2.pdbqt
 12 12 0 0 0
SMALL
GASTEIGER

@<TRIPOS>ATOM
      1  C          8.4220   -0.6080   -2.1610 C.3     1  UNL1        0.1270
      2  C          8.4650   -1.8900   -2.9030 C.2     1  UNL1        0.3030
      3  O          9.5490   -2.4920   -3.1000 O.2     1  UNL1       -0.2520
      4  O          7.3050   -2.4610   -3.4020 O.3     1  UNL1       -0.4810
      5  H          6.6620   -2.9310   -2.7590 H       1  UNL1        0.2960
      6  C          7.0010   -0.1340   -2.1200 C.3     1  UNL1        0.0470
      7  C          6.4670    0.0280   -0.7690 C.2     1  UNL1       -0.0470
      8  C          6.5910   -0.9770    0.1610 C.2     1  UNL1        0.0040
      9  C          5.8360    1.2030   -0.4340 C.2     1  UNL1        0.0040
     10  C          6.0580   -0.7530    1.4330 C.2     1  UNL1        0.0000
     11  C          5.3090    1.4230    0.8240 C.2     1  UNL1        0.0000
     12  C          5.4290    0.4210    1.7620 C.2     1  UNL1        0.0000
@<TRIPOS>BOND
     1     4     2    1
     2     4     5    1
     3     3     2    2
     4     2     1    1
     5     1     6    1
     6     6     7    1
     7     7     9    2
     8     7     8    1
     9     9    11    1
    10     8    10    2
    11    11    12    2
    12    10    12    1
