@<TRIPOS>MOLECULE
/home/cewinharhar/GITHUB/reincatalyze/data/processed/docking_pred/2023-Apr-26-1657_maxeplen10_maxtrainstep1000_exh32_gamma099_lrac9e-4_lrcr1e-3/681e80220216c71ec10eb1429598bf11558fcb24_ligand_2.pdbqt
 12 12 0 0 0
SMALL
GASTEIGER

@<TRIPOS>ATOM
      1  C          8.4690   -0.6610   -2.0870 C.3     1  UNL1        0.1270
      2  C          8.4880   -1.9020   -2.8960 C.2     1  UNL1        0.3030
      3  O          9.5630   -2.5090   -3.1320 O.2     1  UNL1       -0.2520
      4  O          7.3170   -2.4280   -3.4170 O.3     1  UNL1       -0.4810
      5  H          6.8370   -1.9310   -4.1720 H       1  UNL1        0.2960
      6  C          7.0790   -0.1020   -2.1150 C.3     1  UNL1        0.0470
      7  C          6.4930    0.0990   -0.7910 C.2     1  UNL1       -0.0470
      8  C          5.8250    1.2630   -0.4870 C.2     1  UNL1        0.0040
      9  C          6.6140   -0.8920    0.1550 C.2     1  UNL1        0.0040
     10  C          5.2890    1.3860    0.7970 C.2     1  UNL1        0.0000
     11  C          6.0840   -0.7680    1.4240 C.2     1  UNL1        0.0000
     12  C          5.4140    0.3950    1.7370 C.2     1  UNL1        0.0000
@<TRIPOS>BOND
     1     5     4    1
     2     4     2    1
     3     3     2    2
     4     2     1    1
     5     6     1    1
     6     6     7    1
     7     7     8    2
     8     7     9    1
     9     8    10    1
    10     9    11    2
    11    10    12    2
    12    11    12    1
