MODEL 1
REMARK VINA RESULT:      -7.4      0.000      0.000
REMARK SMILES O=C(O)CCc1ccccc1
REMARK SMILES IDX 4 1 2 2 1 3 3 4 5 6 6 7 7 8 11 9 8 10 10 11 9 12
REMARK H PARENT 3 5
REMARK Flexibility Score: inf
ROOT
ATOM      1  C   UNL     1       8.469  -0.661  -2.087  1.00  0.00     0.127 C 
ENDROOT
BRANCH   1   2
ATOM      2  C   UNL     1       8.488  -1.902  -2.896  1.00  0.00     0.303 C 
ATOM      3  O   UNL     1       9.563  -2.509  -3.132  1.00  0.00    -0.252 OA
BRANCH   2   4
ATOM      4  O   UNL     1       7.317  -2.428  -3.417  1.00  0.00    -0.481 OA
ATOM      5  H   UNL     1       6.837  -1.931  -4.172  1.00  0.00     0.296 HD
ENDBRANCH   2   4
ENDBRANCH   1   2
BRANCH   1   6
ATOM      6  C   UNL     1       7.079  -0.102  -2.115  1.00  0.00     0.047 C 
BRANCH   6   7
ATOM      7  C   UNL     1       6.493   0.099  -0.791  1.00  0.00    -0.047 A 
ATOM      8  C   UNL     1       5.825   1.263  -0.487  1.00  0.00     0.004 A 
ATOM      9  C   UNL     1       6.614  -0.892   0.155  1.00  0.00     0.004 A 
ATOM     10  C   UNL     1       5.289   1.386   0.797  1.00  0.00     0.000 A 
ATOM     11  C   UNL     1       6.084  -0.768   1.424  1.00  0.00     0.000 A 
ATOM     12  C   UNL     1       5.414   0.395   1.737  1.00  0.00     0.000 A 
ENDBRANCH   6   7
ENDBRANCH   1   6
TORSDOF 4
ENDMDL
MODEL 2
REMARK VINA RESULT:      -7.3      0.065      1.438
REMARK SMILES O=C(O)CCc1ccccc1
REMARK SMILES IDX 4 1 2 2 1 3 3 4 5 6 6 7 7 8 11 9 8 10 10 11 9 12
REMARK H PARENT 3 5
REMARK Flexibility Score: inf
ROOT
ATOM      1  C   UNL     1       8.422  -0.608  -2.161  1.00  0.00     0.127 C 
ENDROOT
BRANCH   1   2
ATOM      2  C   UNL     1       8.465  -1.890  -2.903  1.00  0.00     0.303 C 
ATOM      3  O   UNL     1       9.549  -2.492  -3.100  1.00  0.00    -0.252 OA
BRANCH   2   4
ATOM      4  O   UNL     1       7.305  -2.461  -3.402  1.00  0.00    -0.481 OA
ATOM      5  H   UNL     1       6.662  -2.931  -2.759  1.00  0.00     0.296 HD
ENDBRANCH   2   4
ENDBRANCH   1   2
BRANCH   1   6
ATOM      6  C   UNL     1       7.001  -0.134  -2.120  1.00  0.00     0.047 C 
BRANCH   6   7
ATOM      7  C   UNL     1       6.467   0.028  -0.769  1.00  0.00    -0.047 A 
ATOM      8  C   UNL     1       6.591  -0.977   0.161  1.00  0.00     0.004 A 
ATOM      9  C   UNL     1       5.836   1.203  -0.434  1.00  0.00     0.004 A 
ATOM     10  C   UNL     1       6.058  -0.753   1.433  1.00  0.00     0.000 A 
ATOM     11  C   UNL     1       5.309   1.423   0.824  1.00  0.00     0.000 A 
ATOM     12  C   UNL     1       5.429   0.421   1.762  1.00  0.00     0.000 A 
ENDBRANCH   6   7
ENDBRANCH   1   6
TORSDOF 4
ENDMDL
MODEL 3
REMARK VINA RESULT:      -6.8      3.373      5.084
REMARK SMILES O=C(O)CCc1ccccc1
REMARK SMILES IDX 4 1 2 2 1 3 3 4 5 6 6 7 7 8 11 9 8 10 10 11 9 12
REMARK H PARENT 3 5
REMARK Flexibility Score: inf
ROOT
ATOM      1  C   UNL     1       4.993   1.816   0.709  1.00  0.00     0.127 C 
ENDROOT
BRANCH   1   2
ATOM      2  C   UNL     1       4.483   1.122   1.915  1.00  0.00     0.303 C 
ATOM      3  O   UNL     1       5.150   0.217   2.475  1.00  0.00    -0.252 OA
BRANCH   2   4
ATOM      4  O   UNL     1       3.254   1.456   2.460  1.00  0.00    -0.481 OA
ATOM      5  H   UNL     1       3.053   2.435   2.682  1.00  0.00     0.296 HD
ENDBRANCH   2   4
ENDBRANCH   1   2
BRANCH   1   6
ATOM      6  C   UNL     1       6.490   1.801   0.754  1.00  0.00     0.047 C 
BRANCH   6   7
ATOM      7  C   UNL     1       7.111   1.052  -0.337  1.00  0.00    -0.047 A 
ATOM      8  C   UNL     1       6.373   0.172  -1.094  1.00  0.00     0.004 A 
ATOM      9  C   UNL     1       8.448   1.236  -0.603  1.00  0.00     0.004 A 
ATOM     10  C   UNL     1       7.031  -0.510  -2.121  1.00  0.00     0.000 A 
ATOM     11  C   UNL     1       9.096   0.562  -1.618  1.00  0.00     0.000 A 
ATOM     12  C   UNL     1       8.365  -0.322  -2.381  1.00  0.00     0.000 A 
ENDBRANCH   6   7
ENDBRANCH   1   6
TORSDOF 4
ENDMDL
MODEL 4
REMARK VINA RESULT:      -6.7      3.829      4.914
REMARK SMILES O=C(O)CCc1ccccc1
REMARK SMILES IDX 4 1 2 2 1 3 3 4 5 6 6 7 7 8 11 9 8 10 10 11 9 12
REMARK H PARENT 3 5
REMARK Flexibility Score: inf
ROOT
ATOM      1  C   UNL     1       5.469   2.887  -0.033  1.00  0.00     0.127 C 
ENDROOT
BRANCH   1   2
ATOM      2  C   UNL     1       6.253   3.836   0.792  1.00  0.00     0.303 C 
ATOM      3  O   UNL     1       6.900   4.775   0.265  1.00  0.00    -0.252 OA
BRANCH   2   4
ATOM      4  O   UNL     1       6.293   3.713   2.171  1.00  0.00    -0.481 OA
ATOM      5  H   UNL     1       6.888   4.345   2.713  1.00  0.00     0.296 HD
ENDBRANCH   2   4
ENDBRANCH   1   2
BRANCH   1   6
ATOM      6  C   UNL     1       4.925   1.820   0.867  1.00  0.00     0.047 C 
BRANCH   6   7
ATOM      7  C   UNL     1       5.726   0.597   0.891  1.00  0.00    -0.047 A 
ATOM      8  C   UNL     1       6.414   0.185  -0.227  1.00  0.00     0.004 A 
ATOM      9  C   UNL     1       5.787  -0.143   2.049  1.00  0.00     0.004 A 
ATOM     10  C   UNL     1       7.160  -0.992  -0.132  1.00  0.00     0.000 A 
ATOM     11  C   UNL     1       6.524  -1.307   2.141  1.00  0.00     0.000 A 
ATOM     12  C   UNL     1       7.216  -1.727   1.026  1.00  0.00     0.000 A 
ENDBRANCH   6   7
ENDBRANCH   1   6
TORSDOF 4
ENDMDL
MODEL 5
REMARK VINA RESULT:      -6.7      1.933      2.647
REMARK SMILES O=C(O)CCc1ccccc1
REMARK SMILES IDX 4 1 2 2 1 3 3 4 5 6 6 7 7 8 11 9 8 10 10 11 9 12
REMARK H PARENT 3 5
REMARK Flexibility Score: inf
ROOT
ATOM      1  C   UNL     1       8.265   0.151  -2.180  1.00  0.00     0.127 C 
ENDROOT
BRANCH   1   2
ATOM      2  C   UNL     1       9.387   0.328  -1.229  1.00  0.00     0.303 C 
ATOM      3  O   UNL     1       9.486  -0.384  -0.199  1.00  0.00    -0.252 OA
BRANCH   2   4
ATOM      4  O   UNL     1      10.361   1.288  -1.451  1.00  0.00    -0.481 OA
ATOM      5  H   UNL     1      11.032   1.154  -2.213  1.00  0.00     0.296 HD
ENDBRANCH   2   4
ENDBRANCH   1   2
BRANCH   1   6
ATOM      6  C   UNL     1       7.177  -0.613  -1.489  1.00  0.00     0.047 C 
BRANCH   6   7
ATOM      7  C   UNL     1       6.384   0.190  -0.560  1.00  0.00    -0.047 A 
ATOM      8  C   UNL     1       6.156  -0.241   0.726  1.00  0.00     0.004 A 
ATOM      9  C   UNL     1       5.865   1.391  -0.986  1.00  0.00     0.004 A 
ATOM     10  C   UNL     1       5.390   0.578   1.558  1.00  0.00     0.000 A 
ATOM     11  C   UNL     1       5.108   2.200  -0.162  1.00  0.00     0.000 A 
ATOM     12  C   UNL     1       4.874   1.775   1.127  1.00  0.00     0.000 A 
ENDBRANCH   6   7
ENDBRANCH   1   6
TORSDOF 4
ENDMDL
