@<TRIPOS>MOLECULE
/home/cewinharhar/GITHUB/reincatalyze/data/processed/docking_pred/2023-Apr-26-1657_maxeplen10_maxtrainstep1000_exh32_gamma099_lrac9e-4_lrcr1e-3/681e80220216c71ec10eb1429598bf11558fcb24_ligand_2.pdbqt
 12 12 0 0 0
SMALL
GASTEIGER

@<TRIPOS>ATOM
      1  C          4.9930    1.8160    0.7090 C.3     1  UNL1        0.1270
      2  C          4.4830    1.1220    1.9150 C.2     1  UNL1        0.3030
      3  O          5.1500    0.2170    2.4750 O.2     1  UNL1       -0.2520
      4  O          3.2540    1.4560    2.4600 O.3     1  UNL1       -0.4810
      5  H          3.0530    2.4350    2.6820 H       1  UNL1        0.2960
      6  C          6.4900    1.8010    0.7540 C.3     1  UNL1        0.0470
      7  C          7.1110    1.0520   -0.3370 C.2     1  UNL1       -0.0470
      8  C          6.3730    0.1720   -1.0940 C.2     1  UNL1        0.0040
      9  C          8.4480    1.2360   -0.6030 C.2     1  UNL1        0.0040
     10  C          7.0310   -0.5100   -2.1210 C.2     1  UNL1        0.0000
     11  C          9.0960    0.5620   -1.6180 C.2     1  UNL1        0.0000
     12  C          8.3650   -0.3220   -2.3810 C.2     1  UNL1        0.0000
@<TRIPOS>BOND
     1    12    10    2
     2    12    11    1
     3    10     8    1
     4    11     9    2
     5     8     7    2
     6     9     7    1
     7     7     6    1
     8     1     6    1
     9     1     2    1
    10     2     4    1
    11     2     3    2
    12     4     5    1
