@<TRIPOS>MOLECULE
/home/cewinharhar/GITHUB/reincatalyze/data/processed/docking_pred/2023-Apr-26-1657_maxeplen10_maxtrainstep1000_exh32_gamma099_lrac9e-4_lrcr1e-3/69e2ce579100b0ee4b56c8bb4a95d1562fd611af_ligand_2.pdbqt
 12 12 0 0 0
SMALL
GASTEIGER

@<TRIPOS>ATOM
      1  C          5.3920    2.8410    0.0710 C.3     1  UNL1        0.1270
      2  C          6.1880    3.8110    0.8590 C.2     1  UNL1        0.3030
      3  O          6.1850    3.7870    2.1150 O.2     1  UNL1       -0.2520
      4  O          6.9590    4.7750    0.2300 O.3     1  UNL1       -0.4810
      5  H          7.5770    4.4990   -0.5380 H       1  UNL1        0.2960
      6  C          4.9330    1.7510    0.9910 C.3     1  UNL1        0.0470
      7  C          5.7620    0.5470    0.9470 C.2     1  UNL1       -0.0470
      8  C          6.5270    0.2600   -0.1590 C.2     1  UNL1        0.0040
      9  C          5.7710   -0.3010    2.0300 C.2     1  UNL1        0.0040
     10  C          7.2950   -0.9060   -0.1310 C.2     1  UNL1        0.0000
     11  C          6.5300   -1.4540    2.0560 C.2     1  UNL1        0.0000
     12  C          7.3000   -1.7490    0.9510 C.2     1  UNL1        0.0000
@<TRIPOS>BOND
     1     5     4    1
     2     8    10    1
     3     8     7    2
     4    10    12    2
     5     1     2    1
     6     1     6    1
     7     4     2    1
     8     2     3    2
     9     7     6    1
    10     7     9    1
    11    12    11    1
    12     9    11    2
