@<TRIPOS>MOLECULE
/home/cewinharhar/GITHUB/reincatalyze/data/processed/docking_pred/2023-Apr-26-1657_maxeplen10_maxtrainstep1000_exh32_gamma099_lrac9e-4_lrcr1e-3/69e2ce579100b0ee4b56c8bb4a95d1562fd611af_ligand_2.pdbqt
 12 12 0 0 0
SMALL
GASTEIGER

@<TRIPOS>ATOM
      1  C          8.4270   -0.5510   -2.2450 C.3     1  UNL1        0.1270
      2  C          8.4780   -1.8610   -2.9360 C.2     1  UNL1        0.3030
      3  O          9.5650   -2.4700   -3.0960 O.2     1  UNL1       -0.2520
      4  O          7.3240   -2.4510   -3.4250 O.3     1  UNL1       -0.4810
      5  H          6.4680   -2.4190   -2.8640 H       1  UNL1        0.2960
      6  C          6.9970   -0.1100   -2.1770 C.3     1  UNL1        0.0470
      7  C          6.4850    0.0380   -0.8150 C.2     1  UNL1       -0.0470
      8  C          6.6170   -0.9800    0.1010 C.2     1  UNL1        0.0040
      9  C          5.8670    1.2130   -0.4540 C.2     1  UNL1        0.0040
     10  C          6.1060   -0.7690    1.3830 C.2     1  UNL1        0.0000
     11  C          5.3620    1.4200    0.8140 C.2     1  UNL1        0.0000
     12  C          5.4900    0.4050    1.7370 C.2     1  UNL1        0.0000
@<TRIPOS>BOND
     1     4     2    1
     2     4     5    1
     3     3     2    2
     4     2     1    1
     5     1     6    1
     6     6     7    1
     7     7     9    2
     8     7     8    1
     9     9    11    1
    10     8    10    2
    11    11    12    2
    12    10    12    1
