MODEL 1
REMARK VINA RESULT:      -7.4      0.000      0.000
REMARK SMILES O=C(O)CCc1ccccc1
REMARK SMILES IDX 4 1 2 2 1 3 3 4 5 6 6 7 7 8 11 9 8 10 10 11 9 12
REMARK H PARENT 3 5
REMARK Flexibility Score: inf
ROOT
ATOM      1  C   UNL     1       8.427  -0.551  -2.245  1.00  0.00     0.127 C 
ENDROOT
BRANCH   1   2
ATOM      2  C   UNL     1       8.478  -1.861  -2.936  1.00  0.00     0.303 C 
ATOM      3  O   UNL     1       9.565  -2.470  -3.096  1.00  0.00    -0.252 OA
BRANCH   2   4
ATOM      4  O   UNL     1       7.324  -2.451  -3.425  1.00  0.00    -0.481 OA
ATOM      5  H   UNL     1       6.468  -2.419  -2.864  1.00  0.00     0.296 HD
ENDBRANCH   2   4
ENDBRANCH   1   2
BRANCH   1   6
ATOM      6  C   UNL     1       6.997  -0.110  -2.177  1.00  0.00     0.047 C 
BRANCH   6   7
ATOM      7  C   UNL     1       6.485   0.038  -0.815  1.00  0.00    -0.047 A 
ATOM      8  C   UNL     1       6.617  -0.980   0.101  1.00  0.00     0.004 A 
ATOM      9  C   UNL     1       5.867   1.213  -0.454  1.00  0.00     0.004 A 
ATOM     10  C   UNL     1       6.106  -0.769   1.383  1.00  0.00     0.000 A 
ATOM     11  C   UNL     1       5.362   1.420   0.814  1.00  0.00     0.000 A 
ATOM     12  C   UNL     1       5.490   0.405   1.737  1.00  0.00     0.000 A 
ENDBRANCH   6   7
ENDBRANCH   1   6
TORSDOF 4
ENDMDL
MODEL 2
REMARK VINA RESULT:      -7.3      0.144      1.734
REMARK SMILES O=C(O)CCc1ccccc1
REMARK SMILES IDX 4 1 2 2 1 3 3 4 5 6 6 7 7 8 11 9 8 10 10 11 9 12
REMARK H PARENT 3 5
REMARK Flexibility Score: inf
ROOT
ATOM      1  C   UNL     1       8.401  -0.668  -2.062  1.00  0.00     0.127 C 
ENDROOT
BRANCH   1   2
ATOM      2  C   UNL     1       8.370  -1.907  -2.875  1.00  0.00     0.303 C 
ATOM      3  O   UNL     1       7.284  -2.411  -3.253  1.00  0.00    -0.252 OA
BRANCH   2   4
ATOM      4  O   UNL     1       9.545  -2.546  -3.239  1.00  0.00    -0.481 OA
ATOM      5  H   UNL     1       9.668  -2.853  -4.208  1.00  0.00     0.296 HD
ENDBRANCH   2   4
ENDBRANCH   1   2
BRANCH   1   6
ATOM      6  C   UNL     1       7.027  -0.071  -2.063  1.00  0.00     0.047 C 
BRANCH   6   7
ATOM      7  C   UNL     1       6.453   0.102  -0.729  1.00  0.00    -0.047 A 
ATOM      8  C   UNL     1       5.802   1.265  -0.389  1.00  0.00     0.004 A 
ATOM      9  C   UNL     1       6.569  -0.917   0.189  1.00  0.00     0.004 A 
ATOM     10  C   UNL     1       5.278   1.360   0.902  1.00  0.00     0.000 A 
ATOM     11  C   UNL     1       6.051  -0.820   1.465  1.00  0.00     0.000 A 
ATOM     12  C   UNL     1       5.397   0.342   1.814  1.00  0.00     0.000 A 
ENDBRANCH   6   7
ENDBRANCH   1   6
TORSDOF 4
ENDMDL
MODEL 3
REMARK VINA RESULT:      -6.7      3.340      5.033
REMARK SMILES O=C(O)CCc1ccccc1
REMARK SMILES IDX 4 1 2 2 1 3 3 4 5 6 6 7 7 8 11 9 8 10 10 11 9 12
REMARK H PARENT 3 5
REMARK Flexibility Score: inf
ROOT
ATOM      1  C   UNL     1       5.057   1.717   0.665  1.00  0.00     0.127 C 
ENDROOT
BRANCH   1   2
ATOM      2  C   UNL     1       4.606   1.044   1.907  1.00  0.00     0.303 C 
ATOM      3  O   UNL     1       5.328   0.196   2.486  1.00  0.00    -0.252 OA
BRANCH   2   4
ATOM      4  O   UNL     1       3.371   1.335   2.464  1.00  0.00    -0.481 OA
ATOM      5  H   UNL     1       3.328   1.882   3.328  1.00  0.00     0.296 HD
ENDBRANCH   2   4
ENDBRANCH   1   2
BRANCH   1   6
ATOM      6  C   UNL     1       6.554   1.779   0.681  1.00  0.00     0.047 C 
BRANCH   6   7
ATOM      7  C   UNL     1       7.192   1.007  -0.385  1.00  0.00    -0.047 A 
ATOM      8  C   UNL     1       8.520   1.196  -0.691  1.00  0.00     0.004 A 
ATOM      9  C   UNL     1       6.449   0.083  -1.082  1.00  0.00     0.004 A 
ATOM     10  C   UNL     1       9.063   0.424  -1.720  1.00  0.00     0.000 A 
ATOM     11  C   UNL     1       6.988  -0.679  -2.099  1.00  0.00     0.000 A 
ATOM     12  C   UNL     1       8.317  -0.496  -2.413  1.00  0.00     0.000 A 
ENDBRANCH   6   7
ENDBRANCH   1   6
TORSDOF 4
ENDMDL
MODEL 4
REMARK VINA RESULT:      -6.7      1.927      2.306
REMARK SMILES O=C(O)CCc1ccccc1
REMARK SMILES IDX 4 1 2 2 1 3 3 4 5 6 6 7 7 8 11 9 8 10 10 11 9 12
REMARK H PARENT 3 5
REMARK Flexibility Score: inf
ROOT
ATOM      1  C   UNL     1       8.256   0.122  -2.180  1.00  0.00     0.127 C 
ENDROOT
BRANCH   1   2
ATOM      2  C   UNL     1       9.367   0.326  -1.221  1.00  0.00     0.303 C 
ATOM      3  O   UNL     1       9.487  -0.396  -0.200  1.00  0.00    -0.252 OA
BRANCH   2   4
ATOM      4  O   UNL     1      10.307   1.323  -1.426  1.00  0.00    -0.481 OA
ATOM      5  H   UNL     1      10.060   2.134  -2.000  1.00  0.00     0.296 HD
ENDBRANCH   2   4
ENDBRANCH   1   2
BRANCH   1   6
ATOM      6  C   UNL     1       7.157  -0.616  -1.477  1.00  0.00     0.047 C 
BRANCH   6   7
ATOM      7  C   UNL     1       6.375   0.214  -0.562  1.00  0.00    -0.047 A 
ATOM      8  C   UNL     1       6.142  -0.193   0.732  1.00  0.00     0.004 A 
ATOM      9  C   UNL     1       5.872   1.414  -1.007  1.00  0.00     0.004 A 
ATOM     10  C   UNL     1       5.388   0.651   1.550  1.00  0.00     0.000 A 
ATOM     11  C   UNL     1       5.126   2.247  -0.197  1.00  0.00     0.000 A 
ATOM     12  C   UNL     1       4.888   1.847   1.100  1.00  0.00     0.000 A 
ENDBRANCH   6   7
ENDBRANCH   1   6
TORSDOF 4
ENDMDL
MODEL 5
REMARK VINA RESULT:      -6.7      3.822      5.014
REMARK SMILES O=C(O)CCc1ccccc1
REMARK SMILES IDX 4 1 2 2 1 3 3 4 5 6 6 7 7 8 11 9 8 10 10 11 9 12
REMARK H PARENT 3 5
REMARK Flexibility Score: inf
ROOT
ATOM      1  C   UNL     1       5.392   2.841   0.071  1.00  0.00     0.127 C 
ENDROOT
BRANCH   1   2
ATOM      2  C   UNL     1       6.188   3.811   0.859  1.00  0.00     0.303 C 
ATOM      3  O   UNL     1       6.185   3.787   2.115  1.00  0.00    -0.252 OA
BRANCH   2   4
ATOM      4  O   UNL     1       6.959   4.775   0.230  1.00  0.00    -0.481 OA
ATOM      5  H   UNL     1       7.577   4.499  -0.538  1.00  0.00     0.296 HD
ENDBRANCH   2   4
ENDBRANCH   1   2
BRANCH   1   6
ATOM      6  C   UNL     1       4.933   1.751   0.991  1.00  0.00     0.047 C 
BRANCH   6   7
ATOM      7  C   UNL     1       5.762   0.547   0.947  1.00  0.00    -0.047 A 
ATOM      8  C   UNL     1       6.527   0.260  -0.159  1.00  0.00     0.004 A 
ATOM      9  C   UNL     1       5.771  -0.301   2.030  1.00  0.00     0.004 A 
ATOM     10  C   UNL     1       7.295  -0.906  -0.131  1.00  0.00     0.000 A 
ATOM     11  C   UNL     1       6.530  -1.454   2.056  1.00  0.00     0.000 A 
ATOM     12  C   UNL     1       7.300  -1.749   0.951  1.00  0.00     0.000 A 
ENDBRANCH   6   7
ENDBRANCH   1   6
TORSDOF 4
ENDMDL
