@<TRIPOS>MOLECULE
/home/cewinharhar/GITHUB/reincatalyze/data/processed/docking_pred/2023-Apr-26-1657_maxeplen10_maxtrainstep1000_exh32_gamma099_lrac9e-4_lrcr1e-3/69e2ce579100b0ee4b56c8bb4a95d1562fd611af_ligand_2.pdbqt
 12 12 0 0 0
SMALL
GASTEIGER

@<TRIPOS>ATOM
      1  C          8.4010   -0.6680   -2.0620 C.3     1  UNL1        0.1270
      2  C          8.3700   -1.9070   -2.8750 C.2     1  UNL1        0.3030
      3  O          7.2840   -2.4110   -3.2530 O.2     1  UNL1       -0.2520
      4  O          9.5450   -2.5460   -3.2390 O.3     1  UNL1       -0.4810
      5  H          9.6680   -2.8530   -4.2080 H       1  UNL1        0.2960
      6  C          7.0270   -0.0710   -2.0630 C.3     1  UNL1        0.0470
      7  C          6.4530    0.1020   -0.7290 C.2     1  UNL1       -0.0470
      8  C          5.8020    1.2650   -0.3890 C.2     1  UNL1        0.0040
      9  C          6.5690   -0.9170    0.1890 C.2     1  UNL1        0.0040
     10  C          5.2780    1.3600    0.9020 C.2     1  UNL1        0.0000
     11  C          6.0510   -0.8200    1.4650 C.2     1  UNL1        0.0000
     12  C          5.3970    0.3420    1.8140 C.2     1  UNL1        0.0000
@<TRIPOS>BOND
     1     5     4    1
     2     3     2    2
     3     4     2    1
     4     2     1    1
     5     6     1    1
     6     6     7    1
     7     7     8    2
     8     7     9    1
     9     8    10    1
    10     9    11    2
    11    10    12    2
    12    11    12    1
