@<TRIPOS>MOLECULE
/home/cewinharhar/GITHUB/reincatalyze/data/processed/docking_pred/2023-Apr-26-1657_maxeplen10_maxtrainstep1000_exh32_gamma099_lrac9e-4_lrcr1e-3/69e2ce579100b0ee4b56c8bb4a95d1562fd611af_ligand_2.pdbqt
 12 12 0 0 0
SMALL
GASTEIGER

@<TRIPOS>ATOM
      1  C          5.0570    1.7170    0.6650 C.3     1  UNL1        0.1270
      2  C          4.6060    1.0440    1.9070 C.2     1  UNL1        0.3030
      3  O          5.3280    0.1960    2.4860 O.2     1  UNL1       -0.2520
      4  O          3.3710    1.3350    2.4640 O.3     1  UNL1       -0.4810
      5  H          3.3280    1.8820    3.3280 H       1  UNL1        0.2960
      6  C          6.5540    1.7790    0.6810 C.3     1  UNL1        0.0470
      7  C          7.1920    1.0070   -0.3850 C.2     1  UNL1       -0.0470
      8  C          8.5200    1.1960   -0.6910 C.2     1  UNL1        0.0040
      9  C          6.4490    0.0830   -1.0820 C.2     1  UNL1        0.0040
     10  C          9.0630    0.4240   -1.7200 C.2     1  UNL1        0.0000
     11  C          6.9880   -0.6790   -2.0990 C.2     1  UNL1        0.0000
     12  C          8.3170   -0.4960   -2.4130 C.2     1  UNL1        0.0000
@<TRIPOS>BOND
     1    12    11    2
     2    12    10    1
     3    11     9    1
     4    10     8    2
     5     9     7    2
     6     8     7    1
     7     7     6    1
     8     1     6    1
     9     1     2    1
    10     2     4    1
    11     2     3    2
    12     4     5    1
