@<TRIPOS>MOLECULE
/home/cewinharhar/GITHUB/reincatalyze/data/processed/docking_pred/2023-Apr-26-1657_maxeplen10_maxtrainstep1000_exh32_gamma099_lrac9e-4_lrcr1e-3/69e2ce579100b0ee4b56c8bb4a95d1562fd611af_ligand_2.pdbqt
 12 12 0 0 0
SMALL
GASTEIGER

@<TRIPOS>ATOM
      1  C          8.2560    0.1220   -2.1800 C.3     1  UNL1        0.1270
      2  C          9.3670    0.3260   -1.2210 C.2     1  UNL1        0.3030
      3  O          9.4870   -0.3960   -0.2000 O.2     1  UNL1       -0.2520
      4  O         10.3070    1.3230   -1.4260 O.3     1  UNL1       -0.4810
      5  H         10.0600    2.1340   -2.0000 H       1  UNL1        0.2960
      6  C          7.1570   -0.6160   -1.4770 C.3     1  UNL1        0.0470
      7  C          6.3750    0.2140   -0.5620 C.2     1  UNL1       -0.0470
      8  C          6.1420   -0.1930    0.7320 C.2     1  UNL1        0.0040
      9  C          5.8720    1.4140   -1.0070 C.2     1  UNL1        0.0040
     10  C          5.3880    0.6510    1.5500 C.2     1  UNL1        0.0000
     11  C          5.1260    2.2470   -0.1970 C.2     1  UNL1        0.0000
     12  C          4.8880    1.8470    1.1000 C.2     1  UNL1        0.0000
@<TRIPOS>BOND
     1     1     6    1
     2     1     2    1
     3     5     4    1
     4     6     7    1
     5     4     2    1
     6     2     3    2
     7     9     7    2
     8     9    11    1
     9     7     8    1
    10    11    12    2
    11     8    10    2
    12    12    10    1
