@<TRIPOS>MOLECULE
/home/cewinharhar/GITHUB/reincatalyze/data/processed/docking_pred/2023-Apr-26-1657_maxeplen10_maxtrainstep1000_exh32_gamma099_lrac9e-4_lrcr1e-3/6b061a7890d75c8b26c884693b3b8f9ee5a9c423_ligand_2.pdbqt
 12 12 0 0 0
SMALL
GASTEIGER

@<TRIPOS>ATOM
      1  C          8.2490   -0.6660   -2.1230 C.3     1  UNL1        0.1270
      2  C          8.2870   -1.9020   -2.9410 C.2     1  UNL1        0.3030
      3  O          7.2330   -2.4260   -3.3780 O.2     1  UNL1       -0.2520
      4  O          9.4920   -2.5140   -3.2450 O.3     1  UNL1       -0.4810
      5  H         10.1160   -2.0800   -3.9310 H       1  UNL1        0.2960
      6  C          7.9030   -1.0430   -0.7150 C.3     1  UNL1        0.0470
      7  C          6.8970   -0.1810   -0.0990 C.2     1  UNL1       -0.0470
      8  C          6.4460   -0.4270    1.1770 C.2     1  UNL1        0.0040
      9  C          6.4020    0.8880   -0.8100 C.2     1  UNL1        0.0040
     10  C          5.4840    0.4390    1.7030 C.2     1  UNL1        0.0000
     11  C          5.4510    1.7430   -0.2880 C.2     1  UNL1        0.0000
     12  C          4.9940    1.5030    0.9890 C.2     1  UNL1        0.0000
@<TRIPOS>BOND
     1     5     4    1
     2     3     2    2
     3     4     2    1
     4     2     1    1
     5     1     6    1
     6     9    11    1
     7     9     7    2
     8     6     7    1
     9    11    12    2
    10     7     8    1
    11    12    10    1
    12     8    10    2
