@<TRIPOS>MOLECULE
/home/cewinharhar/GITHUB/reincatalyze/data/processed/docking_pred/2023-Apr-26-1657_maxeplen10_maxtrainstep1000_exh32_gamma099_lrac9e-4_lrcr1e-3/6b061a7890d75c8b26c884693b3b8f9ee5a9c423_ligand_2.pdbqt
 12 12 0 0 0
SMALL
GASTEIGER

@<TRIPOS>ATOM
      1  C          8.2910   -0.9180   -1.8610 C.3     1  UNL1        0.1270
      2  C          8.4220   -2.0160   -2.8470 C.2     1  UNL1        0.3030
      3  O          9.5410   -2.5200   -3.1160 O.2     1  UNL1       -0.2520
      4  O          7.3090   -2.5190   -3.5020 O.3     1  UNL1       -0.4810
      5  H          6.9460   -2.0270   -4.3230 H       1  UNL1        0.2960
      6  C          7.3790   -1.3760   -0.7640 C.3     1  UNL1        0.0470
      7  C          6.5610   -0.3110   -0.1870 C.2     1  UNL1       -0.0470
      8  C          6.2360    0.8040   -0.9250 C.2     1  UNL1        0.0040
      9  C          6.1140   -0.4350    1.1080 C.2     1  UNL1        0.0040
     10  C          5.4500    1.7810   -0.3100 C.2     1  UNL1        0.0000
     11  C          5.3370    0.5330    1.7140 C.2     1  UNL1        0.0000
     12  C          5.0070    1.6530    0.9820 C.2     1  UNL1        0.0000
@<TRIPOS>BOND
     1     5     4    1
     2     4     2    1
     3     3     2    2
     4     2     1    1
     5     1     6    1
     6     8    10    1
     7     8     7    2
     8     6     7    1
     9    10    12    2
    10     7     9    1
    11    12    11    1
    12     9    11    2
