@<TRIPOS>MOLECULE
/home/cewinharhar/GITHUB/reincatalyze/data/processed/docking_pred/2023-Apr-26-1657_maxeplen10_maxtrainstep1000_exh32_gamma099_lrac9e-4_lrcr1e-3/6b061a7890d75c8b26c884693b3b8f9ee5a9c423_ligand_2.pdbqt
 12 12 0 0 0
SMALL
GASTEIGER

@<TRIPOS>ATOM
      1  C          8.4760   -0.6430   -2.1300 C.3     1  UNL1        0.1270
      2  C          8.4900   -1.9020   -2.9110 C.2     1  UNL1        0.3030
      3  O          9.5590   -2.5280   -3.1160 O.2     1  UNL1       -0.2520
      4  O          7.3200   -2.4230   -3.4380 O.3     1  UNL1       -0.4810
      5  H          7.3740   -3.1420   -4.1650 H       1  UNL1        0.2960
      6  C          7.0760   -0.1110   -2.1190 C.3     1  UNL1        0.0470
      7  C          6.5100    0.0460   -0.7800 C.2     1  UNL1       -0.0470
      8  C          6.6250   -0.9570    0.1540 C.2     1  UNL1        0.0040
      9  C          5.8580    1.2140   -0.4590 C.2     1  UNL1        0.0040
     10  C          6.0610   -0.7380    1.4130 C.2     1  UNL1        0.0000
     11  C          5.3010    1.4290    0.7860 C.2     1  UNL1        0.0000
     12  C          5.4110    0.4290    1.7270 C.2     1  UNL1        0.0000
@<TRIPOS>BOND
     1     5     4    1
     2     4     2    1
     3     3     2    2
     4     2     1    1
     5     1     6    1
     6     6     7    1
     7     7     9    2
     8     7     8    1
     9     9    11    1
    10     8    10    2
    11    11    12    2
    12    10    12    1
