@<TRIPOS>MOLECULE
/home/cewinharhar/GITHUB/reincatalyze/data/processed/docking_pred/2023-Apr-26-1657_maxeplen10_maxtrainstep1000_exh32_gamma099_lrac9e-4_lrcr1e-3/6b061a7890d75c8b26c884693b3b8f9ee5a9c423_ligand_2.pdbqt
 12 12 0 0 0
SMALL
GASTEIGER

@<TRIPOS>ATOM
      1  C          4.9980    1.8050    0.7020 C.3     1  UNL1        0.1270
      2  C          4.4880    1.1180    1.9110 C.2     1  UNL1        0.3030
      3  O          5.1520    0.2130    2.4740 O.2     1  UNL1       -0.2520
      4  O          3.2600    1.4560    2.4560 O.3     1  UNL1       -0.4810
      5  H          2.6950    2.1810    2.0050 H       1  UNL1        0.2960
      6  C          6.4960    1.7940    0.7510 C.3     1  UNL1        0.0470
      7  C          7.1200    1.0440   -0.3370 C.2     1  UNL1       -0.0470
      8  C          6.3880    0.1570   -1.0910 C.2     1  UNL1        0.0040
      9  C          8.4570    1.2340   -0.6040 C.2     1  UNL1        0.0040
     10  C          7.0490   -0.5250   -2.1150 C.2     1  UNL1        0.0000
     11  C          9.1090    0.5590   -1.6160 C.2     1  UNL1        0.0000
     12  C          8.3830   -0.3320   -2.3750 C.2     1  UNL1        0.0000
@<TRIPOS>BOND
     1    12    10    2
     2    12    11    1
     3    10     8    1
     4    11     9    2
     5     8     7    2
     6     9     7    1
     7     7     6    1
     8     1     6    1
     9     1     2    1
    10     2     4    1
    11     2     3    2
    12     5     4    1
