MODEL 1
REMARK VINA RESULT:      -7.4      0.000      0.000
REMARK SMILES O=C(O)CCc1ccccc1
REMARK SMILES IDX 4 1 2 2 1 3 3 4 5 6 6 7 7 8 11 9 8 10 10 11 9 12
REMARK H PARENT 3 5
REMARK Flexibility Score: inf
ROOT
ATOM      1  C   UNL     1       8.476  -0.643  -2.130  1.00  0.00     0.127 C 
ENDROOT
BRANCH   1   2
ATOM      2  C   UNL     1       8.490  -1.902  -2.911  1.00  0.00     0.303 C 
ATOM      3  O   UNL     1       9.559  -2.528  -3.116  1.00  0.00    -0.252 OA
BRANCH   2   4
ATOM      4  O   UNL     1       7.320  -2.423  -3.438  1.00  0.00    -0.481 OA
ATOM      5  H   UNL     1       7.374  -3.142  -4.165  1.00  0.00     0.296 HD
ENDBRANCH   2   4
ENDBRANCH   1   2
BRANCH   1   6
ATOM      6  C   UNL     1       7.076  -0.111  -2.119  1.00  0.00     0.047 C 
BRANCH   6   7
ATOM      7  C   UNL     1       6.510   0.046  -0.780  1.00  0.00    -0.047 A 
ATOM      8  C   UNL     1       6.625  -0.957   0.154  1.00  0.00     0.004 A 
ATOM      9  C   UNL     1       5.858   1.214  -0.459  1.00  0.00     0.004 A 
ATOM     10  C   UNL     1       6.061  -0.738   1.413  1.00  0.00     0.000 A 
ATOM     11  C   UNL     1       5.301   1.429   0.786  1.00  0.00     0.000 A 
ATOM     12  C   UNL     1       5.411   0.429   1.727  1.00  0.00     0.000 A 
ENDBRANCH   6   7
ENDBRANCH   1   6
TORSDOF 4
ENDMDL
MODEL 2
REMARK VINA RESULT:      -7.3      0.124      1.732
REMARK SMILES O=C(O)CCc1ccccc1
REMARK SMILES IDX 4 1 2 2 1 3 3 4 5 6 6 7 7 8 11 9 8 10 10 11 9 12
REMARK H PARENT 3 5
REMARK Flexibility Score: inf
ROOT
ATOM      1  C   UNL     1       8.406  -0.643  -2.096  1.00  0.00     0.127 C 
ENDROOT
BRANCH   1   2
ATOM      2  C   UNL     1       8.376  -1.897  -2.884  1.00  0.00     0.303 C 
ATOM      3  O   UNL     1       7.290  -2.413  -3.246  1.00  0.00    -0.252 OA
BRANCH   2   4
ATOM      4  O   UNL     1       9.551  -2.538  -3.244  1.00  0.00    -0.481 OA
ATOM      5  H   UNL     1       9.503  -3.403  -3.788  1.00  0.00     0.296 HD
ENDBRANCH   2   4
ENDBRANCH   1   2
BRANCH   1   6
ATOM      6  C   UNL     1       7.023  -0.065  -2.078  1.00  0.00     0.047 C 
BRANCH   6   7
ATOM      7  C   UNL     1       6.462   0.091  -0.737  1.00  0.00    -0.047 A 
ATOM      8  C   UNL     1       5.810   1.248  -0.378  1.00  0.00     0.004 A 
ATOM      9  C   UNL     1       6.591  -0.937   0.169  1.00  0.00     0.004 A 
ATOM     10  C   UNL     1       5.298   1.327   0.919  1.00  0.00     0.000 A 
ATOM     11  C   UNL     1       6.084  -0.856   1.451  1.00  0.00     0.000 A 
ATOM     12  C   UNL     1       5.430   0.299   1.819  1.00  0.00     0.000 A 
ENDBRANCH   6   7
ENDBRANCH   1   6
TORSDOF 4
ENDMDL
MODEL 3
REMARK VINA RESULT:      -7.2      0.627      1.580
REMARK SMILES O=C(O)CCc1ccccc1
REMARK SMILES IDX 4 1 2 2 1 3 3 4 5 6 6 7 7 8 11 9 8 10 10 11 9 12
REMARK H PARENT 3 5
REMARK Flexibility Score: inf
ROOT
ATOM      1  C   UNL     1       8.291  -0.918  -1.861  1.00  0.00     0.127 C 
ENDROOT
BRANCH   1   2
ATOM      2  C   UNL     1       8.422  -2.016  -2.847  1.00  0.00     0.303 C 
ATOM      3  O   UNL     1       9.541  -2.520  -3.116  1.00  0.00    -0.252 OA
BRANCH   2   4
ATOM      4  O   UNL     1       7.309  -2.519  -3.502  1.00  0.00    -0.481 OA
ATOM      5  H   UNL     1       6.946  -2.027  -4.323  1.00  0.00     0.296 HD
ENDBRANCH   2   4
ENDBRANCH   1   2
BRANCH   1   6
ATOM      6  C   UNL     1       7.379  -1.376  -0.764  1.00  0.00     0.047 C 
BRANCH   6   7
ATOM      7  C   UNL     1       6.561  -0.311  -0.187  1.00  0.00    -0.047 A 
ATOM      8  C   UNL     1       6.236   0.804  -0.925  1.00  0.00     0.004 A 
ATOM      9  C   UNL     1       6.114  -0.435   1.108  1.00  0.00     0.004 A 
ATOM     10  C   UNL     1       5.450   1.781  -0.310  1.00  0.00     0.000 A 
ATOM     11  C   UNL     1       5.337   0.533   1.714  1.00  0.00     0.000 A 
ATOM     12  C   UNL     1       5.007   1.653   0.982  1.00  0.00     0.000 A 
ENDBRANCH   6   7
ENDBRANCH   1   6
TORSDOF 4
ENDMDL
MODEL 4
REMARK VINA RESULT:      -6.9      0.649      1.394
REMARK SMILES O=C(O)CCc1ccccc1
REMARK SMILES IDX 4 1 2 2 1 3 3 4 5 6 6 7 7 8 11 9 8 10 10 11 9 12
REMARK H PARENT 3 5
REMARK Flexibility Score: inf
ROOT
ATOM      1  C   UNL     1       8.249  -0.666  -2.123  1.00  0.00     0.127 C 
ENDROOT
BRANCH   1   2
ATOM      2  C   UNL     1       8.287  -1.902  -2.941  1.00  0.00     0.303 C 
ATOM      3  O   UNL     1       7.233  -2.426  -3.378  1.00  0.00    -0.252 OA
BRANCH   2   4
ATOM      4  O   UNL     1       9.492  -2.514  -3.245  1.00  0.00    -0.481 OA
ATOM      5  H   UNL     1      10.116  -2.080  -3.931  1.00  0.00     0.296 HD
ENDBRANCH   2   4
ENDBRANCH   1   2
BRANCH   1   6
ATOM      6  C   UNL     1       7.903  -1.043  -0.715  1.00  0.00     0.047 C 
BRANCH   6   7
ATOM      7  C   UNL     1       6.897  -0.181  -0.099  1.00  0.00    -0.047 A 
ATOM      8  C   UNL     1       6.446  -0.427   1.177  1.00  0.00     0.004 A 
ATOM      9  C   UNL     1       6.402   0.888  -0.810  1.00  0.00     0.004 A 
ATOM     10  C   UNL     1       5.484   0.439   1.703  1.00  0.00     0.000 A 
ATOM     11  C   UNL     1       5.451   1.743  -0.288  1.00  0.00     0.000 A 
ATOM     12  C   UNL     1       4.994   1.503   0.989  1.00  0.00     0.000 A 
ENDBRANCH   6   7
ENDBRANCH   1   6
TORSDOF 4
ENDMDL
MODEL 5
REMARK VINA RESULT:      -6.8      3.377      5.073
REMARK SMILES O=C(O)CCc1ccccc1
REMARK SMILES IDX 4 1 2 2 1 3 3 4 5 6 6 7 7 8 11 9 8 10 10 11 9 12
REMARK H PARENT 3 5
REMARK Flexibility Score: inf
ROOT
ATOM      1  C   UNL     1       4.998   1.805   0.702  1.00  0.00     0.127 C 
ENDROOT
BRANCH   1   2
ATOM      2  C   UNL     1       4.488   1.118   1.911  1.00  0.00     0.303 C 
ATOM      3  O   UNL     1       5.152   0.213   2.474  1.00  0.00    -0.252 OA
BRANCH   2   4
ATOM      4  O   UNL     1       3.260   1.456   2.456  1.00  0.00    -0.481 OA
ATOM      5  H   UNL     1       2.695   2.181   2.005  1.00  0.00     0.296 HD
ENDBRANCH   2   4
ENDBRANCH   1   2
BRANCH   1   6
ATOM      6  C   UNL     1       6.496   1.794   0.751  1.00  0.00     0.047 C 
BRANCH   6   7
ATOM      7  C   UNL     1       7.120   1.044  -0.337  1.00  0.00    -0.047 A 
ATOM      8  C   UNL     1       6.388   0.157  -1.091  1.00  0.00     0.004 A 
ATOM      9  C   UNL     1       8.457   1.234  -0.604  1.00  0.00     0.004 A 
ATOM     10  C   UNL     1       7.049  -0.525  -2.115  1.00  0.00     0.000 A 
ATOM     11  C   UNL     1       9.109   0.559  -1.616  1.00  0.00     0.000 A 
ATOM     12  C   UNL     1       8.383  -0.332  -2.375  1.00  0.00     0.000 A 
ENDBRANCH   6   7
ENDBRANCH   1   6
TORSDOF 4
ENDMDL
