@<TRIPOS>MOLECULE
/home/cewinharhar/GITHUB/reincatalyze/data/processed/docking_pred/2023-Apr-26-1657_maxeplen10_maxtrainstep1000_exh32_gamma099_lrac9e-4_lrcr1e-3/6b061a7890d75c8b26c884693b3b8f9ee5a9c423_ligand_2.pdbqt
 12 12 0 0 0
SMALL
GASTEIGER

@<TRIPOS>ATOM
      1  C          8.4060   -0.6430   -2.0960 C.3     1  UNL1        0.1270
      2  C          8.3760   -1.8970   -2.8840 C.2     1  UNL1        0.3030
      3  O          7.2900   -2.4130   -3.2460 O.2     1  UNL1       -0.2520
      4  O          9.5510   -2.5380   -3.2440 O.3     1  UNL1       -0.4810
      5  H          9.5030   -3.4030   -3.7880 H       1  UNL1        0.2960
      6  C          7.0230   -0.0650   -2.0780 C.3     1  UNL1        0.0470
      7  C          6.4620    0.0910   -0.7370 C.2     1  UNL1       -0.0470
      8  C          5.8100    1.2480   -0.3780 C.2     1  UNL1        0.0040
      9  C          6.5910   -0.9370    0.1690 C.2     1  UNL1        0.0040
     10  C          5.2980    1.3270    0.9190 C.2     1  UNL1        0.0000
     11  C          6.0840   -0.8560    1.4510 C.2     1  UNL1        0.0000
     12  C          5.4300    0.2990    1.8190 C.2     1  UNL1        0.0000
@<TRIPOS>BOND
     1     5     4    1
     2     3     2    2
     3     4     2    1
     4     2     1    1
     5     1     6    1
     6     6     7    1
     7     7     8    2
     8     7     9    1
     9     8    10    1
    10     9    11    2
    11    10    12    2
    12    11    12    1
