@<TRIPOS>MOLECULE
/home/cewinharhar/GITHUB/reincatalyze/data/processed/docking_pred/2023-Apr-26-1657_maxeplen10_maxtrainstep1000_exh32_gamma099_lrac9e-4_lrcr1e-3/6b66a19e3843729fbb18dde59d8ef2ce5f9236cc_ligand_2.pdbqt
 12 12 0 0 0
SMALL
GASTEIGER

@<TRIPOS>ATOM
      1  C          8.4620   -0.6420   -2.1160 C.3     1  UNL1        0.1270
      2  C          8.4780   -1.9080   -2.8850 C.2     1  UNL1        0.3030
      3  O          9.5440   -2.5470   -3.0650 O.2     1  UNL1       -0.2520
      4  O          7.3120   -2.4230   -3.4280 O.3     1  UNL1       -0.4810
      5  H          7.0690   -2.1990   -4.3970 H       1  UNL1        0.2960
      6  C          7.0590   -0.1170   -2.1000 C.3     1  UNL1        0.0470
      7  C          6.4970    0.0380   -0.7590 C.2     1  UNL1       -0.0470
      8  C          6.6070   -0.9710    0.1700 C.2     1  UNL1        0.0040
      9  C          5.8550    1.2090   -0.4320 C.2     1  UNL1        0.0040
     10  C          6.0470   -0.7540    1.4310 C.2     1  UNL1        0.0000
     11  C          5.3020    1.4220    0.8150 C.2     1  UNL1        0.0000
     12  C          5.4070    0.4170    1.7520 C.2     1  UNL1        0.0000
@<TRIPOS>BOND
     1     5     4    1
     2     4     2    1
     3     3     2    2
     4     2     1    1
     5     1     6    1
     6     6     7    1
     7     7     9    2
     8     7     8    1
     9     9    11    1
    10     8    10    2
    11    11    12    2
    12    10    12    1
