MODEL 1
REMARK VINA RESULT:      -7.4      0.000      0.000
REMARK SMILES O=C(O)CCc1ccccc1
REMARK SMILES IDX 4 1 2 2 1 3 3 4 5 6 6 7 7 8 11 9 8 10 10 11 9 12
REMARK H PARENT 3 5
REMARK Flexibility Score: inf
ROOT
ATOM      1  C   UNL     1       8.462  -0.642  -2.116  1.00  0.00     0.127 C 
ENDROOT
BRANCH   1   2
ATOM      2  C   UNL     1       8.478  -1.908  -2.885  1.00  0.00     0.303 C 
ATOM      3  O   UNL     1       9.544  -2.547  -3.065  1.00  0.00    -0.252 OA
BRANCH   2   4
ATOM      4  O   UNL     1       7.312  -2.423  -3.428  1.00  0.00    -0.481 OA
ATOM      5  H   UNL     1       7.069  -2.199  -4.397  1.00  0.00     0.296 HD
ENDBRANCH   2   4
ENDBRANCH   1   2
BRANCH   1   6
ATOM      6  C   UNL     1       7.059  -0.117  -2.100  1.00  0.00     0.047 C 
BRANCH   6   7
ATOM      7  C   UNL     1       6.497   0.038  -0.759  1.00  0.00    -0.047 A 
ATOM      8  C   UNL     1       6.607  -0.971   0.170  1.00  0.00     0.004 A 
ATOM      9  C   UNL     1       5.855   1.209  -0.432  1.00  0.00     0.004 A 
ATOM     10  C   UNL     1       6.047  -0.754   1.431  1.00  0.00     0.000 A 
ATOM     11  C   UNL     1       5.302   1.422   0.815  1.00  0.00     0.000 A 
ATOM     12  C   UNL     1       5.407   0.417   1.752  1.00  0.00     0.000 A 
ENDBRANCH   6   7
ENDBRANCH   1   6
TORSDOF 4
ENDMDL
MODEL 2
REMARK VINA RESULT:      -7.3      0.100      1.440
REMARK SMILES O=C(O)CCc1ccccc1
REMARK SMILES IDX 4 1 2 2 1 3 3 4 5 6 6 7 7 8 11 9 8 10 10 11 9 12
REMARK H PARENT 3 5
REMARK Flexibility Score: inf
ROOT
ATOM      1  C   UNL     1       8.436  -0.568  -2.221  1.00  0.00     0.127 C 
ENDROOT
BRANCH   1   2
ATOM      2  C   UNL     1       8.480  -1.867  -2.933  1.00  0.00     0.303 C 
ATOM      3  O   UNL     1       9.561  -2.487  -3.089  1.00  0.00    -0.252 OA
BRANCH   2   4
ATOM      4  O   UNL     1       7.325  -2.435  -3.446  1.00  0.00    -0.481 OA
ATOM      5  H   UNL     1       6.659  -2.880  -2.809  1.00  0.00     0.296 HD
ENDBRANCH   2   4
ENDBRANCH   1   2
BRANCH   1   6
ATOM      6  C   UNL     1       7.013  -0.102  -2.179  1.00  0.00     0.047 C 
BRANCH   6   7
ATOM      7  C   UNL     1       6.483   0.070  -0.827  1.00  0.00    -0.047 A 
ATOM      8  C   UNL     1       5.850   1.235  -0.463  1.00  0.00     0.004 A 
ATOM      9  C   UNL     1       6.622  -0.952   0.083  1.00  0.00     0.004 A 
ATOM     10  C   UNL     1       5.368   1.330   0.845  1.00  0.00     0.000 A 
ATOM     11  C   UNL     1       6.145  -0.857   1.375  1.00  0.00     0.000 A 
ATOM     12  C   UNL     1       5.511   0.307   1.749  1.00  0.00     0.000 A 
ENDBRANCH   6   7
ENDBRANCH   1   6
TORSDOF 4
ENDMDL
MODEL 3
REMARK VINA RESULT:      -6.7      3.334      5.033
REMARK SMILES O=C(O)CCc1ccccc1
REMARK SMILES IDX 4 1 2 2 1 3 3 4 5 6 6 7 7 8 11 9 8 10 10 11 9 12
REMARK H PARENT 3 5
REMARK Flexibility Score: inf
ROOT
ATOM      1  C   UNL     1       5.030   1.727   0.675  1.00  0.00     0.127 C 
ENDROOT
BRANCH   1   2
ATOM      2  C   UNL     1       4.601   1.040   1.916  1.00  0.00     0.303 C 
ATOM      3  O   UNL     1       5.339   0.195   2.480  1.00  0.00    -0.252 OA
BRANCH   2   4
ATOM      4  O   UNL     1       3.369   1.312   2.488  1.00  0.00    -0.481 OA
ATOM      5  H   UNL     1       3.331   1.817   3.378  1.00  0.00     0.296 HD
ENDBRANCH   2   4
ENDBRANCH   1   2
BRANCH   1   6
ATOM      6  C   UNL     1       6.526   1.814   0.678  1.00  0.00     0.047 C 
BRANCH   6   7
ATOM      7  C   UNL     1       7.169   1.041  -0.384  1.00  0.00    -0.047 A 
ATOM      8  C   UNL     1       8.511   1.188  -0.646  1.00  0.00     0.004 A 
ATOM      9  C   UNL     1       6.415   0.158  -1.122  1.00  0.00     0.004 A 
ATOM     10  C   UNL     1       9.059   0.417  -1.674  1.00  0.00     0.000 A 
ATOM     11  C   UNL     1       6.958  -0.603  -2.138  1.00  0.00     0.000 A 
ATOM     12  C   UNL     1       8.302  -0.461  -2.408  1.00  0.00     0.000 A 
ENDBRANCH   6   7
ENDBRANCH   1   6
TORSDOF 4
ENDMDL
MODEL 4
REMARK VINA RESULT:      -6.7      1.945      2.617
REMARK SMILES O=C(O)CCc1ccccc1
REMARK SMILES IDX 4 1 2 2 1 3 3 4 5 6 6 7 7 8 11 9 8 10 10 11 9 12
REMARK H PARENT 3 5
REMARK Flexibility Score: inf
ROOT
ATOM      1  C   UNL     1       8.179   0.261  -2.079  1.00  0.00     0.127 C 
ENDROOT
BRANCH   1   2
ATOM      2  C   UNL     1       9.355   0.356  -1.183  1.00  0.00     0.303 C 
ATOM      3  O   UNL     1       9.475  -0.396  -0.184  1.00  0.00    -0.252 OA
BRANCH   2   4
ATOM      4  O   UNL     1      10.358   1.281  -1.423  1.00  0.00    -0.481 OA
ATOM      5  H   UNL     1      10.736   1.825  -0.642  1.00  0.00     0.296 HD
ENDBRANCH   2   4
ENDBRANCH   1   2
BRANCH   1   6
ATOM      6  C   UNL     1       7.140  -0.583  -1.404  1.00  0.00     0.047 C 
BRANCH   6   7
ATOM      7  C   UNL     1       6.353   0.133  -0.402  1.00  0.00    -0.047 A 
ATOM      8  C   UNL     1       5.809   1.365  -0.684  1.00  0.00     0.004 A 
ATOM      9  C   UNL     1       6.157  -0.441   0.833  1.00  0.00     0.004 A 
ATOM     10  C   UNL     1       5.067   1.990   0.321  1.00  0.00     0.000 A 
ATOM     11  C   UNL     1       5.424   0.180   1.825  1.00  0.00     0.000 A 
ATOM     12  C   UNL     1       4.876   1.414   1.551  1.00  0.00     0.000 A 
ENDBRANCH   6   7
ENDBRANCH   1   6
TORSDOF 4
ENDMDL
MODEL 5
REMARK VINA RESULT:      -6.5      3.679      5.098
REMARK SMILES O=C(O)CCc1ccccc1
REMARK SMILES IDX 4 1 2 2 1 3 3 4 5 6 6 7 7 8 11 9 8 10 10 11 9 12
REMARK H PARENT 3 5
REMARK Flexibility Score: inf
ROOT
ATOM      1  C   UNL     1       5.328   2.840   0.076  1.00  0.00     0.127 C 
ENDROOT
BRANCH   1   2
ATOM      2  C   UNL     1       6.175   3.763   0.868  1.00  0.00     0.303 C 
ATOM      3  O   UNL     1       6.265   3.654   2.116  1.00  0.00    -0.252 OA
BRANCH   2   4
ATOM      4  O   UNL     1       6.893   4.775   0.251  1.00  0.00    -0.481 OA
ATOM      5  H   UNL     1       6.743   4.960  -0.745  1.00  0.00     0.296 HD
ENDBRANCH   2   4
ENDBRANCH   1   2
BRANCH   1   6
ATOM      6  C   UNL     1       5.289   1.517   0.778  1.00  0.00     0.047 C 
BRANCH   6   7
ATOM      7  C   UNL     1       6.080   0.474   0.126  1.00  0.00    -0.047 A 
ATOM      8  C   UNL     1       6.365   0.545  -1.218  1.00  0.00     0.004 A 
ATOM      9  C   UNL     1       6.541  -0.585   0.873  1.00  0.00     0.004 A 
ATOM     10  C   UNL     1       7.126  -0.486  -1.774  1.00  0.00     0.000 A 
ATOM     11  C   UNL     1       7.293  -1.603   0.322  1.00  0.00     0.000 A 
ATOM     12  C   UNL     1       7.583  -1.540  -1.024  1.00  0.00     0.000 A 
ENDBRANCH   6   7
ENDBRANCH   1   6
TORSDOF 4
ENDMDL
