@<TRIPOS>MOLECULE
/home/cewinharhar/GITHUB/reincatalyze/data/processed/docking_pred/2023-Apr-26-1657_maxeplen10_maxtrainstep1000_exh32_gamma099_lrac9e-4_lrcr1e-3/6b66a19e3843729fbb18dde59d8ef2ce5f9236cc_ligand_2.pdbqt
 12 12 0 0 0
SMALL
GASTEIGER

@<TRIPOS>ATOM
      1  C          8.4360   -0.5680   -2.2210 C.3     1  UNL1        0.1270
      2  C          8.4800   -1.8670   -2.9330 C.2     1  UNL1        0.3030
      3  O          9.5610   -2.4870   -3.0890 O.2     1  UNL1       -0.2520
      4  O          7.3250   -2.4350   -3.4460 O.3     1  UNL1       -0.4810
      5  H          6.6590   -2.8800   -2.8090 H       1  UNL1        0.2960
      6  C          7.0130   -0.1020   -2.1790 C.3     1  UNL1        0.0470
      7  C          6.4830    0.0700   -0.8270 C.2     1  UNL1       -0.0470
      8  C          5.8500    1.2350   -0.4630 C.2     1  UNL1        0.0040
      9  C          6.6220   -0.9520    0.0830 C.2     1  UNL1        0.0040
     10  C          5.3680    1.3300    0.8450 C.2     1  UNL1        0.0000
     11  C          6.1450   -0.8570    1.3750 C.2     1  UNL1        0.0000
     12  C          5.5110    0.3070    1.7490 C.2     1  UNL1        0.0000
@<TRIPOS>BOND
     1     4     2    1
     2     4     5    1
     3     3     2    2
     4     2     1    1
     5     1     6    1
     6     6     7    1
     7     7     8    2
     8     7     9    1
     9     8    10    1
    10     9    11    2
    11    10    12    2
    12    11    12    1
