@<TRIPOS>MOLECULE
/home/cewinharhar/GITHUB/reincatalyze/data/processed/docking_pred/2023-Apr-26-1657_maxeplen10_maxtrainstep1000_exh32_gamma099_lrac9e-4_lrcr1e-3/6b66a19e3843729fbb18dde59d8ef2ce5f9236cc_ligand_2.pdbqt
 12 12 0 0 0
SMALL
GASTEIGER

@<TRIPOS>ATOM
      1  C          8.1790    0.2610   -2.0790 C.3     1  UNL1        0.1270
      2  C          9.3550    0.3560   -1.1830 C.2     1  UNL1        0.3030
      3  O          9.4750   -0.3960   -0.1840 O.2     1  UNL1       -0.2520
      4  O         10.3580    1.2810   -1.4230 O.3     1  UNL1       -0.4810
      5  H         10.7360    1.8250   -0.6420 H       1  UNL1        0.2960
      6  C          7.1400   -0.5830   -1.4040 C.3     1  UNL1        0.0470
      7  C          6.3530    0.1330   -0.4020 C.2     1  UNL1       -0.0470
      8  C          5.8090    1.3650   -0.6840 C.2     1  UNL1        0.0040
      9  C          6.1570   -0.4410    0.8330 C.2     1  UNL1        0.0040
     10  C          5.0670    1.9900    0.3210 C.2     1  UNL1        0.0000
     11  C          5.4240    0.1800    1.8250 C.2     1  UNL1        0.0000
     12  C          4.8760    1.4140    1.5510 C.2     1  UNL1        0.0000
@<TRIPOS>BOND
     1     1     6    1
     2     1     2    1
     3     4     2    1
     4     4     5    1
     5     6     7    1
     6     2     3    2
     7     8     7    2
     8     8    10    1
     9     7     9    1
    10    10    12    2
    11     9    11    2
    12    12    11    1
