@<TRIPOS>MOLECULE
/home/cewinharhar/GITHUB/reincatalyze/data/processed/docking_pred/2023-Apr-26-1657_maxeplen10_maxtrainstep1000_exh32_gamma099_lrac9e-4_lrcr1e-3/6b66a19e3843729fbb18dde59d8ef2ce5f9236cc_ligand_2.pdbqt
 12 12 0 0 0
SMALL
GASTEIGER

@<TRIPOS>ATOM
      1  C          5.3280    2.8400    0.0760 C.3     1  UNL1        0.1270
      2  C          6.1750    3.7630    0.8680 C.2     1  UNL1        0.3030
      3  O          6.2650    3.6540    2.1160 O.2     1  UNL1       -0.2520
      4  O          6.8930    4.7750    0.2510 O.3     1  UNL1       -0.4810
      5  H          6.7430    4.9600   -0.7450 H       1  UNL1        0.2960
      6  C          5.2890    1.5170    0.7780 C.3     1  UNL1        0.0470
      7  C          6.0800    0.4740    0.1260 C.2     1  UNL1       -0.0470
      8  C          6.3650    0.5450   -1.2180 C.2     1  UNL1        0.0040
      9  C          6.5410   -0.5850    0.8730 C.2     1  UNL1        0.0040
     10  C          7.1260   -0.4860   -1.7740 C.2     1  UNL1        0.0000
     11  C          7.2930   -1.6030    0.3220 C.2     1  UNL1        0.0000
     12  C          7.5830   -1.5400   -1.0240 C.2     1  UNL1        0.0000
@<TRIPOS>BOND
     1    10     8    1
     2    10    12    2
     3     8     7    2
     4    12    11    1
     5     5     4    1
     6     1     6    1
     7     1     2    1
     8     7     6    1
     9     7     9    1
    10     4     2    1
    11    11     9    2
    12     2     3    2
