@<TRIPOS>MOLECULE
/home/cewinharhar/GITHUB/reincatalyze/data/processed/docking_pred/2023-Apr-26-1657_maxeplen10_maxtrainstep1000_exh32_gamma099_lrac9e-4_lrcr1e-3/6b66a19e3843729fbb18dde59d8ef2ce5f9236cc_ligand_2.pdbqt
 12 12 0 0 0
SMALL
GASTEIGER

@<TRIPOS>ATOM
      1  C          5.0300    1.7270    0.6750 C.3     1  UNL1        0.1270
      2  C          4.6010    1.0400    1.9160 C.2     1  UNL1        0.3030
      3  O          5.3390    0.1950    2.4800 O.2     1  UNL1       -0.2520
      4  O          3.3690    1.3120    2.4880 O.3     1  UNL1       -0.4810
      5  H          3.3310    1.8170    3.3780 H       1  UNL1        0.2960
      6  C          6.5260    1.8140    0.6780 C.3     1  UNL1        0.0470
      7  C          7.1690    1.0410   -0.3840 C.2     1  UNL1       -0.0470
      8  C          8.5110    1.1880   -0.6460 C.2     1  UNL1        0.0040
      9  C          6.4150    0.1580   -1.1220 C.2     1  UNL1        0.0040
     10  C          9.0590    0.4170   -1.6740 C.2     1  UNL1        0.0000
     11  C          6.9580   -0.6030   -2.1380 C.2     1  UNL1        0.0000
     12  C          8.3020   -0.4610   -2.4080 C.2     1  UNL1        0.0000
@<TRIPOS>BOND
     1    12    11    2
     2    12    10    1
     3    11     9    1
     4    10     8    2
     5     9     7    2
     6     8     7    1
     7     7     6    1
     8     1     6    1
     9     1     2    1
    10     2     3    2
    11     2     4    1
    12     4     5    1
