@<TRIPOS>MOLECULE
/home/cewinharhar/GITHUB/reincatalyze/data/processed/docking_pred/2023-Apr-26-1657_maxeplen10_maxtrainstep1000_exh32_gamma099_lrac9e-4_lrcr1e-3/6ceeb54199aca0c96a32aff90fdf9e1d9b8e1f8c_ligand_2.pdbqt
 12 12 0 0 0
SMALL
GASTEIGER

@<TRIPOS>ATOM
      1  C          4.9890    1.8150    0.7170 C.3     1  UNL1        0.1270
      2  C          4.4760    1.1170    1.9190 C.2     1  UNL1        0.3030
      3  O          5.1360    0.2040    2.4730 O.2     1  UNL1       -0.2520
      4  O          3.2490    1.4550    2.4660 O.3     1  UNL1       -0.4810
      5  H          2.5510    1.9220    1.8810 H       1  UNL1        0.2960
      6  C          6.4870    1.7930    0.7630 C.3     1  UNL1        0.0470
      7  C          7.1040    1.0460   -0.3320 C.2     1  UNL1       -0.0470
      8  C          6.3670    0.1600   -1.0820 C.2     1  UNL1        0.0040
      9  C          8.4380    1.2390   -0.6080 C.2     1  UNL1        0.0040
     10  C          7.0210   -0.5180   -2.1130 C.2     1  UNL1        0.0000
     11  C          9.0840    0.5680   -1.6270 C.2     1  UNL1        0.0000
     12  C          8.3520   -0.3220   -2.3840 C.2     1  UNL1        0.0000
@<TRIPOS>BOND
     1    12    10    2
     2    12    11    1
     3    10     8    1
     4    11     9    2
     5     8     7    2
     6     9     7    1
     7     7     6    1
     8     1     6    1
     9     1     2    1
    10     5     4    1
    11     2     4    1
    12     2     3    2
