@<TRIPOS>MOLECULE
/home/cewinharhar/GITHUB/reincatalyze/data/processed/docking_pred/2023-Apr-26-1657_maxeplen10_maxtrainstep1000_exh32_gamma099_lrac9e-4_lrcr1e-3/6ceeb54199aca0c96a32aff90fdf9e1d9b8e1f8c_ligand_2.pdbqt
 12 12 0 0 0
SMALL
GASTEIGER

@<TRIPOS>ATOM
      1  C          8.2510    0.2510   -2.2540 C.3     1  UNL1        0.1270
      2  C          9.3530    0.3360   -1.2660 C.2     1  UNL1        0.3030
      3  O          9.4060   -0.4430   -0.2830 O.2     1  UNL1       -0.2520
      4  O         10.3580    1.2800   -1.4030 O.3     1  UNL1       -0.4810
      5  H         11.0310    1.4080   -0.6420 H       1  UNL1        0.2960
      6  C          7.1040   -0.4730   -1.6180 C.3     1  UNL1        0.0470
      7  C          6.3310    0.3420   -0.6820 C.2     1  UNL1       -0.0470
      8  C          5.8330    1.5670   -1.0610 C.2     1  UNL1        0.0040
      9  C          6.1040   -0.1300    0.5900 C.2     1  UNL1        0.0040
     10  C          5.1030    2.2910   -0.1160 C.2     1  UNL1        0.0000
     11  C          5.3820    0.5870    1.5240 C.2     1  UNL1        0.0000
     12  C          4.8800    1.8150    1.1520 C.2     1  UNL1        0.0000
@<TRIPOS>BOND
     1     1     6    1
     2     1     2    1
     3     6     7    1
     4     4     2    1
     5     4     5    1
     6     2     3    2
     7     8     7    2
     8     8    10    1
     9     7     9    1
    10    10    12    2
    11     9    11    2
    12    12    11    1
