@<TRIPOS>MOLECULE
/home/cewinharhar/GITHUB/reincatalyze/data/processed/docking_pred/2023-Apr-26-1657_maxeplen10_maxtrainstep1000_exh32_gamma099_lrac9e-4_lrcr1e-3/6ceeb54199aca0c96a32aff90fdf9e1d9b8e1f8c_ligand_2.pdbqt
 12 12 0 0 0
SMALL
GASTEIGER

@<TRIPOS>ATOM
      1  C          8.4320   -0.5590   -2.2260 C.3     1  UNL1        0.1270
      2  C          8.4860   -1.8630   -2.9280 C.2     1  UNL1        0.3030
      3  O          9.5720   -2.4720   -3.0890 O.2     1  UNL1       -0.2520
      4  O          7.3330   -2.4470   -3.4290 O.3     1  UNL1       -0.4810
      5  H          7.0700   -2.2790   -4.4040 H       1  UNL1        0.2960
      6  C          7.0030   -0.1120   -2.1710 C.3     1  UNL1        0.0470
      7  C          6.4810    0.0440   -0.8140 C.2     1  UNL1       -0.0470
      8  C          6.6260   -0.9600    0.1150 C.2     1  UNL1        0.0040
      9  C          5.8410    1.2120   -0.4710 C.2     1  UNL1        0.0040
     10  C          6.1030   -0.7420    1.3920 C.2     1  UNL1        0.0000
     11  C          5.3250    1.4260    0.7910 C.2     1  UNL1        0.0000
     12  C          5.4650    0.4250    1.7280 C.2     1  UNL1        0.0000
@<TRIPOS>BOND
     1     5     4    1
     2     4     2    1
     3     3     2    2
     4     2     1    1
     5     1     6    1
     6     6     7    1
     7     7     9    2
     8     7     8    1
     9     9    11    1
    10     8    10    2
    11    11    12    2
    12    10    12    1
