MODEL 1
REMARK VINA RESULT:      -7.3      0.000      0.000
REMARK SMILES O=C(O)CCc1ccccc1
REMARK SMILES IDX 4 1 2 2 1 3 3 4 5 6 6 7 7 8 11 9 8 10 10 11 9 12
REMARK H PARENT 3 5
REMARK Flexibility Score: inf
ROOT
ATOM      1  C   UNL     1       8.420  -0.640  -2.102  1.00  0.00     0.127 C 
ENDROOT
BRANCH   1   2
ATOM      2  C   UNL     1       8.456  -1.896  -2.889  1.00  0.00     0.303 C 
ATOM      3  O   UNL     1       9.532  -2.516  -3.075  1.00  0.00    -0.252 OA
BRANCH   2   4
ATOM      4  O   UNL     1       7.299  -2.420  -3.443  1.00  0.00    -0.481 OA
ATOM      5  H   UNL     1       7.357  -3.268  -4.014  1.00  0.00     0.296 HD
ENDBRANCH   2   4
ENDBRANCH   1   2
BRANCH   1   6
ATOM      6  C   UNL     1       7.009  -0.137  -2.084  1.00  0.00     0.047 C 
BRANCH   6   7
ATOM      7  C   UNL     1       6.463   0.055  -0.741  1.00  0.00    -0.047 A 
ATOM      8  C   UNL     1       5.829   1.227  -0.401  1.00  0.00     0.004 A 
ATOM      9  C   UNL     1       6.589  -0.955   0.184  1.00  0.00     0.004 A 
ATOM     10  C   UNL     1       5.331   1.340   0.899  1.00  0.00     0.000 A 
ATOM     11  C   UNL     1       6.096  -0.841   1.469  1.00  0.00     0.000 A 
ATOM     12  C   UNL     1       5.460   0.330   1.819  1.00  0.00     0.000 A 
ENDBRANCH   6   7
ENDBRANCH   1   6
TORSDOF 4
ENDMDL
MODEL 2
REMARK VINA RESULT:      -7.3      0.100      1.440
REMARK SMILES O=C(O)CCc1ccccc1
REMARK SMILES IDX 4 1 2 2 1 3 3 4 5 6 6 7 7 8 11 9 8 10 10 11 9 12
REMARK H PARENT 3 5
REMARK Flexibility Score: inf
ROOT
ATOM      1  C   UNL     1       8.432  -0.559  -2.226  1.00  0.00     0.127 C 
ENDROOT
BRANCH   1   2
ATOM      2  C   UNL     1       8.486  -1.863  -2.928  1.00  0.00     0.303 C 
ATOM      3  O   UNL     1       9.572  -2.472  -3.089  1.00  0.00    -0.252 OA
BRANCH   2   4
ATOM      4  O   UNL     1       7.333  -2.447  -3.429  1.00  0.00    -0.481 OA
ATOM      5  H   UNL     1       7.070  -2.279  -4.404  1.00  0.00     0.296 HD
ENDBRANCH   2   4
ENDBRANCH   1   2
BRANCH   1   6
ATOM      6  C   UNL     1       7.003  -0.112  -2.171  1.00  0.00     0.047 C 
BRANCH   6   7
ATOM      7  C   UNL     1       6.481   0.044  -0.814  1.00  0.00    -0.047 A 
ATOM      8  C   UNL     1       6.626  -0.960   0.115  1.00  0.00     0.004 A 
ATOM      9  C   UNL     1       5.841   1.212  -0.471  1.00  0.00     0.004 A 
ATOM     10  C   UNL     1       6.103  -0.742   1.392  1.00  0.00     0.000 A 
ATOM     11  C   UNL     1       5.325   1.426   0.791  1.00  0.00     0.000 A 
ATOM     12  C   UNL     1       5.465   0.425   1.728  1.00  0.00     0.000 A 
ENDBRANCH   6   7
ENDBRANCH   1   6
TORSDOF 4
ENDMDL
MODEL 3
REMARK VINA RESULT:      -7.2      0.619      1.616
REMARK SMILES O=C(O)CCc1ccccc1
REMARK SMILES IDX 4 1 2 2 1 3 3 4 5 6 6 7 7 8 11 9 8 10 10 11 9 12
REMARK H PARENT 3 5
REMARK Flexibility Score: inf
ROOT
ATOM      1  C   UNL     1       8.080  -0.857  -1.971  1.00  0.00     0.127 C 
ENDROOT
BRANCH   1   2
ATOM      2  C   UNL     1       8.325  -1.988  -2.897  1.00  0.00     0.303 C 
ATOM      3  O   UNL     1       9.484  -2.430  -3.091  1.00  0.00    -0.252 OA
BRANCH   2   4
ATOM      4  O   UNL     1       7.278  -2.589  -3.576  1.00  0.00    -0.481 OA
ATOM      5  H   UNL     1       6.771  -2.057  -4.289  1.00  0.00     0.296 HD
ENDBRANCH   2   4
ENDBRANCH   1   2
BRANCH   1   6
ATOM      6  C   UNL     1       7.186  -1.337  -0.868  1.00  0.00     0.047 C 
BRANCH   6   7
ATOM      7  C   UNL     1       6.438  -0.271  -0.202  1.00  0.00    -0.047 A 
ATOM      8  C   UNL     1       6.053  -0.398   1.112  1.00  0.00     0.004 A 
ATOM      9  C   UNL     1       6.124   0.868  -0.906  1.00  0.00     0.004 A 
ATOM     10  C   UNL     1       5.342   0.660   1.684  1.00  0.00     0.000 A 
ATOM     11  C   UNL     1       5.421   1.913  -0.339  1.00  0.00     0.000 A 
ATOM     12  C   UNL     1       5.031   1.794   0.978  1.00  0.00     0.000 A 
ENDBRANCH   6   7
ENDBRANCH   1   6
TORSDOF 4
ENDMDL
MODEL 4
REMARK VINA RESULT:      -6.8      3.383      5.085
REMARK SMILES O=C(O)CCc1ccccc1
REMARK SMILES IDX 4 1 2 2 1 3 3 4 5 6 6 7 7 8 11 9 8 10 10 11 9 12
REMARK H PARENT 3 5
REMARK Flexibility Score: inf
ROOT
ATOM      1  C   UNL     1       4.989   1.815   0.717  1.00  0.00     0.127 C 
ENDROOT
BRANCH   1   2
ATOM      2  C   UNL     1       4.476   1.117   1.919  1.00  0.00     0.303 C 
ATOM      3  O   UNL     1       5.136   0.204   2.473  1.00  0.00    -0.252 OA
BRANCH   2   4
ATOM      4  O   UNL     1       3.249   1.455   2.466  1.00  0.00    -0.481 OA
ATOM      5  H   UNL     1       2.551   1.922   1.881  1.00  0.00     0.296 HD
ENDBRANCH   2   4
ENDBRANCH   1   2
BRANCH   1   6
ATOM      6  C   UNL     1       6.487   1.793   0.763  1.00  0.00     0.047 C 
BRANCH   6   7
ATOM      7  C   UNL     1       7.104   1.046  -0.332  1.00  0.00    -0.047 A 
ATOM      8  C   UNL     1       6.367   0.160  -1.082  1.00  0.00     0.004 A 
ATOM      9  C   UNL     1       8.438   1.239  -0.608  1.00  0.00     0.004 A 
ATOM     10  C   UNL     1       7.021  -0.518  -2.113  1.00  0.00     0.000 A 
ATOM     11  C   UNL     1       9.084   0.568  -1.627  1.00  0.00     0.000 A 
ATOM     12  C   UNL     1       8.352  -0.322  -2.384  1.00  0.00     0.000 A 
ENDBRANCH   6   7
ENDBRANCH   1   6
TORSDOF 4
ENDMDL
MODEL 5
REMARK VINA RESULT:      -6.6      1.915      2.300
REMARK SMILES O=C(O)CCc1ccccc1
REMARK SMILES IDX 4 1 2 2 1 3 3 4 5 6 6 7 7 8 11 9 8 10 10 11 9 12
REMARK H PARENT 3 5
REMARK Flexibility Score: inf
ROOT
ATOM      1  C   UNL     1       8.251   0.251  -2.254  1.00  0.00     0.127 C 
ENDROOT
BRANCH   1   2
ATOM      2  C   UNL     1       9.353   0.336  -1.266  1.00  0.00     0.303 C 
ATOM      3  O   UNL     1       9.406  -0.443  -0.283  1.00  0.00    -0.252 OA
BRANCH   2   4
ATOM      4  O   UNL     1      10.358   1.280  -1.403  1.00  0.00    -0.481 OA
ATOM      5  H   UNL     1      11.031   1.408  -0.642  1.00  0.00     0.296 HD
ENDBRANCH   2   4
ENDBRANCH   1   2
BRANCH   1   6
ATOM      6  C   UNL     1       7.104  -0.473  -1.618  1.00  0.00     0.047 C 
BRANCH   6   7
ATOM      7  C   UNL     1       6.331   0.342  -0.682  1.00  0.00    -0.047 A 
ATOM      8  C   UNL     1       5.833   1.567  -1.061  1.00  0.00     0.004 A 
ATOM      9  C   UNL     1       6.104  -0.130   0.590  1.00  0.00     0.004 A 
ATOM     10  C   UNL     1       5.103   2.291  -0.116  1.00  0.00     0.000 A 
ATOM     11  C   UNL     1       5.382   0.587   1.524  1.00  0.00     0.000 A 
ATOM     12  C   UNL     1       4.880   1.815   1.152  1.00  0.00     0.000 A 
ENDBRANCH   6   7
ENDBRANCH   1   6
TORSDOF 4
ENDMDL
