@<TRIPOS>MOLECULE
/home/cewinharhar/GITHUB/reincatalyze/data/processed/docking_pred/2023-Apr-26-1657_maxeplen10_maxtrainstep1000_exh32_gamma099_lrac9e-4_lrcr1e-3/6ceeb54199aca0c96a32aff90fdf9e1d9b8e1f8c_ligand_2.pdbqt
 12 12 0 0 0
SMALL
GASTEIGER

@<TRIPOS>ATOM
      1  C          8.0800   -0.8570   -1.9710 C.3     1  UNL1        0.1270
      2  C          8.3250   -1.9880   -2.8970 C.2     1  UNL1        0.3030
      3  O          9.4840   -2.4300   -3.0910 O.2     1  UNL1       -0.2520
      4  O          7.2780   -2.5890   -3.5760 O.3     1  UNL1       -0.4810
      5  H          6.7710   -2.0570   -4.2890 H       1  UNL1        0.2960
      6  C          7.1860   -1.3370   -0.8680 C.3     1  UNL1        0.0470
      7  C          6.4380   -0.2710   -0.2020 C.2     1  UNL1       -0.0470
      8  C          6.0530   -0.3980    1.1120 C.2     1  UNL1        0.0040
      9  C          6.1240    0.8680   -0.9060 C.2     1  UNL1        0.0040
     10  C          5.3420    0.6600    1.6840 C.2     1  UNL1        0.0000
     11  C          5.4210    1.9130   -0.3390 C.2     1  UNL1        0.0000
     12  C          5.0310    1.7940    0.9780 C.2     1  UNL1        0.0000
@<TRIPOS>BOND
     1     5     4    1
     2     4     2    1
     3     3     2    2
     4     2     1    1
     5     1     6    1
     6     9    11    1
     7     9     7    2
     8     6     7    1
     9    11    12    2
    10     7     8    1
    11    12    10    1
    12     8    10    2
