@<TRIPOS>MOLECULE
/home/cewinharhar/GITHUB/reincatalyze/data/processed/docking_pred/2023-Apr-26-1657_maxeplen10_maxtrainstep1000_exh32_gamma099_lrac9e-4_lrcr1e-3/6d158fe290fd5017d73aec191e5eef2bb245b649_ligand_2.pdbqt
 12 12 0 0 0
SMALL
GASTEIGER

@<TRIPOS>ATOM
      1  C          8.2020    0.2370   -2.1520 C.3     1  UNL1        0.1270
      2  C          9.3480    0.3480   -1.2200 C.2     1  UNL1        0.3030
      3  O          9.4500   -0.4060   -0.2200 O.2     1  UNL1       -0.2520
      4  O         10.3420    1.2910   -1.4260 O.3     1  UNL1       -0.4810
      5  H         11.1380    1.0570   -2.0270 H       1  UNL1        0.2960
      6  C          7.1280   -0.5670   -1.4830 C.3     1  UNL1        0.0470
      7  C          6.3540    0.1810   -0.4940 C.2     1  UNL1       -0.0470
      8  C          6.1380   -0.3320    0.7640 C.2     1  UNL1        0.0040
      9  C          5.8420    1.4120   -0.8330 C.2     1  UNL1        0.0040
     10  C          5.3900    0.4370    1.6580 C.2     1  UNL1        0.0000
     11  C          5.1040    2.1710    0.0530 C.2     1  UNL1        0.0000
     12  C          4.8810    1.6640    1.3140 C.2     1  UNL1        0.0000
@<TRIPOS>BOND
     1     1     6    1
     2     1     2    1
     3     5     4    1
     4     6     7    1
     5     4     2    1
     6     2     3    2
     7     9     7    2
     8     9    11    1
     9     7     8    1
    10    11    12    2
    11     8    10    2
    12    12    10    1
