MODEL 1
REMARK VINA RESULT:      -7.2      0.000      0.000
REMARK SMILES O=C(O)CCc1ccccc1
REMARK SMILES IDX 4 1 2 2 1 3 3 4 5 6 6 7 7 8 11 9 8 10 10 11 9 12
REMARK H PARENT 3 5
REMARK Flexibility Score: inf
ROOT
ATOM      1  C   UNL     1       8.408  -0.611  -2.140  1.00  0.00     0.127 C 
ENDROOT
BRANCH   1   2
ATOM      2  C   UNL     1       8.376  -1.886  -2.894  1.00  0.00     0.303 C 
ATOM      3  O   UNL     1       7.289  -2.408  -3.246  1.00  0.00    -0.252 OA
BRANCH   2   4
ATOM      4  O   UNL     1       9.550  -2.539  -3.234  1.00  0.00    -0.481 OA
ATOM      5  H   UNL     1       9.593  -3.072  -4.107  1.00  0.00     0.296 HD
ENDBRANCH   2   4
ENDBRANCH   1   2
BRANCH   1   6
ATOM      6  C   UNL     1       7.018  -0.053  -2.101  1.00  0.00     0.047 C 
BRANCH   6   7
ATOM      7  C   UNL     1       6.469   0.084  -0.753  1.00  0.00    -0.047 A 
ATOM      8  C   UNL     1       6.599  -0.931   0.165  1.00  0.00     0.004 A 
ATOM      9  C   UNL     1       5.818   1.246  -0.408  1.00  0.00     0.004 A 
ATOM     10  C   UNL     1       6.051  -0.731   1.435  1.00  0.00     0.000 A 
ATOM     11  C   UNL     1       5.277   1.442   0.847  1.00  0.00     0.000 A 
ATOM     12  C   UNL     1       5.402   0.429   1.773  1.00  0.00     0.000 A 
ENDBRANCH   6   7
ENDBRANCH   1   6
TORSDOF 4
ENDMDL
MODEL 2
REMARK VINA RESULT:      -7.2      0.073      1.438
REMARK SMILES O=C(O)CCc1ccccc1
REMARK SMILES IDX 4 1 2 2 1 3 3 4 5 6 6 7 7 8 11 9 8 10 10 11 9 12
REMARK H PARENT 3 5
REMARK Flexibility Score: inf
ROOT
ATOM      1  C   UNL     1       8.407  -0.635  -2.107  1.00  0.00     0.127 C 
ENDROOT
BRANCH   1   2
ATOM      2  C   UNL     1       8.365  -1.893  -2.889  1.00  0.00     0.303 C 
ATOM      3  O   UNL     1       7.274  -2.399  -3.251  1.00  0.00    -0.252 OA
BRANCH   2   4
ATOM      4  O   UNL     1       9.534  -2.548  -3.244  1.00  0.00    -0.481 OA
ATOM      5  H   UNL     1       9.653  -2.876  -4.206  1.00  0.00     0.296 HD
ENDBRANCH   2   4
ENDBRANCH   1   2
BRANCH   1   6
ATOM      6  C   UNL     1       7.029  -0.048  -2.087  1.00  0.00     0.047 C 
BRANCH   6   7
ATOM      7  C   UNL     1       6.466   0.102  -0.746  1.00  0.00    -0.047 A 
ATOM      8  C   UNL     1       5.817   1.259  -0.381  1.00  0.00     0.004 A 
ATOM      9  C   UNL     1       6.590  -0.931   0.153  1.00  0.00     0.004 A 
ATOM     10  C   UNL     1       5.303   1.332   0.916  1.00  0.00     0.000 A 
ATOM     11  C   UNL     1       6.082  -0.857   1.435  1.00  0.00     0.000 A 
ATOM     12  C   UNL     1       5.431   0.298   1.809  1.00  0.00     0.000 A 
ENDBRANCH   6   7
ENDBRANCH   1   6
TORSDOF 4
ENDMDL
MODEL 3
REMARK VINA RESULT:      -7.2      0.598      1.426
REMARK SMILES O=C(O)CCc1ccccc1
REMARK SMILES IDX 4 1 2 2 1 3 3 4 5 6 6 7 7 8 11 9 8 10 10 11 9 12
REMARK H PARENT 3 5
REMARK Flexibility Score: inf
ROOT
ATOM      1  C   UNL     1       8.182  -0.869  -1.955  1.00  0.00     0.127 C 
ENDROOT
BRANCH   1   2
ATOM      2  C   UNL     1       8.347  -2.036  -2.853  1.00  0.00     0.303 C 
ATOM      3  O   UNL     1       9.464  -2.590  -3.002  1.00  0.00    -0.252 OA
BRANCH   2   4
ATOM      4  O   UNL     1       7.268  -2.550  -3.555  1.00  0.00    -0.481 OA
ATOM      5  H   UNL     1       7.363  -3.453  -4.028  1.00  0.00     0.296 HD
ENDBRANCH   2   4
ENDBRANCH   1   2
BRANCH   1   6
ATOM      6  C   UNL     1       7.535  -1.338  -0.687  1.00  0.00     0.047 C 
BRANCH   6   7
ATOM      7  C   UNL     1       6.646  -0.353  -0.074  1.00  0.00    -0.047 A 
ATOM      8  C   UNL     1       6.191  -0.521   1.213  1.00  0.00     0.004 A 
ATOM      9  C   UNL     1       6.268   0.753  -0.799  1.00  0.00     0.004 A 
ATOM     10  C   UNL     1       5.346   0.460   1.736  1.00  0.00     0.000 A 
ATOM     11  C   UNL     1       5.432   1.723  -0.281  1.00  0.00     0.000 A 
ATOM     12  C   UNL     1       4.971   1.561   1.007  1.00  0.00     0.000 A 
ENDBRANCH   6   7
ENDBRANCH   1   6
TORSDOF 4
ENDMDL
MODEL 4
REMARK VINA RESULT:      -6.7      3.307      5.132
REMARK SMILES O=C(O)CCc1ccccc1
REMARK SMILES IDX 4 1 2 2 1 3 3 4 5 6 6 7 7 8 11 9 8 10 10 11 9 12
REMARK H PARENT 3 5
REMARK Flexibility Score: inf
ROOT
ATOM      1  C   UNL     1       4.981   1.807   0.667  1.00  0.00     0.127 C 
ENDROOT
BRANCH   1   2
ATOM      2  C   UNL     1       4.492   1.135   1.895  1.00  0.00     0.303 C 
ATOM      3  O   UNL     1       5.174   0.250   2.468  1.00  0.00    -0.252 OA
BRANCH   2   4
ATOM      4  O   UNL     1       3.264   1.468   2.444  1.00  0.00    -0.481 OA
ATOM      5  H   UNL     1       3.101   2.427   2.763  1.00  0.00     0.296 HD
ENDBRANCH   2   4
ENDBRANCH   1   2
BRANCH   1   6
ATOM      6  C   UNL     1       6.479   1.822   0.705  1.00  0.00     0.047 C 
BRANCH   6   7
ATOM      7  C   UNL     1       7.109   1.053  -0.367  1.00  0.00    -0.047 A 
ATOM      8  C   UNL     1       6.373   0.173  -1.126  1.00  0.00     0.004 A 
ATOM      9  C   UNL     1       8.452   1.220  -0.614  1.00  0.00     0.004 A 
ATOM     10  C   UNL     1       7.040  -0.528  -2.134  1.00  0.00     0.000 A 
ATOM     11  C   UNL     1       9.109   0.527  -1.610  1.00  0.00     0.000 A 
ATOM     12  C   UNL     1       8.380  -0.358  -2.375  1.00  0.00     0.000 A 
ENDBRANCH   6   7
ENDBRANCH   1   6
TORSDOF 4
ENDMDL
MODEL 5
REMARK VINA RESULT:      -6.6      1.913      2.192
REMARK SMILES O=C(O)CCc1ccccc1
REMARK SMILES IDX 4 1 2 2 1 3 3 4 5 6 6 7 7 8 11 9 8 10 10 11 9 12
REMARK H PARENT 3 5
REMARK Flexibility Score: inf
ROOT
ATOM      1  C   UNL     1       8.202   0.237  -2.152  1.00  0.00     0.127 C 
ENDROOT
BRANCH   1   2
ATOM      2  C   UNL     1       9.348   0.348  -1.220  1.00  0.00     0.303 C 
ATOM      3  O   UNL     1       9.450  -0.406  -0.220  1.00  0.00    -0.252 OA
BRANCH   2   4
ATOM      4  O   UNL     1      10.342   1.291  -1.426  1.00  0.00    -0.481 OA
ATOM      5  H   UNL     1      11.138   1.057  -2.027  1.00  0.00     0.296 HD
ENDBRANCH   2   4
ENDBRANCH   1   2
BRANCH   1   6
ATOM      6  C   UNL     1       7.128  -0.567  -1.483  1.00  0.00     0.047 C 
BRANCH   6   7
ATOM      7  C   UNL     1       6.354   0.181  -0.494  1.00  0.00    -0.047 A 
ATOM      8  C   UNL     1       6.138  -0.332   0.764  1.00  0.00     0.004 A 
ATOM      9  C   UNL     1       5.842   1.412  -0.833  1.00  0.00     0.004 A 
ATOM     10  C   UNL     1       5.390   0.437   1.658  1.00  0.00     0.000 A 
ATOM     11  C   UNL     1       5.104   2.171   0.053  1.00  0.00     0.000 A 
ATOM     12  C   UNL     1       4.881   1.664   1.314  1.00  0.00     0.000 A 
ENDBRANCH   6   7
ENDBRANCH   1   6
TORSDOF 4
ENDMDL
