@<TRIPOS>MOLECULE
/home/cewinharhar/GITHUB/reincatalyze/data/processed/docking_pred/2023-Apr-26-1657_maxeplen10_maxtrainstep1000_exh32_gamma099_lrac9e-4_lrcr1e-3/6d158fe290fd5017d73aec191e5eef2bb245b649_ligand_2.pdbqt
 12 12 0 0 0
SMALL
GASTEIGER

@<TRIPOS>ATOM
      1  C          8.4070   -0.6350   -2.1070 C.3     1  UNL1        0.1270
      2  C          8.3650   -1.8930   -2.8890 C.2     1  UNL1        0.3030
      3  O          7.2740   -2.3990   -3.2510 O.2     1  UNL1       -0.2520
      4  O          9.5340   -2.5480   -3.2440 O.3     1  UNL1       -0.4810
      5  H          9.6530   -2.8760   -4.2060 H       1  UNL1        0.2960
      6  C          7.0290   -0.0480   -2.0870 C.3     1  UNL1        0.0470
      7  C          6.4660    0.1020   -0.7460 C.2     1  UNL1       -0.0470
      8  C          5.8170    1.2590   -0.3810 C.2     1  UNL1        0.0040
      9  C          6.5900   -0.9310    0.1530 C.2     1  UNL1        0.0040
     10  C          5.3030    1.3320    0.9160 C.2     1  UNL1        0.0000
     11  C          6.0820   -0.8570    1.4350 C.2     1  UNL1        0.0000
     12  C          5.4310    0.2980    1.8090 C.2     1  UNL1        0.0000
@<TRIPOS>BOND
     1     5     4    1
     2     3     2    2
     3     4     2    1
     4     2     1    1
     5     1     6    1
     6     6     7    1
     7     7     8    2
     8     7     9    1
     9     8    10    1
    10     9    11    2
    11    10    12    2
    12    11    12    1
