@<TRIPOS>MOLECULE
/home/cewinharhar/GITHUB/reincatalyze/data/processed/docking_pred/2023-Apr-26-1657_maxeplen10_maxtrainstep1000_exh32_gamma099_lrac9e-4_lrcr1e-3/6d158fe290fd5017d73aec191e5eef2bb245b649_ligand_2.pdbqt
 12 12 0 0 0
SMALL
GASTEIGER

@<TRIPOS>ATOM
      1  C          8.1820   -0.8690   -1.9550 C.3     1  UNL1        0.1270
      2  C          8.3470   -2.0360   -2.8530 C.2     1  UNL1        0.3030
      3  O          9.4640   -2.5900   -3.0020 O.2     1  UNL1       -0.2520
      4  O          7.2680   -2.5500   -3.5550 O.3     1  UNL1       -0.4810
      5  H          7.3630   -3.4530   -4.0280 H       1  UNL1        0.2960
      6  C          7.5350   -1.3380   -0.6870 C.3     1  UNL1        0.0470
      7  C          6.6460   -0.3530   -0.0740 C.2     1  UNL1       -0.0470
      8  C          6.1910   -0.5210    1.2130 C.2     1  UNL1        0.0040
      9  C          6.2680    0.7530   -0.7990 C.2     1  UNL1        0.0040
     10  C          5.3460    0.4600    1.7360 C.2     1  UNL1        0.0000
     11  C          5.4320    1.7230   -0.2810 C.2     1  UNL1        0.0000
     12  C          4.9710    1.5610    1.0070 C.2     1  UNL1        0.0000
@<TRIPOS>BOND
     1     5     4    1
     2     4     2    1
     3     3     2    2
     4     2     1    1
     5     1     6    1
     6     9    11    1
     7     9     7    2
     8     6     7    1
     9    11    12    2
    10     7     8    1
    11    12    10    1
    12     8    10    2
