@<TRIPOS>MOLECULE
/home/cewinharhar/GITHUB/reincatalyze/data/processed/docking_pred/2023-Apr-26-1657_maxeplen10_maxtrainstep1000_exh32_gamma099_lrac9e-4_lrcr1e-3/6d158fe290fd5017d73aec191e5eef2bb245b649_ligand_2.pdbqt
 12 12 0 0 0
SMALL
GASTEIGER

@<TRIPOS>ATOM
      1  C          8.4080   -0.6110   -2.1400 C.3     1  UNL1        0.1270
      2  C          8.3760   -1.8860   -2.8940 C.2     1  UNL1        0.3030
      3  O          7.2890   -2.4080   -3.2460 O.2     1  UNL1       -0.2520
      4  O          9.5500   -2.5390   -3.2340 O.3     1  UNL1       -0.4810
      5  H          9.5930   -3.0720   -4.1070 H       1  UNL1        0.2960
      6  C          7.0180   -0.0530   -2.1010 C.3     1  UNL1        0.0470
      7  C          6.4690    0.0840   -0.7530 C.2     1  UNL1       -0.0470
      8  C          6.5990   -0.9310    0.1650 C.2     1  UNL1        0.0040
      9  C          5.8180    1.2460   -0.4080 C.2     1  UNL1        0.0040
     10  C          6.0510   -0.7310    1.4350 C.2     1  UNL1        0.0000
     11  C          5.2770    1.4420    0.8470 C.2     1  UNL1        0.0000
     12  C          5.4020    0.4290    1.7730 C.2     1  UNL1        0.0000
@<TRIPOS>BOND
     1     5     4    1
     2     3     2    2
     3     4     2    1
     4     2     1    1
     5     1     6    1
     6     6     7    1
     7     7     9    2
     8     7     8    1
     9     9    11    1
    10     8    10    2
    11    11    12    2
    12    10    12    1
