@<TRIPOS>MOLECULE
/home/cewinharhar/GITHUB/reincatalyze/data/processed/docking_pred/2023-Apr-26-1657_maxeplen10_maxtrainstep1000_exh32_gamma099_lrac9e-4_lrcr1e-3/6dc168e099aae66a1c19408847f7f9495b2b5216_ligand_2.pdbqt
 12 12 0 0 0
SMALL
GASTEIGER

@<TRIPOS>ATOM
      1  C          5.0090    1.7590    0.7080 C.3     1  UNL1        0.1270
      2  C          4.4810    1.0900    1.9210 C.2     1  UNL1        0.3030
      3  O          5.1270    0.1780    2.4940 O.2     1  UNL1       -0.2520
      4  O          3.2570    1.4550    2.4570 O.3     1  UNL1       -0.4810
      5  H          3.2320    1.9810    3.3360 H       1  UNL1        0.2960
      6  C          6.5050    1.7220    0.7640 C.3     1  UNL1        0.0470
      7  C          7.1230    0.9790   -0.3330 C.2     1  UNL1       -0.0470
      8  C          6.4020    0.0520   -1.0490 C.2     1  UNL1        0.0040
      9  C          8.4410    1.2180   -0.6480 C.2     1  UNL1        0.0040
     10  C          7.0560   -0.6200   -2.0840 C.2     1  UNL1        0.0000
     11  C          9.0860    0.5530   -1.6710 C.2     1  UNL1        0.0000
     12  C          8.3710   -0.3780   -2.3920 C.2     1  UNL1        0.0000
@<TRIPOS>BOND
     1    12    10    2
     2    12    11    1
     3    10     8    1
     4    11     9    2
     5     8     7    2
     6     9     7    1
     7     7     6    1
     8     1     6    1
     9     1     2    1
    10     2     4    1
    11     2     3    2
    12     4     5    1
