@<TRIPOS>MOLECULE
/home/cewinharhar/GITHUB/reincatalyze/data/processed/docking_pred/2023-Apr-26-1657_maxeplen10_maxtrainstep1000_exh32_gamma099_lrac9e-4_lrcr1e-3/6dc168e099aae66a1c19408847f7f9495b2b5216_ligand_2.pdbqt
 12 12 0 0 0
SMALL
GASTEIGER

@<TRIPOS>ATOM
      1  C          8.4160   -0.6400   -2.1030 C.3     1  UNL1        0.1270
      2  C          8.3730   -1.8990   -2.8850 C.2     1  UNL1        0.3030
      3  O          7.2820   -2.4010   -3.2500 O.2     1  UNL1       -0.2520
      4  O          9.5410   -2.5570   -3.2340 O.3     1  UNL1       -0.4810
      5  H          9.4980   -3.3380   -3.8950 H       1  UNL1        0.2960
      6  C          7.0380   -0.0520   -2.0840 C.3     1  UNL1        0.0470
      7  C          6.4730    0.0940   -0.7430 C.2     1  UNL1       -0.0470
      8  C          6.6100   -0.9060    0.1910 C.2     1  UNL1        0.0040
      9  C          5.7990    1.2490   -0.4210 C.2     1  UNL1        0.0040
     10  C          6.0460   -0.6990    1.4510 C.2     1  UNL1        0.0000
     11  C          5.2410    1.4530    0.8260 C.2     1  UNL1        0.0000
     12  C          5.3740    0.4550    1.7670 C.2     1  UNL1        0.0000
@<TRIPOS>BOND
     1     5     4    1
     2     3     2    2
     3     4     2    1
     4     2     1    1
     5     1     6    1
     6     6     7    1
     7     7     9    2
     8     7     8    1
     9     9    11    1
    10     8    10    2
    11    11    12    2
    12    10    12    1
