@<TRIPOS>MOLECULE
/home/cewinharhar/GITHUB/reincatalyze/data/processed/docking_pred/2023-Apr-26-1657_maxeplen10_maxtrainstep1000_exh32_gamma099_lrac9e-4_lrcr1e-3/6dc168e099aae66a1c19408847f7f9495b2b5216_ligand_2.pdbqt
 12 12 0 0 0
SMALL
GASTEIGER

@<TRIPOS>ATOM
      1  C          5.4600    2.8890    0.0180 C.3     1  UNL1        0.1270
      2  C          6.2490    3.8580    0.8150 C.2     1  UNL1        0.3030
      3  O          6.9050    4.7750    0.2620 O.2     1  UNL1       -0.2520
      4  O          6.2850    3.7770    2.1980 O.3     1  UNL1       -0.4810
      5  H          5.8620    2.9690    2.6640 H       1  UNL1        0.2960
      6  C          4.9360    1.8340    0.9440 C.3     1  UNL1        0.0470
      7  C          5.7250    0.6040    0.9510 C.2     1  UNL1       -0.0470
      8  C          5.8190   -0.1660    2.0870 C.2     1  UNL1        0.0040
      9  C          6.3770    0.2170   -0.1980 C.2     1  UNL1        0.0040
     10  C          6.5890   -1.3290    2.0210 C.2     1  UNL1        0.0000
     11  C          7.1380   -0.9330   -0.2620 C.2     1  UNL1        0.0000
     12  C          7.2380   -1.7090    0.8730 C.2     1  UNL1        0.0000
@<TRIPOS>BOND
     1    11     9    1
     2    11    12    2
     3     9     7    2
     4     1     2    1
     5     1     6    1
     6     3     2    2
     7     2     4    1
     8    12    10    1
     9     6     7    1
    10     7     8    1
    11    10     8    2
    12     4     5    1
