@<TRIPOS>MOLECULE
/home/cewinharhar/GITHUB/reincatalyze/data/processed/docking_pred/2023-Apr-26-1657_maxeplen10_maxtrainstep1000_exh32_gamma099_lrac9e-4_lrcr1e-3/6dc168e099aae66a1c19408847f7f9495b2b5216_ligand_2.pdbqt
 12 12 0 0 0
SMALL
GASTEIGER

@<TRIPOS>ATOM
      1  C          8.4320   -0.6050   -2.1710 C.3     1  UNL1        0.1270
      2  C          8.4780   -1.8880   -2.9110 C.2     1  UNL1        0.3030
      3  O          9.5630   -2.4910   -3.1020 O.2     1  UNL1       -0.2520
      4  O          7.3200   -2.4600   -3.4140 O.3     1  UNL1       -0.4810
      5  H          7.3170   -3.4540   -3.6570 H       1  UNL1        0.2960
      6  C          7.0110   -0.1300   -2.1420 C.3     1  UNL1        0.0470
      7  C          6.4750    0.0560   -0.7950 C.2     1  UNL1       -0.0470
      8  C          5.8500    1.2300   -0.4430 C.2     1  UNL1        0.0040
      9  C          6.5980   -0.9600    0.1230 C.2     1  UNL1        0.0040
     10  C          5.3600    1.3380    0.8610 C.2     1  UNL1        0.0000
     11  C          6.1140   -0.8520    1.4120 C.2     1  UNL1        0.0000
     12  C          5.4880    0.3210    1.7730 C.2     1  UNL1        0.0000
@<TRIPOS>BOND
     1     5     4    1
     2     4     2    1
     3     3     2    2
     4     2     1    1
     5     1     6    1
     6     6     7    1
     7     7     8    2
     8     7     9    1
     9     8    10    1
    10     9    11    2
    11    10    12    2
    12    11    12    1
