@<TRIPOS>MOLECULE
/home/cewinharhar/GITHUB/reincatalyze/data/processed/docking_pred/2023-Apr-26-1657_maxeplen10_maxtrainstep1000_exh32_gamma099_lrac9e-4_lrcr1e-3/6dc168e099aae66a1c19408847f7f9495b2b5216_ligand_2.pdbqt
 12 12 0 0 0
SMALL
GASTEIGER

@<TRIPOS>ATOM
      1  C          8.2100   -0.8600   -1.9460 C.3     1  UNL1        0.1270
      2  C          8.3820   -2.0150   -2.8580 C.2     1  UNL1        0.3030
      3  O          9.5100   -2.5340   -3.0460 O.2     1  UNL1       -0.2520
      4  O          7.2980   -2.5560   -3.5310 O.3     1  UNL1       -0.4810
      5  H          6.3570   -2.4320   -3.1460 H       1  UNL1        0.2960
      6  C          7.4980   -1.3340   -0.7150 C.3     1  UNL1        0.0470
      7  C          6.6280   -0.3280   -0.1080 C.2     1  UNL1       -0.0470
      8  C          6.1640   -0.4840    1.1780 C.2     1  UNL1        0.0040
      9  C          6.2760    0.7840   -0.8370 C.2     1  UNL1        0.0040
     10  C          5.3370    0.5160    1.6950 C.2     1  UNL1        0.0000
     11  C          5.4590    1.7720   -0.3250 C.2     1  UNL1        0.0000
     12  C          4.9890    1.6230    0.9620 C.2     1  UNL1        0.0000
@<TRIPOS>BOND
     1     4     5    1
     2     4     2    1
     3     3     2    2
     4     2     1    1
     5     1     6    1
     6     9    11    1
     7     9     7    2
     8     6     7    1
     9    11    12    2
    10     7     8    1
    11    12    10    1
    12     8    10    2
