@<TRIPOS>MOLECULE
/home/cewinharhar/GITHUB/reincatalyze/data/processed/docking_pred/2023-Apr-26-1657_maxeplen10_maxtrainstep1000_exh32_gamma099_lrac9e-4_lrcr1e-3/6e01533e6265e20f53eb8495178921d7241890ed_ligand_2.pdbqt
 12 12 0 0 0
SMALL
GASTEIGER

@<TRIPOS>ATOM
      1  C          8.2160   -1.5590    1.1320 C.3     1  UNL1        0.1270
      2  C          8.5060   -2.7820    0.3460 C.2     1  UNL1        0.3030
      3  O          9.1400   -3.7430    0.8470 O.2     1  UNL1       -0.2520
      4  O          8.0820   -2.8980   -0.9680 O.3     1  UNL1       -0.4810
      5  H          7.0790   -2.9450   -1.1690 H       1  UNL1        0.2960
      6  C          6.7320   -1.4480    1.2990 C.3     1  UNL1        0.0470
      7  C          6.1700   -0.1920    0.8040 C.2     1  UNL1       -0.0470
      8  C          5.3950    0.6010    1.6170 C.2     1  UNL1        0.0040
      9  C          6.4270    0.1930   -0.4920 C.2     1  UNL1        0.0040
     10  C          4.8930    1.7880    1.0780 C.2     1  UNL1        0.0000
     11  C          5.9290    1.3650   -1.0240 C.2     1  UNL1        0.0000
     12  C          5.1510    2.1660   -0.2160 C.2     1  UNL1        0.0000
@<TRIPOS>BOND
     1     5     4    1
     2    11     9    1
     3    11    12    2
     4     4     2    1
     5     9     7    2
     6    12    10    1
     7     2     3    2
     8     2     1    1
     9     7     6    1
    10     7     8    1
    11    10     8    2
    12     1     6    1
