@<TRIPOS>MOLECULE
/home/cewinharhar/GITHUB/reincatalyze/data/processed/docking_pred/2023-Apr-26-1657_maxeplen10_maxtrainstep1000_exh32_gamma099_lrac9e-4_lrcr1e-3/6e01533e6265e20f53eb8495178921d7241890ed_ligand_2.pdbqt
 12 12 0 0 0
SMALL
GASTEIGER

@<TRIPOS>ATOM
      1  C          5.0050    1.7790    0.6740 C.3     1  UNL1        0.1270
      2  C          4.4970    1.1140    1.8970 C.2     1  UNL1        0.3030
      3  O          5.1610    0.2180    2.4740 O.2     1  UNL1       -0.2520
      4  O          3.2710    1.4640    2.4380 O.3     1  UNL1       -0.4810
      5  H          3.1220    2.4240    2.7630 H       1  UNL1        0.2960
      6  C          6.5020    1.7930    0.7330 C.3     1  UNL1        0.0470
      7  C          7.1470    1.0470   -0.3460 C.2     1  UNL1       -0.0470
      8  C          8.4760    1.2440   -0.6400 C.2     1  UNL1        0.0040
      9  C          6.4090    0.1380   -1.0680 C.2     1  UNL1        0.0040
     10  C          9.0270    0.4960   -1.6830 C.2     1  UNL1        0.0000
     11  C          6.9540   -0.6010   -2.0990 C.2     1  UNL1        0.0000
     12  C          8.2850   -0.4090   -2.4010 C.2     1  UNL1        0.0000
@<TRIPOS>BOND
     1    12    11    2
     2    12    10    1
     3    11     9    1
     4    10     8    2
     5     9     7    2
     6     8     7    1
     7     7     6    1
     8     1     6    1
     9     1     2    1
    10     2     4    1
    11     2     3    2
    12     4     5    1
