@<TRIPOS>MOLECULE
/home/cewinharhar/GITHUB/reincatalyze/data/processed/docking_pred/2023-Apr-26-1657_maxeplen10_maxtrainstep1000_exh32_gamma099_lrac9e-4_lrcr1e-3/6e01533e6265e20f53eb8495178921d7241890ed_ligand_2.pdbqt
 12 12 0 0 0
SMALL
GASTEIGER

@<TRIPOS>ATOM
      1  C          8.4300   -0.5680   -2.2240 C.3     1  UNL1        0.1270
      2  C          8.4770   -1.8680   -2.9330 C.2     1  UNL1        0.3030
      3  O          9.5610   -2.4820   -3.0960 O.2     1  UNL1       -0.2520
      4  O          7.3220   -2.4450   -3.4360 O.3     1  UNL1       -0.4810
      5  H          7.1810   -2.4830   -4.4490 H       1  UNL1        0.2960
      6  C          7.0020   -0.1190   -2.1580 C.3     1  UNL1        0.0470
      7  C          6.4860    0.0220   -0.7970 C.2     1  UNL1       -0.0470
      8  C          6.6120   -1.0020    0.1130 C.2     1  UNL1        0.0040
      9  C          5.8710    1.1970   -0.4310 C.2     1  UNL1        0.0040
     10  C          6.0960   -0.7970    1.3950 C.2     1  UNL1        0.0000
     11  C          5.3620    1.3970    0.8370 C.2     1  UNL1        0.0000
     12  C          5.4830    0.3760    1.7540 C.2     1  UNL1        0.0000
@<TRIPOS>BOND
     1     5     4    1
     2     4     2    1
     3     3     2    2
     4     2     1    1
     5     1     6    1
     6     6     7    1
     7     7     9    2
     8     7     8    1
     9     9    11    1
    10     8    10    2
    11    11    12    2
    12    10    12    1
