@<TRIPOS>MOLECULE
/home/cewinharhar/GITHUB/reincatalyze/data/processed/docking_pred/2023-Apr-26-1657_maxeplen10_maxtrainstep1000_exh32_gamma099_lrac9e-4_lrcr1e-3/6e01533e6265e20f53eb8495178921d7241890ed_ligand_2.pdbqt
 12 12 0 0 0
SMALL
GASTEIGER

@<TRIPOS>ATOM
      1  C          8.2270    0.2180   -2.1690 C.3     1  UNL1        0.1270
      2  C          9.3700    0.3480   -1.2350 C.2     1  UNL1        0.3030
      3  O          9.4720   -0.3900   -0.2240 O.2     1  UNL1       -0.2520
      4  O         10.3620    1.2900   -1.4530 O.3     1  UNL1       -0.4810
      5  H         10.4580    2.0760   -0.8040 H       1  UNL1        0.2960
      6  C          7.1450   -0.5590   -1.4830 C.3     1  UNL1        0.0470
      7  C          6.3550    0.2290   -0.5390 C.2     1  UNL1       -0.0470
      8  C          6.1260   -0.2260    0.7390 C.2     1  UNL1        0.0040
      9  C          5.8390    1.4400   -0.9410 C.2     1  UNL1        0.0040
     10  C          5.3640    0.5800    1.5870 C.2     1  UNL1        0.0000
     11  C          5.0850    2.2350   -0.1010 C.2     1  UNL1        0.0000
     12  C          4.8510    1.7860    1.1810 C.2     1  UNL1        0.0000
@<TRIPOS>BOND
     1     1     6    1
     2     1     2    1
     3     6     7    1
     4     4     2    1
     5     4     5    1
     6     2     3    2
     7     9     7    2
     8     9    11    1
     9     7     8    1
    10    11    12    2
    11     8    10    2
    12    12    10    1
