MODEL 1
REMARK VINA RESULT:      -7.3      0.000      0.000
REMARK SMILES O=C(O)CCc1ccccc1
REMARK SMILES IDX 4 1 2 2 1 3 3 4 5 6 6 7 7 8 11 9 8 10 10 11 9 12
REMARK H PARENT 3 5
REMARK Flexibility Score: inf
ROOT
ATOM      1  C   UNL     1       8.430  -0.568  -2.224  1.00  0.00     0.127 C 
ENDROOT
BRANCH   1   2
ATOM      2  C   UNL     1       8.477  -1.868  -2.933  1.00  0.00     0.303 C 
ATOM      3  O   UNL     1       9.561  -2.482  -3.096  1.00  0.00    -0.252 OA
BRANCH   2   4
ATOM      4  O   UNL     1       7.322  -2.445  -3.436  1.00  0.00    -0.481 OA
ATOM      5  H   UNL     1       7.181  -2.483  -4.449  1.00  0.00     0.296 HD
ENDBRANCH   2   4
ENDBRANCH   1   2
BRANCH   1   6
ATOM      6  C   UNL     1       7.002  -0.119  -2.158  1.00  0.00     0.047 C 
BRANCH   6   7
ATOM      7  C   UNL     1       6.486   0.022  -0.797  1.00  0.00    -0.047 A 
ATOM      8  C   UNL     1       6.612  -1.002   0.113  1.00  0.00     0.004 A 
ATOM      9  C   UNL     1       5.871   1.197  -0.431  1.00  0.00     0.004 A 
ATOM     10  C   UNL     1       6.096  -0.797   1.395  1.00  0.00     0.000 A 
ATOM     11  C   UNL     1       5.362   1.397   0.837  1.00  0.00     0.000 A 
ATOM     12  C   UNL     1       5.483   0.376   1.754  1.00  0.00     0.000 A 
ENDBRANCH   6   7
ENDBRANCH   1   6
TORSDOF 4
ENDMDL
MODEL 2
REMARK VINA RESULT:      -7.3      0.124      1.732
REMARK SMILES O=C(O)CCc1ccccc1
REMARK SMILES IDX 4 1 2 2 1 3 3 4 5 6 6 7 7 8 11 9 8 10 10 11 9 12
REMARK H PARENT 3 5
REMARK Flexibility Score: inf
ROOT
ATOM      1  C   UNL     1       8.403  -0.638  -2.100  1.00  0.00     0.127 C 
ENDROOT
BRANCH   1   2
ATOM      2  C   UNL     1       8.370  -1.893  -2.887  1.00  0.00     0.303 C 
ATOM      3  O   UNL     1       7.282  -2.407  -3.248  1.00  0.00    -0.252 OA
BRANCH   2   4
ATOM      4  O   UNL     1       9.543  -2.537  -3.246  1.00  0.00    -0.481 OA
ATOM      5  H   UNL     1      10.225  -2.777  -2.521  1.00  0.00     0.296 HD
ENDBRANCH   2   4
ENDBRANCH   1   2
BRANCH   1   6
ATOM      6  C   UNL     1       7.022  -0.056  -2.083  1.00  0.00     0.047 C 
BRANCH   6   7
ATOM      7  C   UNL     1       6.459   0.100  -0.743  1.00  0.00    -0.047 A 
ATOM      8  C   UNL     1       5.809   1.258  -0.384  1.00  0.00     0.004 A 
ATOM      9  C   UNL     1       6.584  -0.929   0.161  1.00  0.00     0.004 A 
ATOM     10  C   UNL     1       5.295   1.337   0.912  1.00  0.00     0.000 A 
ATOM     11  C   UNL     1       6.076  -0.849   1.443  1.00  0.00     0.000 A 
ATOM     12  C   UNL     1       5.423   0.308   1.811  1.00  0.00     0.000 A 
ENDBRANCH   6   7
ENDBRANCH   1   6
TORSDOF 4
ENDMDL
MODEL 3
REMARK VINA RESULT:      -6.8      3.378      5.073
REMARK SMILES O=C(O)CCc1ccccc1
REMARK SMILES IDX 4 1 2 2 1 3 3 4 5 6 6 7 7 8 11 9 8 10 10 11 9 12
REMARK H PARENT 3 5
REMARK Flexibility Score: inf
ROOT
ATOM      1  C   UNL     1       5.005   1.779   0.674  1.00  0.00     0.127 C 
ENDROOT
BRANCH   1   2
ATOM      2  C   UNL     1       4.497   1.114   1.897  1.00  0.00     0.303 C 
ATOM      3  O   UNL     1       5.161   0.218   2.474  1.00  0.00    -0.252 OA
BRANCH   2   4
ATOM      4  O   UNL     1       3.271   1.464   2.438  1.00  0.00    -0.481 OA
ATOM      5  H   UNL     1       3.122   2.424   2.763  1.00  0.00     0.296 HD
ENDBRANCH   2   4
ENDBRANCH   1   2
BRANCH   1   6
ATOM      6  C   UNL     1       6.502   1.793   0.733  1.00  0.00     0.047 C 
BRANCH   6   7
ATOM      7  C   UNL     1       7.147   1.047  -0.346  1.00  0.00    -0.047 A 
ATOM      8  C   UNL     1       8.476   1.244  -0.640  1.00  0.00     0.004 A 
ATOM      9  C   UNL     1       6.409   0.138  -1.068  1.00  0.00     0.004 A 
ATOM     10  C   UNL     1       9.027   0.496  -1.683  1.00  0.00     0.000 A 
ATOM     11  C   UNL     1       6.954  -0.601  -2.099  1.00  0.00     0.000 A 
ATOM     12  C   UNL     1       8.285  -0.409  -2.401  1.00  0.00     0.000 A 
ENDBRANCH   6   7
ENDBRANCH   1   6
TORSDOF 4
ENDMDL
MODEL 4
REMARK VINA RESULT:      -6.7      1.935      2.300
REMARK SMILES O=C(O)CCc1ccccc1
REMARK SMILES IDX 4 1 2 2 1 3 3 4 5 6 6 7 7 8 11 9 8 10 10 11 9 12
REMARK H PARENT 3 5
REMARK Flexibility Score: inf
ROOT
ATOM      1  C   UNL     1       8.227   0.218  -2.169  1.00  0.00     0.127 C 
ENDROOT
BRANCH   1   2
ATOM      2  C   UNL     1       9.370   0.348  -1.235  1.00  0.00     0.303 C 
ATOM      3  O   UNL     1       9.472  -0.390  -0.224  1.00  0.00    -0.252 OA
BRANCH   2   4
ATOM      4  O   UNL     1      10.362   1.290  -1.453  1.00  0.00    -0.481 OA
ATOM      5  H   UNL     1      10.458   2.076  -0.804  1.00  0.00     0.296 HD
ENDBRANCH   2   4
ENDBRANCH   1   2
BRANCH   1   6
ATOM      6  C   UNL     1       7.145  -0.559  -1.483  1.00  0.00     0.047 C 
BRANCH   6   7
ATOM      7  C   UNL     1       6.355   0.229  -0.539  1.00  0.00    -0.047 A 
ATOM      8  C   UNL     1       6.126  -0.226   0.739  1.00  0.00     0.004 A 
ATOM      9  C   UNL     1       5.839   1.440  -0.941  1.00  0.00     0.004 A 
ATOM     10  C   UNL     1       5.364   0.580   1.587  1.00  0.00     0.000 A 
ATOM     11  C   UNL     1       5.085   2.235  -0.101  1.00  0.00     0.000 A 
ATOM     12  C   UNL     1       4.851   1.786   1.181  1.00  0.00     0.000 A 
ENDBRANCH   6   7
ENDBRANCH   1   6
TORSDOF 4
ENDMDL
MODEL 5
REMARK VINA RESULT:      -6.6      1.888      2.883
REMARK SMILES O=C(O)CCc1ccccc1
REMARK SMILES IDX 4 1 2 2 1 3 3 4 5 6 6 7 7 8 11 9 8 10 10 11 9 12
REMARK H PARENT 3 5
REMARK Flexibility Score: inf
ROOT
ATOM      1  C   UNL     1       8.216  -1.559   1.132  1.00  0.00     0.127 C 
ENDROOT
BRANCH   1   2
ATOM      2  C   UNL     1       8.506  -2.782   0.346  1.00  0.00     0.303 C 
ATOM      3  O   UNL     1       9.140  -3.743   0.847  1.00  0.00    -0.252 OA
BRANCH   2   4
ATOM      4  O   UNL     1       8.082  -2.898  -0.968  1.00  0.00    -0.481 OA
ATOM      5  H   UNL     1       7.079  -2.945  -1.169  1.00  0.00     0.296 HD
ENDBRANCH   2   4
ENDBRANCH   1   2
BRANCH   1   6
ATOM      6  C   UNL     1       6.732  -1.448   1.299  1.00  0.00     0.047 C 
BRANCH   6   7
ATOM      7  C   UNL     1       6.170  -0.192   0.804  1.00  0.00    -0.047 A 
ATOM      8  C   UNL     1       5.395   0.601   1.617  1.00  0.00     0.004 A 
ATOM      9  C   UNL     1       6.427   0.193  -0.492  1.00  0.00     0.004 A 
ATOM     10  C   UNL     1       4.893   1.788   1.078  1.00  0.00     0.000 A 
ATOM     11  C   UNL     1       5.929   1.365  -1.024  1.00  0.00     0.000 A 
ATOM     12  C   UNL     1       5.151   2.166  -0.216  1.00  0.00     0.000 A 
ENDBRANCH   6   7
ENDBRANCH   1   6
TORSDOF 4
ENDMDL
