@<TRIPOS>MOLECULE
/home/cewinharhar/GITHUB/reincatalyze/data/processed/docking_pred/2023-Apr-26-1657_maxeplen10_maxtrainstep1000_exh32_gamma099_lrac9e-4_lrcr1e-3/6e6a373552f8835a6ba7a6c6fa001d8bbefa4498_ligand_2.pdbqt
 12 12 0 0 0
SMALL
GASTEIGER

@<TRIPOS>ATOM
      1  C          6.4510   -0.5490    2.7650 C.3     1  UNL1        0.1270
      2  C          7.1580   -1.5200    1.8970 C.2     1  UNL1        0.3030
      3  O          8.3180   -1.2900    1.4720 O.2     1  UNL1       -0.2520
      4  O          6.5570   -2.7130    1.5290 O.3     1  UNL1       -0.4810
      5  H          7.0000   -3.2980    0.8150 H       1  UNL1        0.2960
      6  C          5.2990    0.0200    1.9940 C.3     1  UNL1        0.0470
      7  C          5.5770    1.3180    1.3820 C.2     1  UNL1       -0.0470
      8  C          6.5480    2.1450    1.8960 C.2     1  UNL1        0.0040
      9  C          4.8550    1.7070    0.2770 C.2     1  UNL1        0.0040
     10  C          6.7600    3.3700    1.2600 C.2     1  UNL1        0.0000
     11  C          5.0650    2.9190   -0.3510 C.2     1  UNL1        0.0000
     12  C          6.0360    3.7540    0.1590 C.2     1  UNL1        0.0000
@<TRIPOS>BOND
     1    11    12    2
     2    11     9    1
     3    12    10    1
     4     9     7    2
     5     5     4    1
     6    10     8    2
     7     7     8    1
     8     7     6    1
     9     3     2    2
    10     4     2    1
    11     2     1    1
    12     6     1    1
