@<TRIPOS>MOLECULE
/home/cewinharhar/GITHUB/reincatalyze/data/processed/docking_pred/2023-Apr-26-1657_maxeplen10_maxtrainstep1000_exh32_gamma099_lrac9e-4_lrcr1e-3/6e6a373552f8835a6ba7a6c6fa001d8bbefa4498_ligand_2.pdbqt
 12 12 0 0 0
SMALL
GASTEIGER

@<TRIPOS>ATOM
      1  C          8.0080   -6.2930   10.7370 C.3     1  UNL1        0.1270
      2  C          8.3140   -4.9110   11.1770 C.2     1  UNL1        0.3030
      3  O          7.5230   -3.9640   10.9440 O.2     1  UNL1       -0.2520
      4  O          9.4860   -4.6260   11.8590 O.3     1  UNL1       -0.4810
      5  H          9.4810   -4.6210   12.8830 H       1  UNL1        0.2960
      6  C          8.2410   -7.2170   11.8920 C.3     1  UNL1        0.0470
      7  C          9.2350   -8.2570   11.6310 C.2     1  UNL1       -0.0470
      8  C         10.1920   -8.0870   10.6580 C.2     1  UNL1        0.0040
      9  C          9.2070   -9.4140   12.3740 C.2     1  UNL1        0.0040
     10  C         11.1100   -9.1210   10.4630 C.2     1  UNL1        0.0000
     11  C         10.1160  -10.4360   12.1810 C.2     1  UNL1        0.0000
     12  C         11.0770  -10.2740   11.2070 C.2     1  UNL1        0.0000
@<TRIPOS>BOND
     1    10     8    1
     2    10    12    2
     3     8     7    2
     4     1     2    1
     5     1     6    1
     6     3     2    2
     7     2     4    1
     8    12    11    1
     9     7     6    1
    10     7     9    1
    11     4     5    1
    12    11     9    2
