@<TRIPOS>MOLECULE
/home/cewinharhar/GITHUB/reincatalyze/data/processed/docking_pred/2023-Apr-26-1657_maxeplen10_maxtrainstep1000_exh32_gamma099_lrac9e-4_lrcr1e-3/6e6a373552f8835a6ba7a6c6fa001d8bbefa4498_ligand_2.pdbqt
 12 12 0 0 0
SMALL
GASTEIGER

@<TRIPOS>ATOM
      1  C          8.1310   -6.1090   11.4660 C.3     1  UNL1        0.1270
      2  C          8.2230   -4.6340   11.5830 C.2     1  UNL1        0.3030
      3  O          7.4850   -3.8800   10.9020 O.2     1  UNL1       -0.2520
      4  O          9.1310   -4.0450   12.4490 O.3     1  UNL1       -0.4810
      5  H          8.8070   -3.7050   13.3590 H       1  UNL1        0.2960
      6  C          8.8240   -6.5250   10.2050 C.3     1  UNL1        0.0470
      7  C         10.1200   -7.1640   10.4210 C.2     1  UNL1       -0.0470
      8  C         11.2610   -6.4100   10.5710 C.2     1  UNL1        0.0040
      9  C         10.1910   -8.5370   10.4770 C.2     1  UNL1        0.0040
     10  C         12.4650   -7.0870   10.7750 C.2     1  UNL1        0.0000
     11  C         11.3820   -9.2060   10.6790 C.2     1  UNL1        0.0000
     12  C         12.5290   -8.4570   10.8290 C.2     1  UNL1        0.0000
@<TRIPOS>BOND
     1     6     7    1
     2     6     1    1
     3     7     9    2
     4     7     8    1
     5     9    11    1
     6     8    10    2
     7    11    12    2
     8    10    12    1
     9     3     2    2
    10     1     2    1
    11     2     4    1
    12     4     5    1
