@<TRIPOS>MOLECULE
/home/cewinharhar/GITHUB/reincatalyze/data/processed/docking_pred/2023-Apr-26-1657_maxeplen10_maxtrainstep1000_exh32_gamma099_lrac9e-4_lrcr1e-3/6e6a373552f8835a6ba7a6c6fa001d8bbefa4498_ligand_2.pdbqt
 12 12 0 0 0
SMALL
GASTEIGER

@<TRIPOS>ATOM
      1  C          8.4240   -5.5990   11.7430 C.3     1  UNL1        0.1270
      2  C          7.6770   -4.3590   11.4240 C.2     1  UNL1        0.3030
      3  O          7.0920   -3.7030   12.3210 O.2     1  UNL1       -0.2520
      4  O          7.6030   -3.8910   10.1220 O.3     1  UNL1       -0.4810
      5  H          8.2940   -4.2060    9.4360 H       1  UNL1        0.2960
      6  C          8.7360   -6.3050   10.4590 C.3     1  UNL1        0.0470
      7  C          9.9850   -7.0640   10.4870 C.2     1  UNL1       -0.0470
      8  C          9.9730   -8.4390   10.4300 C.2     1  UNL1        0.0040
      9  C         11.1800   -6.3890   10.5670 C.2     1  UNL1        0.0040
     10  C         11.2040   -9.0990   10.4600 C.2     1  UNL1        0.0000
     11  C         12.3960   -7.0430   10.5970 C.2     1  UNL1        0.0000
     12  C         12.3930   -8.4200   10.5420 C.2     1  UNL1        0.0000
@<TRIPOS>BOND
     1     5     4    1
     2     4     2    1
     3     8    10    1
     4     8     7    2
     5     6     7    1
     6     6     1    1
     7    10    12    2
     8     7     9    1
     9    12    11    1
    10     9    11    2
    11     2     1    1
    12     2     3    2
