MODEL 1
REMARK VINA RESULT:      -5.5      0.000      0.000
REMARK SMILES O=C(O)CCc1ccccc1
REMARK SMILES IDX 4 1 2 2 1 3 3 4 5 6 6 7 7 8 11 9 8 10 10 11 9 12
REMARK H PARENT 3 5
REMARK Flexibility Score: inf
ROOT
ATOM      1  C   UNL     1       6.451  -0.549   2.765  1.00  0.00     0.127 C 
ENDROOT
BRANCH   1   2
ATOM      2  C   UNL     1       7.158  -1.520   1.897  1.00  0.00     0.303 C 
ATOM      3  O   UNL     1       8.318  -1.290   1.472  1.00  0.00    -0.252 OA
BRANCH   2   4
ATOM      4  O   UNL     1       6.557  -2.713   1.529  1.00  0.00    -0.481 OA
ATOM      5  H   UNL     1       7.000  -3.298   0.815  1.00  0.00     0.296 HD
ENDBRANCH   2   4
ENDBRANCH   1   2
BRANCH   1   6
ATOM      6  C   UNL     1       5.299   0.020   1.994  1.00  0.00     0.047 C 
BRANCH   6   7
ATOM      7  C   UNL     1       5.577   1.318   1.382  1.00  0.00    -0.047 A 
ATOM      8  C   UNL     1       6.548   2.145   1.896  1.00  0.00     0.004 A 
ATOM      9  C   UNL     1       4.855   1.707   0.277  1.00  0.00     0.004 A 
ATOM     10  C   UNL     1       6.760   3.370   1.260  1.00  0.00     0.000 A 
ATOM     11  C   UNL     1       5.065   2.919  -0.351  1.00  0.00     0.000 A 
ATOM     12  C   UNL     1       6.036   3.754   0.159  1.00  0.00     0.000 A 
ENDBRANCH   6   7
ENDBRANCH   1   6
TORSDOF 4
ENDMDL
MODEL 2
REMARK VINA RESULT:      -5.5      0.082      1.438
REMARK SMILES O=C(O)CCc1ccccc1
REMARK SMILES IDX 4 1 2 2 1 3 3 4 5 6 6 7 7 8 11 9 8 10 10 11 9 12
REMARK H PARENT 3 5
REMARK Flexibility Score: inf
ROOT
ATOM      1  C   UNL     1       6.442  -0.552   2.743  1.00  0.00     0.127 C 
ENDROOT
BRANCH   1   2
ATOM      2  C   UNL     1       7.161  -1.530   1.893  1.00  0.00     0.303 C 
ATOM      3  O   UNL     1       8.323  -1.300   1.476  1.00  0.00    -0.252 OA
BRANCH   2   4
ATOM      4  O   UNL     1       6.567  -2.729   1.532  1.00  0.00    -0.481 OA
ATOM      5  H   UNL     1       7.151  -3.488   1.170  1.00  0.00     0.296 HD
ENDBRANCH   2   4
ENDBRANCH   1   2
BRANCH   1   6
ATOM      6  C   UNL     1       5.294   0.002   1.956  1.00  0.00     0.047 C 
BRANCH   6   7
ATOM      7  C   UNL     1       5.562   1.306   1.352  1.00  0.00    -0.047 A 
ATOM      8  C   UNL     1       4.870   1.720   0.238  1.00  0.00     0.004 A 
ATOM      9  C   UNL     1       6.518   2.122   1.912  1.00  0.00     0.004 A 
ATOM     10  C   UNL     1       5.178   2.978  -0.286  1.00  0.00     0.000 A 
ATOM     11  C   UNL     1       6.821   3.365   1.394  1.00  0.00     0.000 A 
ATOM     12  C   UNL     1       6.133   3.787   0.277  1.00  0.00     0.000 A 
ENDBRANCH   6   7
ENDBRANCH   1   6
TORSDOF 4
ENDMDL
MODEL 3
REMARK VINA RESULT:      -3.7     11.903     13.448
REMARK SMILES O=C(O)CCc1ccccc1
REMARK SMILES IDX 4 1 2 2 1 3 3 4 5 6 6 7 7 8 11 9 8 10 10 11 9 12
REMARK H PARENT 3 5
REMARK Flexibility Score: inf
ROOT
ATOM      1  C   UNL     1       8.131  -6.109  11.466  1.00  0.00     0.127 C 
ENDROOT
BRANCH   1   2
ATOM      2  C   UNL     1       8.223  -4.634  11.583  1.00  0.00     0.303 C 
ATOM      3  O   UNL     1       7.485  -3.880  10.902  1.00  0.00    -0.252 OA
BRANCH   2   4
ATOM      4  O   UNL     1       9.131  -4.045  12.449  1.00  0.00    -0.481 OA
ATOM      5  H   UNL     1       8.807  -3.705  13.359  1.00  0.00     0.296 HD
ENDBRANCH   2   4
ENDBRANCH   1   2
BRANCH   1   6
ATOM      6  C   UNL     1       8.824  -6.525  10.205  1.00  0.00     0.047 C 
BRANCH   6   7
ATOM      7  C   UNL     1      10.120  -7.164  10.421  1.00  0.00    -0.047 A 
ATOM      8  C   UNL     1      11.261  -6.410  10.571  1.00  0.00     0.004 A 
ATOM      9  C   UNL     1      10.191  -8.537  10.477  1.00  0.00     0.004 A 
ATOM     10  C   UNL     1      12.465  -7.087  10.775  1.00  0.00     0.000 A 
ATOM     11  C   UNL     1      11.382  -9.206  10.679  1.00  0.00     0.000 A 
ATOM     12  C   UNL     1      12.529  -8.457  10.829  1.00  0.00     0.000 A 
ENDBRANCH   6   7
ENDBRANCH   1   6
TORSDOF 4
ENDMDL
MODEL 4
REMARK VINA RESULT:      -3.7     11.794     14.244
REMARK SMILES O=C(O)CCc1ccccc1
REMARK SMILES IDX 4 1 2 2 1 3 3 4 5 6 6 7 7 8 11 9 8 10 10 11 9 12
REMARK H PARENT 3 5
REMARK Flexibility Score: inf
ROOT
ATOM      1  C   UNL     1       8.008  -6.293  10.737  1.00  0.00     0.127 C 
ENDROOT
BRANCH   1   2
ATOM      2  C   UNL     1       8.314  -4.911  11.177  1.00  0.00     0.303 C 
ATOM      3  O   UNL     1       7.523  -3.964  10.944  1.00  0.00    -0.252 OA
BRANCH   2   4
ATOM      4  O   UNL     1       9.486  -4.626  11.859  1.00  0.00    -0.481 OA
ATOM      5  H   UNL     1       9.481  -4.621  12.883  1.00  0.00     0.296 HD
ENDBRANCH   2   4
ENDBRANCH   1   2
BRANCH   1   6
ATOM      6  C   UNL     1       8.241  -7.217  11.892  1.00  0.00     0.047 C 
BRANCH   6   7
ATOM      7  C   UNL     1       9.235  -8.257  11.631  1.00  0.00    -0.047 A 
ATOM      8  C   UNL     1      10.192  -8.087  10.658  1.00  0.00     0.004 A 
ATOM      9  C   UNL     1       9.207  -9.414  12.374  1.00  0.00     0.004 A 
ATOM     10  C   UNL     1      11.110  -9.121  10.463  1.00  0.00     0.000 A 
ATOM     11  C   UNL     1      10.116 -10.436  12.181  1.00  0.00     0.000 A 
ATOM     12  C   UNL     1      11.077 -10.274  11.207  1.00  0.00     0.000 A 
ENDBRANCH   6   7
ENDBRANCH   1   6
TORSDOF 4
ENDMDL
MODEL 5
REMARK VINA RESULT:      -3.6     11.523     13.293
REMARK SMILES O=C(O)CCc1ccccc1
REMARK SMILES IDX 4 1 2 2 1 3 3 4 5 6 6 7 7 8 11 9 8 10 10 11 9 12
REMARK H PARENT 3 5
REMARK Flexibility Score: inf
ROOT
ATOM      1  C   UNL     1       8.424  -5.599  11.743  1.00  0.00     0.127 C 
ENDROOT
BRANCH   1   2
ATOM      2  C   UNL     1       7.677  -4.359  11.424  1.00  0.00     0.303 C 
ATOM      3  O   UNL     1       7.092  -3.703  12.321  1.00  0.00    -0.252 OA
BRANCH   2   4
ATOM      4  O   UNL     1       7.603  -3.891  10.122  1.00  0.00    -0.481 OA
ATOM      5  H   UNL     1       8.294  -4.206   9.436  1.00  0.00     0.296 HD
ENDBRANCH   2   4
ENDBRANCH   1   2
BRANCH   1   6
ATOM      6  C   UNL     1       8.736  -6.305  10.459  1.00  0.00     0.047 C 
BRANCH   6   7
ATOM      7  C   UNL     1       9.985  -7.064  10.487  1.00  0.00    -0.047 A 
ATOM      8  C   UNL     1       9.973  -8.439  10.430  1.00  0.00     0.004 A 
ATOM      9  C   UNL     1      11.180  -6.389  10.567  1.00  0.00     0.004 A 
ATOM     10  C   UNL     1      11.204  -9.099  10.460  1.00  0.00     0.000 A 
ATOM     11  C   UNL     1      12.396  -7.043  10.597  1.00  0.00     0.000 A 
ATOM     12  C   UNL     1      12.393  -8.420  10.542  1.00  0.00     0.000 A 
ENDBRANCH   6   7
ENDBRANCH   1   6
TORSDOF 4
ENDMDL
