@<TRIPOS>MOLECULE
/home/cewinharhar/GITHUB/reincatalyze/data/processed/docking_pred/2023-Apr-26-1657_maxeplen10_maxtrainstep1000_exh32_gamma099_lrac9e-4_lrcr1e-3/6e6a373552f8835a6ba7a6c6fa001d8bbefa4498_ligand_2.pdbqt
 12 12 0 0 0
SMALL
GASTEIGER

@<TRIPOS>ATOM
      1  C          6.4420   -0.5520    2.7430 C.3     1  UNL1        0.1270
      2  C          7.1610   -1.5300    1.8930 C.2     1  UNL1        0.3030
      3  O          8.3230   -1.3000    1.4760 O.2     1  UNL1       -0.2520
      4  O          6.5670   -2.7290    1.5320 O.3     1  UNL1       -0.4810
      5  H          7.1510   -3.4880    1.1700 H       1  UNL1        0.2960
      6  C          5.2940    0.0020    1.9560 C.3     1  UNL1        0.0470
      7  C          5.5620    1.3060    1.3520 C.2     1  UNL1       -0.0470
      8  C          4.8700    1.7200    0.2380 C.2     1  UNL1        0.0040
      9  C          6.5180    2.1220    1.9120 C.2     1  UNL1        0.0040
     10  C          5.1780    2.9780   -0.2860 C.2     1  UNL1        0.0000
     11  C          6.8210    3.3650    1.3940 C.2     1  UNL1        0.0000
     12  C          6.1330    3.7870    0.2770 C.2     1  UNL1        0.0000
@<TRIPOS>BOND
     1    10     8    1
     2    10    12    2
     3     8     7    2
     4    12    11    1
     5     5     4    1
     6     7     9    1
     7     7     6    1
     8    11     9    2
     9     3     2    2
    10     4     2    1
    11     2     1    1
    12     6     1    1
