@<TRIPOS>MOLECULE
/home/cewinharhar/GITHUB/reincatalyze/data/processed/docking_pred/2023-Apr-26-1657_maxeplen10_maxtrainstep1000_exh32_gamma099_lrac9e-4_lrcr1e-3/6eca206a948153dc2868ed9d680cd756ab453321_ligand_2.pdbqt
 12 12 0 0 0
SMALL
GASTEIGER

@<TRIPOS>ATOM
      1  C          5.4270    2.8960   -0.0220 C.3     1  UNL1        0.1270
      2  C          6.2070    3.8690    0.7780 C.2     1  UNL1        0.3030
      3  O          6.8790    4.7750    0.2260 O.2     1  UNL1       -0.2520
      4  O          6.2150    3.8050    2.1620 O.3     1  UNL1       -0.4810
      5  H          5.3410    3.6170    2.6600 H       1  UNL1        0.2960
      6  C          4.9160    1.8300    0.8990 C.3     1  UNL1        0.0470
      7  C          5.7120    0.6040    0.8890 C.2     1  UNL1       -0.0470
      8  C          6.3590    0.1950   -0.2530 C.2     1  UNL1        0.0040
      9  C          5.8110   -0.1410    2.0410 C.2     1  UNL1        0.0040
     10  C          7.1020   -0.9860   -0.1900 C.2     1  UNL1        0.0000
     11  C          6.5460   -1.3090    2.1020 C.2     1  UNL1        0.0000
     12  C          7.1970   -1.7260    0.9620 C.2     1  UNL1        0.0000
@<TRIPOS>BOND
     1     8    10    1
     2     8     7    2
     3    10    12    2
     4     1     2    1
     5     1     6    1
     6     3     2    2
     7     2     4    1
     8     7     6    1
     9     7     9    1
    10    12    11    1
    11     9    11    2
    12     4     5    1
