@<TRIPOS>MOLECULE
/home/cewinharhar/GITHUB/reincatalyze/data/processed/docking_pred/2023-Apr-26-1657_maxeplen10_maxtrainstep1000_exh32_gamma099_lrac9e-4_lrcr1e-3/6eca206a948153dc2868ed9d680cd756ab453321_ligand_2.pdbqt
 12 12 0 0 0
SMALL
GASTEIGER

@<TRIPOS>ATOM
      1  C          8.2390   -0.9130   -1.8410 C.3     1  UNL1        0.1270
      2  C          8.4080   -1.9880   -2.8480 C.2     1  UNL1        0.3030
      3  O          9.5410   -2.4610   -3.1110 O.2     1  UNL1       -0.2520
      4  O          7.3160   -2.5010   -3.5290 O.3     1  UNL1       -0.4810
      5  H          6.8720   -3.3580   -3.1900 H       1  UNL1        0.2960
      6  C          7.2690   -1.3890   -0.8040 C.3     1  UNL1        0.0470
      7  C          6.5000   -0.3170   -0.1730 C.2     1  UNL1       -0.0470
      8  C          6.1230   -0.4050    1.1470 C.2     1  UNL1        0.0040
      9  C          6.1570    0.7890   -0.9150 C.2     1  UNL1        0.0040
     10  C          5.3910    0.6560    1.6850 C.2     1  UNL1        0.0000
     11  C          5.4330    1.8380   -0.3820 C.2     1  UNL1        0.0000
     12  C          5.0510    1.7570    0.9390 C.2     1  UNL1        0.0000
@<TRIPOS>BOND
     1     4     5    1
     2     4     2    1
     3     3     2    2
     4     2     1    1
     5     1     6    1
     6     9    11    1
     7     9     7    2
     8     6     7    1
     9    11    12    2
    10     7     8    1
    11    12    10    1
    12     8    10    2
