@<TRIPOS>MOLECULE
/home/cewinharhar/GITHUB/reincatalyze/data/processed/docking_pred/2023-Apr-26-1657_maxeplen10_maxtrainstep1000_exh32_gamma099_lrac9e-4_lrcr1e-3/6eca206a948153dc2868ed9d680cd756ab453321_ligand_2.pdbqt
 12 12 0 0 0
SMALL
GASTEIGER

@<TRIPOS>ATOM
      1  C          8.3990   -0.6500   -2.0820 C.3     1  UNL1        0.1270
      2  C          8.3720   -1.8960   -2.8850 C.2     1  UNL1        0.3030
      3  O          7.2860   -2.4110   -3.2490 O.2     1  UNL1       -0.2520
      4  O          9.5480   -2.5280   -3.2550 O.3     1  UNL1       -0.4810
      5  H          9.8390   -3.3750   -2.7600 H       1  UNL1        0.2960
      6  C          7.0190   -0.0670   -2.0710 C.3     1  UNL1        0.0470
      7  C          6.4550    0.0990   -0.7330 C.2     1  UNL1       -0.0470
      8  C          5.8110    1.2630   -0.3810 C.2     1  UNL1        0.0040
      9  C          6.5710   -0.9260    0.1770 C.2     1  UNL1        0.0040
     10  C          5.2950    1.3510    0.9140 C.2     1  UNL1        0.0000
     11  C          6.0610   -0.8370    1.4560 C.2     1  UNL1        0.0000
     12  C          5.4150    0.3260    1.8180 C.2     1  UNL1        0.0000
@<TRIPOS>BOND
     1     4     2    1
     2     4     5    1
     3     3     2    2
     4     2     1    1
     5     1     6    1
     6     6     7    1
     7     7     8    2
     8     7     9    1
     9     8    10    1
    10     9    11    2
    11    10    12    2
    12    11    12    1
