@<TRIPOS>MOLECULE
/home/cewinharhar/GITHUB/reincatalyze/data/processed/docking_pred/2023-Apr-26-1657_maxeplen10_maxtrainstep1000_exh32_gamma099_lrac9e-4_lrcr1e-3/6eca206a948153dc2868ed9d680cd756ab453321_ligand_2.pdbqt
 12 12 0 0 0
SMALL
GASTEIGER

@<TRIPOS>ATOM
      1  C          4.9980    1.7750    0.6780 C.3     1  UNL1        0.1270
      2  C          4.4910    1.1070    1.9000 C.2     1  UNL1        0.3030
      3  O          5.1520    0.2060    2.4710 O.2     1  UNL1       -0.2520
      4  O          3.2680    1.4610    2.4460 O.3     1  UNL1       -0.4810
      5  H          2.6570    0.7310    2.8220 H       1  UNL1        0.2960
      6  C          6.4950    1.8030    0.7440 C.3     1  UNL1        0.0470
      7  C          7.1510    1.0600   -0.3310 C.2     1  UNL1       -0.0470
      8  C          8.4860    1.2500   -0.6030 C.2     1  UNL1        0.0040
      9  C          6.4180    0.1620   -1.0710 C.2     1  UNL1        0.0040
     10  C          9.0470    0.5060   -1.6430 C.2     1  UNL1        0.0000
     11  C          6.9740   -0.5720   -2.1000 C.2     1  UNL1        0.0000
     12  C          8.3110   -0.3880   -2.3790 C.2     1  UNL1        0.0000
@<TRIPOS>BOND
     1    12    11    2
     2    12    10    1
     3    11     9    1
     4    10     8    2
     5     9     7    2
     6     8     7    1
     7     7     6    1
     8     1     6    1
     9     1     2    1
    10     2     4    1
    11     2     3    2
    12     4     5    1
