@<TRIPOS>MOLECULE
/home/cewinharhar/GITHUB/reincatalyze/data/processed/docking_pred/2023-Apr-26-1657_maxeplen10_maxtrainstep1000_exh32_gamma099_lrac9e-4_lrcr1e-3/6eca206a948153dc2868ed9d680cd756ab453321_ligand_2.pdbqt
 12 12 0 0 0
SMALL
GASTEIGER

@<TRIPOS>ATOM
      1  C          8.4230   -0.5550   -2.2370 C.3     1  UNL1        0.1270
      2  C          8.4770   -1.8620   -2.9340 C.2     1  UNL1        0.3030
      3  O          9.5660   -2.4620   -3.1080 O.2     1  UNL1       -0.2520
      4  O          7.3220   -2.4590   -3.4140 O.3     1  UNL1       -0.4810
      5  H          6.5200   -2.5730   -2.7890 H       1  UNL1        0.2960
      6  C          6.9920   -0.1150   -2.1720 C.3     1  UNL1        0.0470
      7  C          6.4800    0.0400   -0.8110 C.2     1  UNL1       -0.0470
      8  C          6.6140   -0.9720    0.1110 C.2     1  UNL1        0.0040
      9  C          5.8590    1.2160   -0.4580 C.2     1  UNL1        0.0040
     10  C          6.1020   -0.7540    1.3920 C.2     1  UNL1        0.0000
     11  C          5.3530    1.4290    0.8090 C.2     1  UNL1        0.0000
     12  C          5.4830    0.4200    1.7380 C.2     1  UNL1        0.0000
@<TRIPOS>BOND
     1     4     2    1
     2     4     5    1
     3     3     2    2
     4     2     1    1
     5     1     6    1
     6     6     7    1
     7     7     9    2
     8     7     8    1
     9     9    11    1
    10     8    10    2
    11    11    12    2
    12    10    12    1
