MODEL 1
REMARK VINA RESULT:      -7.3      0.000      0.000
REMARK SMILES O=C(O)CCc1ccccc1
REMARK SMILES IDX 4 1 2 2 1 3 3 4 5 6 6 7 7 8 11 9 8 10 10 11 9 12
REMARK H PARENT 3 5
REMARK Flexibility Score: inf
ROOT
ATOM      1  C   UNL     1       8.423  -0.555  -2.237  1.00  0.00     0.127 C 
ENDROOT
BRANCH   1   2
ATOM      2  C   UNL     1       8.477  -1.862  -2.934  1.00  0.00     0.303 C 
ATOM      3  O   UNL     1       9.566  -2.462  -3.108  1.00  0.00    -0.252 OA
BRANCH   2   4
ATOM      4  O   UNL     1       7.322  -2.459  -3.414  1.00  0.00    -0.481 OA
ATOM      5  H   UNL     1       6.520  -2.573  -2.789  1.00  0.00     0.296 HD
ENDBRANCH   2   4
ENDBRANCH   1   2
BRANCH   1   6
ATOM      6  C   UNL     1       6.992  -0.115  -2.172  1.00  0.00     0.047 C 
BRANCH   6   7
ATOM      7  C   UNL     1       6.480   0.040  -0.811  1.00  0.00    -0.047 A 
ATOM      8  C   UNL     1       6.614  -0.972   0.111  1.00  0.00     0.004 A 
ATOM      9  C   UNL     1       5.859   1.216  -0.458  1.00  0.00     0.004 A 
ATOM     10  C   UNL     1       6.102  -0.754   1.392  1.00  0.00     0.000 A 
ATOM     11  C   UNL     1       5.353   1.429   0.809  1.00  0.00     0.000 A 
ATOM     12  C   UNL     1       5.483   0.420   1.738  1.00  0.00     0.000 A 
ENDBRANCH   6   7
ENDBRANCH   1   6
TORSDOF 4
ENDMDL
MODEL 2
REMARK VINA RESULT:      -7.3      0.135      1.733
REMARK SMILES O=C(O)CCc1ccccc1
REMARK SMILES IDX 4 1 2 2 1 3 3 4 5 6 6 7 7 8 11 9 8 10 10 11 9 12
REMARK H PARENT 3 5
REMARK Flexibility Score: inf
ROOT
ATOM      1  C   UNL     1       8.399  -0.650  -2.082  1.00  0.00     0.127 C 
ENDROOT
BRANCH   1   2
ATOM      2  C   UNL     1       8.372  -1.896  -2.885  1.00  0.00     0.303 C 
ATOM      3  O   UNL     1       7.286  -2.411  -3.249  1.00  0.00    -0.252 OA
BRANCH   2   4
ATOM      4  O   UNL     1       9.548  -2.528  -3.255  1.00  0.00    -0.481 OA
ATOM      5  H   UNL     1       9.839  -3.375  -2.760  1.00  0.00     0.296 HD
ENDBRANCH   2   4
ENDBRANCH   1   2
BRANCH   1   6
ATOM      6  C   UNL     1       7.019  -0.067  -2.071  1.00  0.00     0.047 C 
BRANCH   6   7
ATOM      7  C   UNL     1       6.455   0.099  -0.733  1.00  0.00    -0.047 A 
ATOM      8  C   UNL     1       5.811   1.263  -0.381  1.00  0.00     0.004 A 
ATOM      9  C   UNL     1       6.571  -0.926   0.177  1.00  0.00     0.004 A 
ATOM     10  C   UNL     1       5.295   1.351   0.914  1.00  0.00     0.000 A 
ATOM     11  C   UNL     1       6.061  -0.837   1.456  1.00  0.00     0.000 A 
ATOM     12  C   UNL     1       5.415   0.326   1.818  1.00  0.00     0.000 A 
ENDBRANCH   6   7
ENDBRANCH   1   6
TORSDOF 4
ENDMDL
MODEL 3
REMARK VINA RESULT:      -7.2      0.651      1.102
REMARK SMILES O=C(O)CCc1ccccc1
REMARK SMILES IDX 4 1 2 2 1 3 3 4 5 6 6 7 7 8 11 9 8 10 10 11 9 12
REMARK H PARENT 3 5
REMARK Flexibility Score: inf
ROOT
ATOM      1  C   UNL     1       8.239  -0.913  -1.841  1.00  0.00     0.127 C 
ENDROOT
BRANCH   1   2
ATOM      2  C   UNL     1       8.408  -1.988  -2.848  1.00  0.00     0.303 C 
ATOM      3  O   UNL     1       9.541  -2.461  -3.111  1.00  0.00    -0.252 OA
BRANCH   2   4
ATOM      4  O   UNL     1       7.316  -2.501  -3.529  1.00  0.00    -0.481 OA
ATOM      5  H   UNL     1       6.872  -3.358  -3.190  1.00  0.00     0.296 HD
ENDBRANCH   2   4
ENDBRANCH   1   2
BRANCH   1   6
ATOM      6  C   UNL     1       7.269  -1.389  -0.804  1.00  0.00     0.047 C 
BRANCH   6   7
ATOM      7  C   UNL     1       6.500  -0.317  -0.173  1.00  0.00    -0.047 A 
ATOM      8  C   UNL     1       6.123  -0.405   1.147  1.00  0.00     0.004 A 
ATOM      9  C   UNL     1       6.157   0.789  -0.915  1.00  0.00     0.004 A 
ATOM     10  C   UNL     1       5.391   0.656   1.685  1.00  0.00     0.000 A 
ATOM     11  C   UNL     1       5.433   1.838  -0.382  1.00  0.00     0.000 A 
ATOM     12  C   UNL     1       5.051   1.757   0.939  1.00  0.00     0.000 A 
ENDBRANCH   6   7
ENDBRANCH   1   6
TORSDOF 4
ENDMDL
MODEL 4
REMARK VINA RESULT:      -6.8      3.375      5.069
REMARK SMILES O=C(O)CCc1ccccc1
REMARK SMILES IDX 4 1 2 2 1 3 3 4 5 6 6 7 7 8 11 9 8 10 10 11 9 12
REMARK H PARENT 3 5
REMARK Flexibility Score: inf
ROOT
ATOM      1  C   UNL     1       4.998   1.775   0.678  1.00  0.00     0.127 C 
ENDROOT
BRANCH   1   2
ATOM      2  C   UNL     1       4.491   1.107   1.900  1.00  0.00     0.303 C 
ATOM      3  O   UNL     1       5.152   0.206   2.471  1.00  0.00    -0.252 OA
BRANCH   2   4
ATOM      4  O   UNL     1       3.268   1.461   2.446  1.00  0.00    -0.481 OA
ATOM      5  H   UNL     1       2.657   0.731   2.822  1.00  0.00     0.296 HD
ENDBRANCH   2   4
ENDBRANCH   1   2
BRANCH   1   6
ATOM      6  C   UNL     1       6.495   1.803   0.744  1.00  0.00     0.047 C 
BRANCH   6   7
ATOM      7  C   UNL     1       7.151   1.060  -0.331  1.00  0.00    -0.047 A 
ATOM      8  C   UNL     1       8.486   1.250  -0.603  1.00  0.00     0.004 A 
ATOM      9  C   UNL     1       6.418   0.162  -1.071  1.00  0.00     0.004 A 
ATOM     10  C   UNL     1       9.047   0.506  -1.643  1.00  0.00     0.000 A 
ATOM     11  C   UNL     1       6.974  -0.572  -2.100  1.00  0.00     0.000 A 
ATOM     12  C   UNL     1       8.311  -0.388  -2.379  1.00  0.00     0.000 A 
ENDBRANCH   6   7
ENDBRANCH   1   6
TORSDOF 4
ENDMDL
MODEL 5
REMARK VINA RESULT:      -6.7      3.823      4.983
REMARK SMILES O=C(O)CCc1ccccc1
REMARK SMILES IDX 4 1 2 2 1 3 3 4 5 6 6 7 7 8 11 9 8 10 10 11 9 12
REMARK H PARENT 3 5
REMARK Flexibility Score: inf
ROOT
ATOM      1  C   UNL     1       5.427   2.896  -0.022  1.00  0.00     0.127 C 
ENDROOT
BRANCH   1   2
ATOM      2  C   UNL     1       6.207   3.869   0.778  1.00  0.00     0.303 C 
ATOM      3  O   UNL     1       6.879   4.775   0.226  1.00  0.00    -0.252 OA
BRANCH   2   4
ATOM      4  O   UNL     1       6.215   3.805   2.162  1.00  0.00    -0.481 OA
ATOM      5  H   UNL     1       5.341   3.617   2.660  1.00  0.00     0.296 HD
ENDBRANCH   2   4
ENDBRANCH   1   2
BRANCH   1   6
ATOM      6  C   UNL     1       4.916   1.830   0.899  1.00  0.00     0.047 C 
BRANCH   6   7
ATOM      7  C   UNL     1       5.712   0.604   0.889  1.00  0.00    -0.047 A 
ATOM      8  C   UNL     1       6.359   0.195  -0.253  1.00  0.00     0.004 A 
ATOM      9  C   UNL     1       5.811  -0.141   2.041  1.00  0.00     0.004 A 
ATOM     10  C   UNL     1       7.102  -0.986  -0.190  1.00  0.00     0.000 A 
ATOM     11  C   UNL     1       6.546  -1.309   2.102  1.00  0.00     0.000 A 
ATOM     12  C   UNL     1       7.197  -1.726   0.962  1.00  0.00     0.000 A 
ENDBRANCH   6   7
ENDBRANCH   1   6
TORSDOF 4
ENDMDL
