@<TRIPOS>MOLECULE
/home/cewinharhar/GITHUB/reincatalyze/data/processed/docking_pred/2023-Apr-26-1657_maxeplen10_maxtrainstep1000_exh32_gamma099_lrac9e-4_lrcr1e-3/7076afde4386affa59e586c5ec9b2181426a643f_ligand_2.pdbqt
 12 12 0 0 0
SMALL
GASTEIGER

@<TRIPOS>ATOM
      1  C          8.4220   -0.6070   -2.1610 C.3     1  UNL1        0.1270
      2  C          8.4720   -1.8880   -2.9040 C.2     1  UNL1        0.3030
      3  O          9.5580   -2.4930   -3.0840 O.2     1  UNL1       -0.2520
      4  O          7.3190   -2.4550   -3.4210 O.3     1  UNL1       -0.4810
      5  H          6.7130   -3.0070   -2.8070 H       1  UNL1        0.2960
      6  C          7.0000   -0.1340   -2.1340 C.3     1  UNL1        0.0470
      7  C          6.4620    0.0560   -0.7890 C.2     1  UNL1       -0.0470
      8  C          5.8260    1.2260   -0.4440 C.2     1  UNL1        0.0040
      9  C          6.5960   -0.9530    0.1370 C.2     1  UNL1        0.0040
     10  C          5.3360    1.3380    0.8590 C.2     1  UNL1        0.0000
     11  C          6.1100   -0.8410    1.4240 C.2     1  UNL1        0.0000
     12  C          5.4730    0.3290    1.7780 C.2     1  UNL1        0.0000
@<TRIPOS>BOND
     1     4     2    1
     2     4     5    1
     3     3     2    2
     4     2     1    1
     5     1     6    1
     6     6     7    1
     7     7     8    2
     8     7     9    1
     9     8    10    1
    10     9    11    2
    11    10    12    2
    12    11    12    1
