@<TRIPOS>MOLECULE
/home/cewinharhar/GITHUB/reincatalyze/data/processed/docking_pred/2023-Apr-26-1657_maxeplen10_maxtrainstep1000_exh32_gamma099_lrac9e-4_lrcr1e-3/7076afde4386affa59e586c5ec9b2181426a643f_ligand_2.pdbqt
 12 12 0 0 0
SMALL
GASTEIGER

@<TRIPOS>ATOM
      1  C          8.4280   -0.5510   -2.2370 C.3     1  UNL1        0.1270
      2  C          8.4660   -1.8650   -2.9220 C.2     1  UNL1        0.3030
      3  O          9.5460   -2.4850   -3.0800 O.2     1  UNL1       -0.2520
      4  O          7.3060   -2.4460   -3.4090 O.3     1  UNL1       -0.4810
      5  H          6.4430   -2.3740   -2.8630 H       1  UNL1        0.2960
      6  C          7.0020   -0.0940   -2.1740 C.3     1  UNL1        0.0470
      7  C          6.4840    0.0530   -0.8150 C.2     1  UNL1       -0.0470
      8  C          6.6200   -0.9620    0.1030 C.2     1  UNL1        0.0040
      9  C          5.8580    1.2250   -0.4590 C.2     1  UNL1        0.0040
     10  C          6.1030   -0.7510    1.3840 C.2     1  UNL1        0.0000
     11  C          5.3470    1.4310    0.8070 C.2     1  UNL1        0.0000
     12  C          5.4780    0.4190    1.7330 C.2     1  UNL1        0.0000
@<TRIPOS>BOND
     1     4     2    1
     2     4     5    1
     3     3     2    2
     4     2     1    1
     5     1     6    1
     6     6     7    1
     7     7     9    2
     8     7     8    1
     9     9    11    1
    10     8    10    2
    11    11    12    2
    12    10    12    1
