@<TRIPOS>MOLECULE
/home/cewinharhar/GITHUB/reincatalyze/data/processed/docking_pred/2023-Apr-26-1657_maxeplen10_maxtrainstep1000_exh32_gamma099_lrac9e-4_lrcr1e-3/7076afde4386affa59e586c5ec9b2181426a643f_ligand_2.pdbqt
 12 12 0 0 0
SMALL
GASTEIGER

@<TRIPOS>ATOM
      1  C          5.4350    2.9110    0.0090 C.3     1  UNL1        0.1270
      2  C          6.2540    3.8510    0.8110 C.2     1  UNL1        0.3030
      3  O          6.9330    4.7540    0.2630 O.2     1  UNL1       -0.2520
      4  O          6.2920    3.7590    2.1930 O.3     1  UNL1       -0.4810
      5  H          7.1290    3.3830    2.6470 H       1  UNL1        0.2960
      6  C          4.9130    1.8440    0.9230 C.3     1  UNL1        0.0470
      7  C          5.7130    0.6210    0.9250 C.2     1  UNL1       -0.0470
      8  C          6.4080    0.2320   -0.1970 C.2     1  UNL1        0.0040
      9  C          5.7670   -0.1440    2.0670 C.2     1  UNL1        0.0040
     10  C          7.1520   -0.9470   -0.1230 C.2     1  UNL1        0.0000
     11  C          6.5030   -1.3100    2.1390 C.2     1  UNL1        0.0000
     12  C          7.2010   -1.7070    1.0190 C.2     1  UNL1        0.0000
@<TRIPOS>BOND
     1     8    10    1
     2     8     7    2
     3    10    12    2
     4     1     2    1
     5     1     6    1
     6     3     2    2
     7     2     4    1
     8     6     7    1
     9     7     9    1
    10    12    11    1
    11     9    11    2
    12     4     5    1
