@<TRIPOS>MOLECULE
/home/cewinharhar/GITHUB/reincatalyze/data/processed/docking_pred/2023-Apr-26-1657_maxeplen10_maxtrainstep1000_exh32_gamma099_lrac9e-4_lrcr1e-3/7076afde4386affa59e586c5ec9b2181426a643f_ligand_2.pdbqt
 12 12 0 0 0
SMALL
GASTEIGER

@<TRIPOS>ATOM
      1  C          8.2750   -0.9450   -1.8520 C.3     1  UNL1        0.1270
      2  C          8.4030   -2.0440   -2.8380 C.2     1  UNL1        0.3030
      3  O          9.5180   -2.5630   -3.0920 O.2     1  UNL1       -0.2520
      4  O          7.2920   -2.5290   -3.5090 O.3     1  UNL1       -0.4810
      5  H          6.5320   -2.9580   -2.9750 H       1  UNL1        0.2960
      6  C          7.3810   -1.4100   -0.7430 C.3     1  UNL1        0.0470
      7  C          6.5610   -0.3510   -0.1570 C.2     1  UNL1       -0.0470
      8  C          6.2510    0.7790   -0.8770 C.2     1  UNL1        0.0040
      9  C          6.0960   -0.4960    1.1300 C.2     1  UNL1        0.0040
     10  C          5.4620    1.7490   -0.2550 C.2     1  UNL1        0.0000
     11  C          5.3160    0.4640    1.7440 C.2     1  UNL1        0.0000
     12  C          5.0020    1.5990    1.0290 C.2     1  UNL1        0.0000
@<TRIPOS>BOND
     1     4     5    1
     2     4     2    1
     3     3     2    2
     4     2     1    1
     5     1     6    1
     6     8    10    1
     7     8     7    2
     8     6     7    1
     9    10    12    2
    10     7     9    1
    11    12    11    1
    12     9    11    2
