MODEL 1
REMARK VINA RESULT:      -7.3      0.000      0.000
REMARK SMILES O=C(O)CCc1ccccc1
REMARK SMILES IDX 4 1 2 2 1 3 3 4 5 6 6 7 7 8 11 9 8 10 10 11 9 12
REMARK H PARENT 3 5
REMARK Flexibility Score: inf
ROOT
ATOM      1  C   UNL     1       8.422  -0.607  -2.161  1.00  0.00     0.127 C 
ENDROOT
BRANCH   1   2
ATOM      2  C   UNL     1       8.472  -1.888  -2.904  1.00  0.00     0.303 C 
ATOM      3  O   UNL     1       9.558  -2.493  -3.084  1.00  0.00    -0.252 OA
BRANCH   2   4
ATOM      4  O   UNL     1       7.319  -2.455  -3.421  1.00  0.00    -0.481 OA
ATOM      5  H   UNL     1       6.713  -3.007  -2.807  1.00  0.00     0.296 HD
ENDBRANCH   2   4
ENDBRANCH   1   2
BRANCH   1   6
ATOM      6  C   UNL     1       7.000  -0.134  -2.134  1.00  0.00     0.047 C 
BRANCH   6   7
ATOM      7  C   UNL     1       6.462   0.056  -0.789  1.00  0.00    -0.047 A 
ATOM      8  C   UNL     1       5.826   1.226  -0.444  1.00  0.00     0.004 A 
ATOM      9  C   UNL     1       6.596  -0.953   0.137  1.00  0.00     0.004 A 
ATOM     10  C   UNL     1       5.336   1.338   0.859  1.00  0.00     0.000 A 
ATOM     11  C   UNL     1       6.110  -0.841   1.424  1.00  0.00     0.000 A 
ATOM     12  C   UNL     1       5.473   0.329   1.778  1.00  0.00     0.000 A 
ENDBRANCH   6   7
ENDBRANCH   1   6
TORSDOF 4
ENDMDL
MODEL 2
REMARK VINA RESULT:      -7.3      0.067      1.438
REMARK SMILES O=C(O)CCc1ccccc1
REMARK SMILES IDX 4 1 2 2 1 3 3 4 5 6 6 7 7 8 11 9 8 10 10 11 9 12
REMARK H PARENT 3 5
REMARK Flexibility Score: inf
ROOT
ATOM      1  C   UNL     1       8.428  -0.551  -2.237  1.00  0.00     0.127 C 
ENDROOT
BRANCH   1   2
ATOM      2  C   UNL     1       8.466  -1.865  -2.922  1.00  0.00     0.303 C 
ATOM      3  O   UNL     1       9.546  -2.485  -3.080  1.00  0.00    -0.252 OA
BRANCH   2   4
ATOM      4  O   UNL     1       7.306  -2.446  -3.409  1.00  0.00    -0.481 OA
ATOM      5  H   UNL     1       6.443  -2.374  -2.863  1.00  0.00     0.296 HD
ENDBRANCH   2   4
ENDBRANCH   1   2
BRANCH   1   6
ATOM      6  C   UNL     1       7.002  -0.094  -2.174  1.00  0.00     0.047 C 
BRANCH   6   7
ATOM      7  C   UNL     1       6.484   0.053  -0.815  1.00  0.00    -0.047 A 
ATOM      8  C   UNL     1       6.620  -0.962   0.103  1.00  0.00     0.004 A 
ATOM      9  C   UNL     1       5.858   1.225  -0.459  1.00  0.00     0.004 A 
ATOM     10  C   UNL     1       6.103  -0.751   1.384  1.00  0.00     0.000 A 
ATOM     11  C   UNL     1       5.347   1.431   0.807  1.00  0.00     0.000 A 
ATOM     12  C   UNL     1       5.478   0.419   1.733  1.00  0.00     0.000 A 
ENDBRANCH   6   7
ENDBRANCH   1   6
TORSDOF 4
ENDMDL
MODEL 3
REMARK VINA RESULT:      -7.2      0.645      1.080
REMARK SMILES O=C(O)CCc1ccccc1
REMARK SMILES IDX 4 1 2 2 1 3 3 4 5 6 6 7 7 8 11 9 8 10 10 11 9 12
REMARK H PARENT 3 5
REMARK Flexibility Score: inf
ROOT
ATOM      1  C   UNL     1       8.275  -0.945  -1.852  1.00  0.00     0.127 C 
ENDROOT
BRANCH   1   2
ATOM      2  C   UNL     1       8.403  -2.044  -2.838  1.00  0.00     0.303 C 
ATOM      3  O   UNL     1       9.518  -2.563  -3.092  1.00  0.00    -0.252 OA
BRANCH   2   4
ATOM      4  O   UNL     1       7.292  -2.529  -3.509  1.00  0.00    -0.481 OA
ATOM      5  H   UNL     1       6.532  -2.958  -2.975  1.00  0.00     0.296 HD
ENDBRANCH   2   4
ENDBRANCH   1   2
BRANCH   1   6
ATOM      6  C   UNL     1       7.381  -1.410  -0.743  1.00  0.00     0.047 C 
BRANCH   6   7
ATOM      7  C   UNL     1       6.561  -0.351  -0.157  1.00  0.00    -0.047 A 
ATOM      8  C   UNL     1       6.251   0.779  -0.877  1.00  0.00     0.004 A 
ATOM      9  C   UNL     1       6.096  -0.496   1.130  1.00  0.00     0.004 A 
ATOM     10  C   UNL     1       5.462   1.749  -0.255  1.00  0.00     0.000 A 
ATOM     11  C   UNL     1       5.316   0.464   1.744  1.00  0.00     0.000 A 
ATOM     12  C   UNL     1       5.002   1.599   1.029  1.00  0.00     0.000 A 
ENDBRANCH   6   7
ENDBRANCH   1   6
TORSDOF 4
ENDMDL
MODEL 4
REMARK VINA RESULT:      -6.7      3.345      5.017
REMARK SMILES O=C(O)CCc1ccccc1
REMARK SMILES IDX 4 1 2 2 1 3 3 4 5 6 6 7 7 8 11 9 8 10 10 11 9 12
REMARK H PARENT 3 5
REMARK Flexibility Score: inf
ROOT
ATOM      1  C   UNL     1       5.039   1.739   0.658  1.00  0.00     0.127 C 
ENDROOT
BRANCH   1   2
ATOM      2  C   UNL     1       4.603   1.061   1.902  1.00  0.00     0.303 C 
ATOM      3  O   UNL     1       5.338   0.221   2.477  1.00  0.00    -0.252 OA
BRANCH   2   4
ATOM      4  O   UNL     1       3.367   1.336   2.465  1.00  0.00    -0.481 OA
ATOM      5  H   UNL     1       2.642   1.775   1.891  1.00  0.00     0.296 HD
ENDBRANCH   2   4
ENDBRANCH   1   2
BRANCH   1   6
ATOM      6  C   UNL     1       6.535   1.819   0.666  1.00  0.00     0.047 C 
BRANCH   6   7
ATOM      7  C   UNL     1       7.177   1.041  -0.392  1.00  0.00    -0.047 A 
ATOM      8  C   UNL     1       8.517   1.197  -0.665  1.00  0.00     0.004 A 
ATOM      9  C   UNL     1       6.427   0.143  -1.115  1.00  0.00     0.004 A 
ATOM     10  C   UNL     1       9.064   0.419  -1.688  1.00  0.00     0.000 A 
ATOM     11  C   UNL     1       6.970  -0.624  -2.127  1.00  0.00     0.000 A 
ATOM     12  C   UNL     1       8.310  -0.474  -2.407  1.00  0.00     0.000 A 
ENDBRANCH   6   7
ENDBRANCH   1   6
TORSDOF 4
ENDMDL
MODEL 5
REMARK VINA RESULT:      -6.7      3.822      4.912
REMARK SMILES O=C(O)CCc1ccccc1
REMARK SMILES IDX 4 1 2 2 1 3 3 4 5 6 6 7 7 8 11 9 8 10 10 11 9 12
REMARK H PARENT 3 5
REMARK Flexibility Score: inf
ROOT
ATOM      1  C   UNL     1       5.435   2.911   0.009  1.00  0.00     0.127 C 
ENDROOT
BRANCH   1   2
ATOM      2  C   UNL     1       6.254   3.851   0.811  1.00  0.00     0.303 C 
ATOM      3  O   UNL     1       6.933   4.754   0.263  1.00  0.00    -0.252 OA
BRANCH   2   4
ATOM      4  O   UNL     1       6.292   3.759   2.193  1.00  0.00    -0.481 OA
ATOM      5  H   UNL     1       7.129   3.383   2.647  1.00  0.00     0.296 HD
ENDBRANCH   2   4
ENDBRANCH   1   2
BRANCH   1   6
ATOM      6  C   UNL     1       4.913   1.844   0.923  1.00  0.00     0.047 C 
BRANCH   6   7
ATOM      7  C   UNL     1       5.713   0.621   0.925  1.00  0.00    -0.047 A 
ATOM      8  C   UNL     1       6.408   0.232  -0.197  1.00  0.00     0.004 A 
ATOM      9  C   UNL     1       5.767  -0.144   2.067  1.00  0.00     0.004 A 
ATOM     10  C   UNL     1       7.152  -0.947  -0.123  1.00  0.00     0.000 A 
ATOM     11  C   UNL     1       6.503  -1.310   2.139  1.00  0.00     0.000 A 
ATOM     12  C   UNL     1       7.201  -1.707   1.019  1.00  0.00     0.000 A 
ENDBRANCH   6   7
ENDBRANCH   1   6
TORSDOF 4
ENDMDL
