@<TRIPOS>MOLECULE
/home/cewinharhar/GITHUB/reincatalyze/data/processed/docking_pred/2023-Apr-26-1657_maxeplen10_maxtrainstep1000_exh32_gamma099_lrac9e-4_lrcr1e-3/7076afde4386affa59e586c5ec9b2181426a643f_ligand_2.pdbqt
 12 12 0 0 0
SMALL
GASTEIGER

@<TRIPOS>ATOM
      1  C          5.0390    1.7390    0.6580 C.3     1  UNL1        0.1270
      2  C          4.6030    1.0610    1.9020 C.2     1  UNL1        0.3030
      3  O          5.3380    0.2210    2.4770 O.2     1  UNL1       -0.2520
      4  O          3.3670    1.3360    2.4650 O.3     1  UNL1       -0.4810
      5  H          2.6420    1.7750    1.8910 H       1  UNL1        0.2960
      6  C          6.5350    1.8190    0.6660 C.3     1  UNL1        0.0470
      7  C          7.1770    1.0410   -0.3920 C.2     1  UNL1       -0.0470
      8  C          8.5170    1.1970   -0.6650 C.2     1  UNL1        0.0040
      9  C          6.4270    0.1430   -1.1150 C.2     1  UNL1        0.0040
     10  C          9.0640    0.4190   -1.6880 C.2     1  UNL1        0.0000
     11  C          6.9700   -0.6240   -2.1270 C.2     1  UNL1        0.0000
     12  C          8.3100   -0.4740   -2.4070 C.2     1  UNL1        0.0000
@<TRIPOS>BOND
     1    12    11    2
     2    12    10    1
     3    11     9    1
     4    10     8    2
     5     9     7    2
     6     8     7    1
     7     7     6    1
     8     1     6    1
     9     1     2    1
    10     5     4    1
    11     2     4    1
    12     2     3    2
