@<TRIPOS>MOLECULE
/home/cewinharhar/GITHUB/reincatalyze/data/processed/docking_pred/2023-Apr-26-1657_maxeplen10_maxtrainstep1000_exh32_gamma099_lrac9e-4_lrcr1e-3/718d515b24ba45f014f0b5b5cf87c837722ccc26_ligand_2.pdbqt
 12 12 0 0 0
SMALL
GASTEIGER

@<TRIPOS>ATOM
      1  C          8.3500   -0.9290   -1.8260 C.3     1  UNL1        0.1270
      2  C          8.3580   -2.0130   -2.8360 C.2     1  UNL1        0.3030
      3  O          7.2880   -2.4630   -3.3170 O.2     1  UNL1       -0.2520
      4  O          9.5500   -2.5620   -3.2790 O.3     1  UNL1       -0.4810
      5  H          9.7120   -3.5670   -3.1660 H       1  UNL1        0.2960
      6  C          7.4980   -1.3650   -0.6740 C.3     1  UNL1        0.0470
      7  C          6.6350   -0.3120   -0.1400 C.2     1  UNL1       -0.0470
      8  C          6.2980    0.7770   -0.9090 C.2     1  UNL1        0.0040
      9  C          6.1600   -0.4220    1.1460 C.2     1  UNL1        0.0040
     10  C          5.4690    1.7440   -0.3340 C.2     1  UNL1        0.0000
     11  C          5.3410    0.5350    1.7130 C.2     1  UNL1        0.0000
     12  C          4.9980    1.6300    0.9500 C.2     1  UNL1        0.0000
@<TRIPOS>BOND
     1     3     2    2
     2     4     5    1
     3     4     2    1
     4     2     1    1
     5     1     6    1
     6     8    10    1
     7     8     7    2
     8     6     7    1
     9    10    12    2
    10     7     9    1
    11    12    11    1
    12     9    11    2
