@<TRIPOS>MOLECULE
/home/cewinharhar/GITHUB/reincatalyze/data/processed/docking_pred/2023-Apr-26-1657_maxeplen10_maxtrainstep1000_exh32_gamma099_lrac9e-4_lrcr1e-3/718d515b24ba45f014f0b5b5cf87c837722ccc26_ligand_2.pdbqt
 12 12 0 0 0
SMALL
GASTEIGER

@<TRIPOS>ATOM
      1  C          8.2410    0.1390   -2.1970 C.3     1  UNL1        0.1270
      2  C          9.3510    0.3510   -1.2380 C.2     1  UNL1        0.3030
      3  O          9.4800   -0.3740   -0.2210 O.2     1  UNL1       -0.2520
      4  O         10.2800    1.3600   -1.4400 O.3     1  UNL1       -0.4810
      5  H         11.2630    1.1890   -1.2100 H       1  UNL1        0.2960
      6  C          7.1480   -0.6080   -1.4940 C.3     1  UNL1        0.0470
      7  C          6.3670    0.2130   -0.5710 C.2     1  UNL1       -0.0470
      8  C          6.1410   -0.2030    0.7210 C.2     1  UNL1        0.0040
      9  C          5.8570    1.4140   -1.0070 C.2     1  UNL1        0.0040
     10  C          5.3860    0.6330    1.5480 C.2     1  UNL1        0.0000
     11  C          5.1110    2.2380   -0.1880 C.2     1  UNL1        0.0000
     12  C          4.8800    1.8290    1.1070 C.2     1  UNL1        0.0000
@<TRIPOS>BOND
     1     1     6    1
     2     1     2    1
     3     6     7    1
     4     4     2    1
     5     4     5    1
     6     2     3    2
     7     9     7    2
     8     9    11    1
     9     7     8    1
    10    11    12    2
    11     8    10    2
    12    12    10    1
