@<TRIPOS>MOLECULE
/home/cewinharhar/GITHUB/reincatalyze/data/processed/docking_pred/2023-Apr-26-1657_maxeplen10_maxtrainstep1000_exh32_gamma099_lrac9e-4_lrcr1e-3/718d515b24ba45f014f0b5b5cf87c837722ccc26_ligand_2.pdbqt
 12 12 0 0 0
SMALL
GASTEIGER

@<TRIPOS>ATOM
      1  C          4.9860    1.7960    0.6900 C.3     1  UNL1        0.1270
      2  C          4.4890    1.1200    1.9120 C.2     1  UNL1        0.3030
      3  O          5.1640    0.2280    2.4830 O.2     1  UNL1       -0.2520
      4  O          3.2600    1.4550    2.4580 O.3     1  UNL1       -0.4810
      5  H          2.9380    2.4250    2.4090 H       1  UNL1        0.2960
      6  C          6.4840    1.8040    0.7340 C.3     1  UNL1        0.0470
      7  C          7.1140    1.0480   -0.3470 C.2     1  UNL1       -0.0470
      8  C          6.3850    0.1550   -1.0990 C.2     1  UNL1        0.0040
      9  C          8.4510    1.2390   -0.6100 C.2     1  UNL1        0.0040
     10  C          7.0520   -0.5320   -2.1160 C.2     1  UNL1        0.0000
     11  C          9.1080    0.5590   -1.6160 C.2     1  UNL1        0.0000
     12  C          8.3850   -0.3370   -2.3730 C.2     1  UNL1        0.0000
@<TRIPOS>BOND
     1    12    10    2
     2    12    11    1
     3    10     8    1
     4    11     9    2
     5     8     7    2
     6     9     7    1
     7     7     6    1
     8     1     6    1
     9     1     2    1
    10     2     4    1
    11     2     3    2
    12     5     4    1
