@<TRIPOS>MOLECULE
/home/cewinharhar/GITHUB/reincatalyze/data/processed/docking_pred/2023-Apr-26-1657_maxeplen10_maxtrainstep1000_exh32_gamma099_lrac9e-4_lrcr1e-3/718d515b24ba45f014f0b5b5cf87c837722ccc26_ligand_2.pdbqt
 12 12 0 0 0
SMALL
GASTEIGER

@<TRIPOS>ATOM
      1  C          8.3730   -0.5830   -2.1540 C.3     1  UNL1        0.1270
      2  C          8.3520   -1.8660   -2.8950 C.2     1  UNL1        0.3030
      3  O          7.2690   -2.3920   -3.2530 O.2     1  UNL1       -0.2520
      4  O          9.5300   -2.5220   -3.2130 O.3     1  UNL1       -0.4810
      5  H          9.5090   -3.5300   -3.3900 H       1  UNL1        0.2960
      6  C          6.9770   -0.0400   -2.1110 C.3     1  UNL1        0.0470
      7  C          6.4380    0.1090   -0.7600 C.2     1  UNL1       -0.0470
      8  C          5.7620    1.2500   -0.3950 C.2     1  UNL1        0.0040
      9  C          6.6130   -0.9090    0.1490 C.2     1  UNL1        0.0040
     10  C          5.2730    1.3240    0.9110 C.2     1  UNL1        0.0000
     11  C          6.1300   -0.8340    1.4400 C.2     1  UNL1        0.0000
     12  C          5.4510    0.3060    1.8140 C.2     1  UNL1        0.0000
@<TRIPOS>BOND
     1     5     4    1
     2     3     2    2
     3     4     2    1
     4     2     1    1
     5     1     6    1
     6     6     7    1
     7     7     8    2
     8     7     9    1
     9     8    10    1
    10     9    11    2
    11    10    12    2
    12    11    12    1
