@<TRIPOS>MOLECULE
/home/cewinharhar/GITHUB/reincatalyze/data/processed/docking_pred/2023-Apr-26-1657_maxeplen10_maxtrainstep1000_exh32_gamma099_lrac9e-4_lrcr1e-3/718d515b24ba45f014f0b5b5cf87c837722ccc26_ligand_2.pdbqt
 12 12 0 0 0
SMALL
GASTEIGER

@<TRIPOS>ATOM
      1  C          8.4820   -0.5950   -2.1990 C.3     1  UNL1        0.1270
      2  C          8.4980   -1.8870   -2.9250 C.2     1  UNL1        0.3030
      3  O          9.5680   -2.5200   -3.1040 O.2     1  UNL1       -0.2520
      4  O          7.3280   -2.4330   -3.4280 O.3     1  UNL1       -0.4810
      5  H          6.8880   -2.0070   -4.2480 H       1  UNL1        0.2960
      6  C          7.0730   -0.0880   -2.1710 C.3     1  UNL1        0.0470
      7  C          6.5200    0.0580   -0.8260 C.2     1  UNL1       -0.0470
      8  C          6.6520   -0.9490    0.1020 C.2     1  UNL1        0.0040
      9  C          5.8640    1.2200   -0.4920 C.2     1  UNL1        0.0040
     10  C          6.1000   -0.7400    1.3680 C.2     1  UNL1        0.0000
     11  C          5.3190    1.4250    0.7600 C.2     1  UNL1        0.0000
     12  C          5.4460    0.4210    1.6950 C.2     1  UNL1        0.0000
@<TRIPOS>BOND
     1     5     4    1
     2     4     2    1
     3     3     2    2
     4     2     1    1
     5     1     6    1
     6     6     7    1
     7     7     9    2
     8     7     8    1
     9     9    11    1
    10     8    10    2
    11    11    12    2
    12    10    12    1
