@<TRIPOS>MOLECULE
/home/cewinharhar/GITHUB/reincatalyze/data/processed/docking_pred/2023-Apr-26-1657_maxeplen10_maxtrainstep1000_exh32_gamma099_lrac9e-4_lrcr1e-3/72c4800fcc396c08a923544a0defa9269110c5e0_ligand_2.pdbqt
 12 12 0 0 0
SMALL
GASTEIGER

@<TRIPOS>ATOM
      1  C          5.0250    1.7410    0.6760 C.3     1  UNL1        0.1270
      2  C          4.5940    1.0510    1.9140 C.2     1  UNL1        0.3030
      3  O          5.3340    0.2110    2.4830 O.2     1  UNL1       -0.2520
      4  O          3.3570    1.3160    2.4810 O.3     1  UNL1       -0.4810
      5  H          2.6400    0.5860    2.4810 H       1  UNL1        0.2960
      6  C          6.5210    1.8270    0.6810 C.3     1  UNL1        0.0470
      7  C          7.1650    1.0490   -0.3760 C.2     1  UNL1       -0.0470
      8  C          8.5080    1.1930   -0.6370 C.2     1  UNL1        0.0040
      9  C          6.4120    0.1630   -1.1110 C.2     1  UNL1        0.0040
     10  C          9.0560    0.4180   -1.6610 C.2     1  UNL1        0.0000
     11  C          6.9550   -0.6030   -2.1230 C.2     1  UNL1        0.0000
     12  C          8.3000   -0.4640   -2.3920 C.2     1  UNL1        0.0000
@<TRIPOS>BOND
     1    12    11    2
     2    12    10    1
     3    11     9    1
     4    10     8    2
     5     9     7    2
     6     8     7    1
     7     7     6    1
     8     1     6    1
     9     1     2    1
    10     2     4    1
    11     2     3    2
    12     4     5    1
