@<TRIPOS>MOLECULE
/home/cewinharhar/GITHUB/reincatalyze/data/processed/docking_pred/2023-Apr-26-1657_maxeplen10_maxtrainstep1000_exh32_gamma099_lrac9e-4_lrcr1e-3/72c4800fcc396c08a923544a0defa9269110c5e0_ligand_2.pdbqt
 12 12 0 0 0
SMALL
GASTEIGER

@<TRIPOS>ATOM
      1  C          8.2660    0.1940   -2.1870 C.3     1  UNL1        0.1270
      2  C          9.3870    0.3370   -1.2280 C.2     1  UNL1        0.3030
      3  O          9.4700   -0.3940   -0.2100 O.2     1  UNL1       -0.2520
      4  O         10.3770    1.2850   -1.4290 O.3     1  UNL1       -0.4810
      5  H         10.1660    2.1190   -1.9840 H       1  UNL1        0.2960
      6  C          7.1680   -0.5750   -1.5170 C.3     1  UNL1        0.0470
      7  C          6.3780    0.2150   -0.5740 C.2     1  UNL1       -0.0470
      8  C          6.1600   -0.2320    0.7080 C.2     1  UNL1        0.0040
      9  C          5.8530    1.4190   -0.9830 C.2     1  UNL1        0.0040
     10  C          5.3960    0.5750    1.5550 C.2     1  UNL1        0.0000
     11  C          5.0990    2.2160   -0.1450 C.2     1  UNL1        0.0000
     12  C          4.8740    1.7750    1.1420 C.2     1  UNL1        0.0000
@<TRIPOS>BOND
     1     1     6    1
     2     1     2    1
     3     5     4    1
     4     6     7    1
     5     4     2    1
     6     2     3    2
     7     9     7    2
     8     9    11    1
     9     7     8    1
    10    11    12    2
    11     8    10    2
    12    12    10    1
