@<TRIPOS>MOLECULE
/home/cewinharhar/GITHUB/reincatalyze/data/processed/docking_pred/2023-Apr-26-1657_maxeplen10_maxtrainstep1000_exh32_gamma099_lrac9e-4_lrcr1e-3/72c4800fcc396c08a923544a0defa9269110c5e0_ligand_2.pdbqt
 12 12 0 0 0
SMALL
GASTEIGER

@<TRIPOS>ATOM
      1  C          5.4160    2.8910    0.0050 C.3     1  UNL1        0.1270
      2  C          6.2240    3.8490    0.7960 C.2     1  UNL1        0.3030
      3  O          6.8660    4.7740    0.2390 O.2     1  UNL1       -0.2520
      4  O          6.2940    3.7500    2.1760 O.3     1  UNL1       -0.4810
      5  H          6.0660    4.5670    2.7490 H       1  UNL1        0.2960
      6  C          4.9080    1.8280    0.9310 C.3     1  UNL1        0.0470
      7  C          5.7030    0.6010    0.9200 C.2     1  UNL1       -0.0470
      8  C          6.3520    0.1930   -0.2220 C.2     1  UNL1        0.0040
      9  C          5.8000   -0.1460    2.0710 C.2     1  UNL1        0.0040
     10  C          7.0950   -0.9880   -0.1590 C.2     1  UNL1        0.0000
     11  C          6.5340   -1.3140    2.1320 C.2     1  UNL1        0.0000
     12  C          7.1860   -1.7300    0.9920 C.2     1  UNL1        0.0000
@<TRIPOS>BOND
     1     8    10    1
     2     8     7    2
     3    10    12    2
     4     1     2    1
     5     1     6    1
     6     3     2    2
     7     2     4    1
     8     7     6    1
     9     7     9    1
    10    12    11    1
    11     9    11    2
    12     4     5    1
