@<TRIPOS>MOLECULE
/home/cewinharhar/GITHUB/reincatalyze/data/processed/docking_pred/2023-Apr-26-1657_maxeplen10_maxtrainstep1000_exh32_gamma099_lrac9e-4_lrcr1e-3/72c4800fcc396c08a923544a0defa9269110c5e0_ligand_2.pdbqt
 12 12 0 0 0
SMALL
GASTEIGER

@<TRIPOS>ATOM
      1  C          8.3930   -0.4760   -2.0740 C.3     1  UNL1        0.1270
      2  C          8.4720   -1.7560   -2.8180 C.2     1  UNL1        0.3030
      3  O          9.5710   -2.3340   -3.0040 O.2     1  UNL1       -0.2520
      4  O          7.3300   -2.3500   -3.3300 O.3     1  UNL1       -0.4810
      5  H          7.4020   -2.9350   -4.1670 H       1  UNL1        0.2960
      6  C          6.9620   -0.0350   -2.0470 C.3     1  UNL1        0.0470
      7  C          6.4110    0.1170   -0.7020 C.2     1  UNL1       -0.0470
      8  C          5.7600    1.2710   -0.3340 C.2     1  UNL1        0.0040
      9  C          6.5490   -0.9140    0.2000 C.2     1  UNL1        0.0040
     10  C          5.2580    1.3460    0.9680 C.2     1  UNL1        0.0000
     11  C          6.0530   -0.8380    1.4860 C.2     1  UNL1        0.0000
     12  C          5.3990    0.3150    1.8630 C.2     1  UNL1        0.0000
@<TRIPOS>BOND
     1     5     4    1
     2     4     2    1
     3     3     2    2
     4     2     1    1
     5     1     6    1
     6     6     7    1
     7     7     8    2
     8     7     9    1
     9     8    10    1
    10     9    11    2
    11    10    12    2
    12    11    12    1
