MODEL 1
REMARK VINA RESULT:      -6.7      0.000      0.000
REMARK SMILES O=C(O)CCc1ccccc1
REMARK SMILES IDX 4 1 2 2 1 3 3 4 5 6 6 7 7 8 11 9 8 10 10 11 9 12
REMARK H PARENT 3 5
REMARK Flexibility Score: inf
ROOT
ATOM      1  C   UNL     1       8.393  -0.476  -2.074  1.00  0.00     0.127 C 
ENDROOT
BRANCH   1   2
ATOM      2  C   UNL     1       8.472  -1.756  -2.818  1.00  0.00     0.303 C 
ATOM      3  O   UNL     1       9.571  -2.334  -3.004  1.00  0.00    -0.252 OA
BRANCH   2   4
ATOM      4  O   UNL     1       7.330  -2.350  -3.330  1.00  0.00    -0.481 OA
ATOM      5  H   UNL     1       7.402  -2.935  -4.167  1.00  0.00     0.296 HD
ENDBRANCH   2   4
ENDBRANCH   1   2
BRANCH   1   6
ATOM      6  C   UNL     1       6.962  -0.035  -2.047  1.00  0.00     0.047 C 
BRANCH   6   7
ATOM      7  C   UNL     1       6.411   0.117  -0.702  1.00  0.00    -0.047 A 
ATOM      8  C   UNL     1       5.760   1.271  -0.334  1.00  0.00     0.004 A 
ATOM      9  C   UNL     1       6.549  -0.914   0.200  1.00  0.00     0.004 A 
ATOM     10  C   UNL     1       5.258   1.346   0.968  1.00  0.00     0.000 A 
ATOM     11  C   UNL     1       6.053  -0.838   1.486  1.00  0.00     0.000 A 
ATOM     12  C   UNL     1       5.399   0.315   1.863  1.00  0.00     0.000 A 
ENDBRANCH   6   7
ENDBRANCH   1   6
TORSDOF 4
ENDMDL
MODEL 2
REMARK VINA RESULT:      -6.7      0.148      1.736
REMARK SMILES O=C(O)CCc1ccccc1
REMARK SMILES IDX 4 1 2 2 1 3 3 4 5 6 6 7 7 8 11 9 8 10 10 11 9 12
REMARK H PARENT 3 5
REMARK Flexibility Score: inf
ROOT
ATOM      1  C   UNL     1       8.438  -0.536  -2.143  1.00  0.00     0.127 C 
ENDROOT
BRANCH   1   2
ATOM      2  C   UNL     1       8.463  -1.836  -2.854  1.00  0.00     0.303 C 
ATOM      3  O   UNL     1       7.409  -2.359  -3.291  1.00  0.00    -0.252 OA
BRANCH   2   4
ATOM      4  O   UNL     1       9.656  -2.511  -3.056  1.00  0.00    -0.481 OA
ATOM      5  H   UNL     1      10.296  -2.190  -3.788  1.00  0.00     0.296 HD
ENDBRANCH   2   4
ENDBRANCH   1   2
BRANCH   1   6
ATOM      6  C   UNL     1       7.024  -0.039  -2.120  1.00  0.00     0.047 C 
BRANCH   6   7
ATOM      7  C   UNL     1       6.470   0.115  -0.777  1.00  0.00    -0.047 A 
ATOM      8  C   UNL     1       6.615  -0.879   0.163  1.00  0.00     0.004 A 
ATOM      9  C   UNL     1       5.799   1.273  -0.456  1.00  0.00     0.004 A 
ATOM     10  C   UNL     1       6.061  -0.663   1.427  1.00  0.00     0.000 A 
ATOM     11  C   UNL     1       5.251   1.485   0.793  1.00  0.00     0.000 A 
ATOM     12  C   UNL     1       5.391   0.493   1.740  1.00  0.00     0.000 A 
ENDBRANCH   6   7
ENDBRANCH   1   6
TORSDOF 4
ENDMDL
MODEL 3
REMARK VINA RESULT:      -6.7      3.752      4.826
REMARK SMILES O=C(O)CCc1ccccc1
REMARK SMILES IDX 4 1 2 2 1 3 3 4 5 6 6 7 7 8 11 9 8 10 10 11 9 12
REMARK H PARENT 3 5
REMARK Flexibility Score: inf
ROOT
ATOM      1  C   UNL     1       5.416   2.891   0.005  1.00  0.00     0.127 C 
ENDROOT
BRANCH   1   2
ATOM      2  C   UNL     1       6.224   3.849   0.796  1.00  0.00     0.303 C 
ATOM      3  O   UNL     1       6.866   4.774   0.239  1.00  0.00    -0.252 OA
BRANCH   2   4
ATOM      4  O   UNL     1       6.294   3.750   2.176  1.00  0.00    -0.481 OA
ATOM      5  H   UNL     1       6.066   4.567   2.749  1.00  0.00     0.296 HD
ENDBRANCH   2   4
ENDBRANCH   1   2
BRANCH   1   6
ATOM      6  C   UNL     1       4.908   1.828   0.931  1.00  0.00     0.047 C 
BRANCH   6   7
ATOM      7  C   UNL     1       5.703   0.601   0.920  1.00  0.00    -0.047 A 
ATOM      8  C   UNL     1       6.352   0.193  -0.222  1.00  0.00     0.004 A 
ATOM      9  C   UNL     1       5.800  -0.146   2.071  1.00  0.00     0.004 A 
ATOM     10  C   UNL     1       7.095  -0.988  -0.159  1.00  0.00     0.000 A 
ATOM     11  C   UNL     1       6.534  -1.314   2.132  1.00  0.00     0.000 A 
ATOM     12  C   UNL     1       7.186  -1.730   0.992  1.00  0.00     0.000 A 
ENDBRANCH   6   7
ENDBRANCH   1   6
TORSDOF 4
ENDMDL
MODEL 4
REMARK VINA RESULT:      -6.7      3.291      4.982
REMARK SMILES O=C(O)CCc1ccccc1
REMARK SMILES IDX 4 1 2 2 1 3 3 4 5 6 6 7 7 8 11 9 8 10 10 11 9 12
REMARK H PARENT 3 5
REMARK Flexibility Score: inf
ROOT
ATOM      1  C   UNL     1       5.025   1.741   0.676  1.00  0.00     0.127 C 
ENDROOT
BRANCH   1   2
ATOM      2  C   UNL     1       4.594   1.051   1.914  1.00  0.00     0.303 C 
ATOM      3  O   UNL     1       5.334   0.211   2.483  1.00  0.00    -0.252 OA
BRANCH   2   4
ATOM      4  O   UNL     1       3.357   1.316   2.481  1.00  0.00    -0.481 OA
ATOM      5  H   UNL     1       2.640   0.586   2.481  1.00  0.00     0.296 HD
ENDBRANCH   2   4
ENDBRANCH   1   2
BRANCH   1   6
ATOM      6  C   UNL     1       6.521   1.827   0.681  1.00  0.00     0.047 C 
BRANCH   6   7
ATOM      7  C   UNL     1       7.165   1.049  -0.376  1.00  0.00    -0.047 A 
ATOM      8  C   UNL     1       8.508   1.193  -0.637  1.00  0.00     0.004 A 
ATOM      9  C   UNL     1       6.412   0.163  -1.111  1.00  0.00     0.004 A 
ATOM     10  C   UNL     1       9.056   0.418  -1.661  1.00  0.00     0.000 A 
ATOM     11  C   UNL     1       6.955  -0.603  -2.123  1.00  0.00     0.000 A 
ATOM     12  C   UNL     1       8.300  -0.464  -2.392  1.00  0.00     0.000 A 
ENDBRANCH   6   7
ENDBRANCH   1   6
TORSDOF 4
ENDMDL
MODEL 5
REMARK VINA RESULT:      -6.6      1.857      2.597
REMARK SMILES O=C(O)CCc1ccccc1
REMARK SMILES IDX 4 1 2 2 1 3 3 4 5 6 6 7 7 8 11 9 8 10 10 11 9 12
REMARK H PARENT 3 5
REMARK Flexibility Score: inf
ROOT
ATOM      1  C   UNL     1       8.266   0.194  -2.187  1.00  0.00     0.127 C 
ENDROOT
BRANCH   1   2
ATOM      2  C   UNL     1       9.387   0.337  -1.228  1.00  0.00     0.303 C 
ATOM      3  O   UNL     1       9.470  -0.394  -0.210  1.00  0.00    -0.252 OA
BRANCH   2   4
ATOM      4  O   UNL     1      10.377   1.285  -1.429  1.00  0.00    -0.481 OA
ATOM      5  H   UNL     1      10.166   2.119  -1.984  1.00  0.00     0.296 HD
ENDBRANCH   2   4
ENDBRANCH   1   2
BRANCH   1   6
ATOM      6  C   UNL     1       7.168  -0.575  -1.517  1.00  0.00     0.047 C 
BRANCH   6   7
ATOM      7  C   UNL     1       6.378   0.215  -0.574  1.00  0.00    -0.047 A 
ATOM      8  C   UNL     1       6.160  -0.232   0.708  1.00  0.00     0.004 A 
ATOM      9  C   UNL     1       5.853   1.419  -0.983  1.00  0.00     0.004 A 
ATOM     10  C   UNL     1       5.396   0.575   1.555  1.00  0.00     0.000 A 
ATOM     11  C   UNL     1       5.099   2.216  -0.145  1.00  0.00     0.000 A 
ATOM     12  C   UNL     1       4.874   1.775   1.142  1.00  0.00     0.000 A 
ENDBRANCH   6   7
ENDBRANCH   1   6
TORSDOF 4
ENDMDL
