MODEL 1
REMARK VINA RESULT:      -7.3      0.000      0.000
REMARK SMILES O=C(O)CCc1ccccc1
REMARK SMILES IDX 4 1 2 2 1 3 3 4 5 6 6 7 7 8 11 9 8 10 10 11 9 12
REMARK H PARENT 3 5
REMARK Flexibility Score: inf
ROOT
ATOM      1  C   UNL     1       8.430  -0.562  -2.236  1.00  0.00     0.127 C 
ENDROOT
BRANCH   1   2
ATOM      2  C   UNL     1       8.482  -1.874  -2.922  1.00  0.00     0.303 C 
ATOM      3  O   UNL     1       9.568  -2.486  -3.075  1.00  0.00    -0.252 OA
BRANCH   2   4
ATOM      4  O   UNL     1       7.329  -2.463  -3.416  1.00  0.00    -0.481 OA
ATOM      5  H   UNL     1       6.612  -1.875  -3.850  1.00  0.00     0.296 HD
ENDBRANCH   2   4
ENDBRANCH   1   2
BRANCH   1   6
ATOM      6  C   UNL     1       6.999  -0.121  -2.171  1.00  0.00     0.047 C 
BRANCH   6   7
ATOM      7  C   UNL     1       6.486   0.033  -0.811  1.00  0.00    -0.047 A 
ATOM      8  C   UNL     1       6.626  -0.977   0.113  1.00  0.00     0.004 A 
ATOM      9  C   UNL     1       5.859   1.206  -0.459  1.00  0.00     0.004 A 
ATOM     10  C   UNL     1       6.113  -0.760   1.393  1.00  0.00     0.000 A 
ATOM     11  C   UNL     1       5.351   1.418   0.808  1.00  0.00     0.000 A 
ATOM     12  C   UNL     1       5.487   0.411   1.739  1.00  0.00     0.000 A 
ENDBRANCH   6   7
ENDBRANCH   1   6
TORSDOF 4
ENDMDL
MODEL 2
REMARK VINA RESULT:      -7.3      0.070      1.438
REMARK SMILES O=C(O)CCc1ccccc1
REMARK SMILES IDX 4 1 2 2 1 3 3 4 5 6 6 7 7 8 11 9 8 10 10 11 9 12
REMARK H PARENT 3 5
REMARK Flexibility Score: inf
ROOT
ATOM      1  C   UNL     1       8.426  -0.589  -2.177  1.00  0.00     0.127 C 
ENDROOT
BRANCH   1   2
ATOM      2  C   UNL     1       8.479  -1.878  -2.906  1.00  0.00     0.303 C 
ATOM      3  O   UNL     1       9.566  -2.482  -3.081  1.00  0.00    -0.252 OA
BRANCH   2   4
ATOM      4  O   UNL     1       7.326  -2.452  -3.417  1.00  0.00    -0.481 OA
ATOM      5  H   UNL     1       6.831  -3.157  -2.864  1.00  0.00     0.296 HD
ENDBRANCH   2   4
ENDBRANCH   1   2
BRANCH   1   6
ATOM      6  C   UNL     1       7.001  -0.129  -2.136  1.00  0.00     0.047 C 
BRANCH   6   7
ATOM      7  C   UNL     1       6.471   0.048  -0.785  1.00  0.00    -0.047 A 
ATOM      8  C   UNL     1       5.844   1.218  -0.423  1.00  0.00     0.004 A 
ATOM      9  C   UNL     1       6.605  -0.972   0.128  1.00  0.00     0.004 A 
ATOM     10  C   UNL     1       5.362   1.318   0.884  1.00  0.00     0.000 A 
ATOM     11  C   UNL     1       6.128  -0.872   1.420  1.00  0.00     0.000 A 
ATOM     12  C   UNL     1       5.499   0.297   1.790  1.00  0.00     0.000 A 
ENDBRANCH   6   7
ENDBRANCH   1   6
TORSDOF 4
ENDMDL
MODEL 3
REMARK VINA RESULT:      -7.2      0.606      1.072
REMARK SMILES O=C(O)CCc1ccccc1
REMARK SMILES IDX 4 1 2 2 1 3 3 4 5 6 6 7 7 8 11 9 8 10 10 11 9 12
REMARK H PARENT 3 5
REMARK Flexibility Score: inf
ROOT
ATOM      1  C   UNL     1       8.117  -0.840  -1.971  1.00  0.00     0.127 C 
ENDROOT
BRANCH   1   2
ATOM      2  C   UNL     1       8.334  -1.981  -2.893  1.00  0.00     0.303 C 
ATOM      3  O   UNL     1       9.483  -2.443  -3.097  1.00  0.00    -0.252 OA
BRANCH   2   4
ATOM      4  O   UNL     1       7.269  -2.569  -3.556  1.00  0.00    -0.481 OA
ATOM      5  H   UNL     1       6.421  -2.805  -3.032  1.00  0.00     0.296 HD
ENDBRANCH   2   4
ENDBRANCH   1   2
BRANCH   1   6
ATOM      6  C   UNL     1       7.353  -1.334  -0.781  1.00  0.00     0.047 C 
BRANCH   6   7
ATOM      7  C   UNL     1       6.533  -0.312  -0.134  1.00  0.00    -0.047 A 
ATOM      8  C   UNL     1       6.110  -0.468   1.166  1.00  0.00     0.004 A 
ATOM      9  C   UNL     1       6.188   0.818  -0.840  1.00  0.00     0.004 A 
ATOM     10  C   UNL     1       5.331   0.550   1.720  1.00  0.00     0.000 A 
ATOM     11  C   UNL     1       5.417   1.822  -0.290  1.00  0.00     0.000 A 
ATOM     12  C   UNL     1       4.989   1.674   1.011  1.00  0.00     0.000 A 
ENDBRANCH   6   7
ENDBRANCH   1   6
TORSDOF 4
ENDMDL
MODEL 4
REMARK VINA RESULT:      -6.8      3.380      5.056
REMARK SMILES O=C(O)CCc1ccccc1
REMARK SMILES IDX 4 1 2 2 1 3 3 4 5 6 6 7 7 8 11 9 8 10 10 11 9 12
REMARK H PARENT 3 5
REMARK Flexibility Score: inf
ROOT
ATOM      1  C   UNL     1       4.994   1.792   0.706  1.00  0.00     0.127 C 
ENDROOT
BRANCH   1   2
ATOM      2  C   UNL     1       4.477   1.110   1.915  1.00  0.00     0.303 C 
ATOM      3  O   UNL     1       5.134   0.201   2.480  1.00  0.00    -0.252 OA
BRANCH   2   4
ATOM      4  O   UNL     1       3.251   1.458   2.457  1.00  0.00    -0.481 OA
ATOM      5  H   UNL     1       3.052   2.443   2.657  1.00  0.00     0.296 HD
ENDBRANCH   2   4
ENDBRANCH   1   2
BRANCH   1   6
ATOM      6  C   UNL     1       6.492   1.768   0.755  1.00  0.00     0.047 C 
BRANCH   6   7
ATOM      7  C   UNL     1       7.110   1.013  -0.333  1.00  0.00    -0.047 A 
ATOM      8  C   UNL     1       6.383   0.093  -1.053  1.00  0.00     0.004 A 
ATOM      9  C   UNL     1       8.434   1.232  -0.635  1.00  0.00     0.004 A 
ATOM     10  C   UNL     1       7.039  -0.592  -2.079  1.00  0.00     0.000 A 
ATOM     11  C   UNL     1       9.081   0.555  -1.649  1.00  0.00     0.000 A 
ATOM     12  C   UNL     1       8.360  -0.369  -2.375  1.00  0.00     0.000 A 
ENDBRANCH   6   7
ENDBRANCH   1   6
TORSDOF 4
ENDMDL
MODEL 5
REMARK VINA RESULT:      -6.6      3.834      4.920
REMARK SMILES O=C(O)CCc1ccccc1
REMARK SMILES IDX 4 1 2 2 1 3 3 4 5 6 6 7 7 8 11 9 8 10 10 11 9 12
REMARK H PARENT 3 5
REMARK Flexibility Score: inf
ROOT
ATOM      1  C   UNL     1       5.544   2.737  -0.001  1.00  0.00     0.127 C 
ENDROOT
BRANCH   1   2
ATOM      2  C   UNL     1       6.227   3.757   0.829  1.00  0.00     0.303 C 
ATOM      3  O   UNL     1       6.160   3.727   2.082  1.00  0.00    -0.252 OA
BRANCH   2   4
ATOM      4  O   UNL     1       6.961   4.775   0.241  1.00  0.00    -0.481 OA
ATOM      5  H   UNL     1       7.918   4.587  -0.070  1.00  0.00     0.296 HD
ENDBRANCH   2   4
ENDBRANCH   1   2
BRANCH   1   6
ATOM      6  C   UNL     1       4.963   1.699   0.911  1.00  0.00     0.047 C 
BRANCH   6   7
ATOM      7  C   UNL     1       5.744   0.465   0.981  1.00  0.00    -0.047 A 
ATOM      8  C   UNL     1       5.728  -0.314   2.114  1.00  0.00     0.004 A 
ATOM      9  C   UNL     1       6.498   0.086  -0.105  1.00  0.00     0.004 A 
ATOM     10  C   UNL     1       6.497  -1.480   2.110  1.00  0.00     0.000 A 
ATOM     11  C   UNL     1       7.258  -1.067  -0.108  1.00  0.00     0.000 A 
ATOM     12  C   UNL     1       7.248  -1.853   1.024  1.00  0.00     0.000 A 
ENDBRANCH   6   7
ENDBRANCH   1   6
TORSDOF 4
ENDMDL
