@<TRIPOS>MOLECULE
/home/cewinharhar/GITHUB/reincatalyze/data/processed/docking_pred/2023-Apr-26-1657_maxeplen10_maxtrainstep1000_exh32_gamma099_lrac9e-4_lrcr1e-3/73f03501d88ed0f960f592fe5f6124e73644cb01_ligand_2.pdbqt
 12 12 0 0 0
SMALL
GASTEIGER

@<TRIPOS>ATOM
      1  C          8.1170   -0.8400   -1.9710 C.3     1  UNL1        0.1270
      2  C          8.3340   -1.9810   -2.8930 C.2     1  UNL1        0.3030
      3  O          9.4830   -2.4430   -3.0970 O.2     1  UNL1       -0.2520
      4  O          7.2690   -2.5690   -3.5560 O.3     1  UNL1       -0.4810
      5  H          6.4210   -2.8050   -3.0320 H       1  UNL1        0.2960
      6  C          7.3530   -1.3340   -0.7810 C.3     1  UNL1        0.0470
      7  C          6.5330   -0.3120   -0.1340 C.2     1  UNL1       -0.0470
      8  C          6.1100   -0.4680    1.1660 C.2     1  UNL1        0.0040
      9  C          6.1880    0.8180   -0.8400 C.2     1  UNL1        0.0040
     10  C          5.3310    0.5500    1.7200 C.2     1  UNL1        0.0000
     11  C          5.4170    1.8220   -0.2900 C.2     1  UNL1        0.0000
     12  C          4.9890    1.6740    1.0110 C.2     1  UNL1        0.0000
@<TRIPOS>BOND
     1     4     5    1
     2     4     2    1
     3     3     2    2
     4     2     1    1
     5     1     6    1
     6     9    11    1
     7     9     7    2
     8     6     7    1
     9    11    12    2
    10     7     8    1
    11    12    10    1
    12     8    10    2
