@<TRIPOS>MOLECULE
/home/cewinharhar/GITHUB/reincatalyze/data/processed/docking_pred/2023-Apr-26-1657_maxeplen10_maxtrainstep1000_exh32_gamma099_lrac9e-4_lrcr1e-3/73f03501d88ed0f960f592fe5f6124e73644cb01_ligand_2.pdbqt
 12 12 0 0 0
SMALL
GASTEIGER

@<TRIPOS>ATOM
      1  C          8.4260   -0.5890   -2.1770 C.3     1  UNL1        0.1270
      2  C          8.4790   -1.8780   -2.9060 C.2     1  UNL1        0.3030
      3  O          9.5660   -2.4820   -3.0810 O.2     1  UNL1       -0.2520
      4  O          7.3260   -2.4520   -3.4170 O.3     1  UNL1       -0.4810
      5  H          6.8310   -3.1570   -2.8640 H       1  UNL1        0.2960
      6  C          7.0010   -0.1290   -2.1360 C.3     1  UNL1        0.0470
      7  C          6.4710    0.0480   -0.7850 C.2     1  UNL1       -0.0470
      8  C          5.8440    1.2180   -0.4230 C.2     1  UNL1        0.0040
      9  C          6.6050   -0.9720    0.1280 C.2     1  UNL1        0.0040
     10  C          5.3620    1.3180    0.8840 C.2     1  UNL1        0.0000
     11  C          6.1280   -0.8720    1.4200 C.2     1  UNL1        0.0000
     12  C          5.4990    0.2970    1.7900 C.2     1  UNL1        0.0000
@<TRIPOS>BOND
     1     4     2    1
     2     4     5    1
     3     3     2    2
     4     2     1    1
     5     1     6    1
     6     6     7    1
     7     7     8    2
     8     7     9    1
     9     8    10    1
    10     9    11    2
    11    10    12    2
    12    11    12    1
