@<TRIPOS>MOLECULE
/home/cewinharhar/GITHUB/reincatalyze/data/processed/docking_pred/2023-Apr-26-1657_maxeplen10_maxtrainstep1000_exh32_gamma099_lrac9e-4_lrcr1e-3/73f03501d88ed0f960f592fe5f6124e73644cb01_ligand_2.pdbqt
 12 12 0 0 0
SMALL
GASTEIGER

@<TRIPOS>ATOM
      1  C          4.9940    1.7920    0.7060 C.3     1  UNL1        0.1270
      2  C          4.4770    1.1100    1.9150 C.2     1  UNL1        0.3030
      3  O          5.1340    0.2010    2.4800 O.2     1  UNL1       -0.2520
      4  O          3.2510    1.4580    2.4570 O.3     1  UNL1       -0.4810
      5  H          3.0520    2.4430    2.6570 H       1  UNL1        0.2960
      6  C          6.4920    1.7680    0.7550 C.3     1  UNL1        0.0470
      7  C          7.1100    1.0130   -0.3330 C.2     1  UNL1       -0.0470
      8  C          6.3830    0.0930   -1.0530 C.2     1  UNL1        0.0040
      9  C          8.4340    1.2320   -0.6350 C.2     1  UNL1        0.0040
     10  C          7.0390   -0.5920   -2.0790 C.2     1  UNL1        0.0000
     11  C          9.0810    0.5550   -1.6490 C.2     1  UNL1        0.0000
     12  C          8.3600   -0.3690   -2.3750 C.2     1  UNL1        0.0000
@<TRIPOS>BOND
     1    12    10    2
     2    12    11    1
     3    10     8    1
     4    11     9    2
     5     8     7    2
     6     9     7    1
     7     7     6    1
     8     1     6    1
     9     1     2    1
    10     2     4    1
    11     2     3    2
    12     4     5    1
