@<TRIPOS>MOLECULE
/home/cewinharhar/GITHUB/reincatalyze/data/processed/docking_pred/2023-Apr-26-1657_maxeplen10_maxtrainstep1000_exh32_gamma099_lrac9e-4_lrcr1e-3/73f03501d88ed0f960f592fe5f6124e73644cb01_ligand_2.pdbqt
 12 12 0 0 0
SMALL
GASTEIGER

@<TRIPOS>ATOM
      1  C          5.5440    2.7370   -0.0010 C.3     1  UNL1        0.1270
      2  C          6.2270    3.7570    0.8290 C.2     1  UNL1        0.3030
      3  O          6.1600    3.7270    2.0820 O.2     1  UNL1       -0.2520
      4  O          6.9610    4.7750    0.2410 O.3     1  UNL1       -0.4810
      5  H          7.9180    4.5870   -0.0700 H       1  UNL1        0.2960
      6  C          4.9630    1.6990    0.9110 C.3     1  UNL1        0.0470
      7  C          5.7440    0.4650    0.9810 C.2     1  UNL1       -0.0470
      8  C          5.7280   -0.3140    2.1140 C.2     1  UNL1        0.0040
      9  C          6.4980    0.0860   -0.1050 C.2     1  UNL1        0.0040
     10  C          6.4970   -1.4800    2.1100 C.2     1  UNL1        0.0000
     11  C          7.2580   -1.0670   -0.1080 C.2     1  UNL1        0.0000
     12  C          7.2480   -1.8530    1.0240 C.2     1  UNL1        0.0000
@<TRIPOS>BOND
     1    11     9    1
     2    11    12    2
     3     9     7    2
     4     5     4    1
     5     1     2    1
     6     1     6    1
     7     4     2    1
     8     2     3    2
     9     6     7    1
    10     7     8    1
    11    12    10    1
    12    10     8    2
