@<TRIPOS>MOLECULE
/home/cewinharhar/GITHUB/reincatalyze/data/processed/docking_pred/2023-Apr-26-1657_maxeplen10_maxtrainstep1000_exh32_gamma099_lrac9e-4_lrcr1e-3/7473f82790d6809f011fa27bf7bcba9a4b9bdb46_ligand_2.pdbqt
 12 12 0 0 0
SMALL
GASTEIGER

@<TRIPOS>ATOM
      1  C          8.0690   -6.4630   10.7120 C.3     1  UNL1        0.1270
      2  C          8.3100   -5.0240   10.9710 C.2     1  UNL1        0.3030
      3  O          7.6350   -4.1360   10.3930 O.2     1  UNL1       -0.2520
      4  O          9.2930   -4.6170   11.8590 O.3     1  UNL1       -0.4810
      5  H          9.0830   -3.8750   12.5330 H       1  UNL1        0.2960
      6  C          8.4840   -7.2350   11.9270 C.3     1  UNL1        0.0470
      7  C          9.3900   -8.3470   11.6430 C.2     1  UNL1       -0.0470
      8  C         10.3360   -8.2480   10.6500 C.2     1  UNL1        0.0040
      9  C          9.2900   -9.5010   12.3850 C.2     1  UNL1        0.0040
     10  C         11.1680   -9.3480   10.4340 C.2     1  UNL1        0.0000
     11  C         10.1130  -10.5880   12.1710 C.2     1  UNL1        0.0000
     12  C         11.0630  -10.4970   11.1770 C.2     1  UNL1        0.0000
@<TRIPOS>BOND
     1     3     2    2
     2    10     8    1
     3    10    12    2
     4     8     7    2
     5     1     2    1
     6     1     6    1
     7     2     4    1
     8    12    11    1
     9     7     6    1
    10     7     9    1
    11     4     5    1
    12    11     9    2
