@<TRIPOS>MOLECULE
/home/cewinharhar/GITHUB/reincatalyze/data/processed/docking_pred/2023-Apr-26-1657_maxeplen10_maxtrainstep1000_exh32_gamma099_lrac9e-4_lrcr1e-3/7473f82790d6809f011fa27bf7bcba9a4b9bdb46_ligand_2.pdbqt
 12 12 0 0 0
SMALL
GASTEIGER

@<TRIPOS>ATOM
      1  C          8.7210   -5.6400   11.7350 C.3     1  UNL1        0.1270
      2  C          7.8150   -4.5180   11.3940 C.2     1  UNL1        0.3030
      3  O          7.6780   -4.1310   10.2070 O.2     1  UNL1       -0.2520
      4  O          7.0930   -3.8630   12.3780 O.3     1  UNL1       -0.4810
      5  H          6.9200   -4.3350   13.2700 H       1  UNL1        0.2960
      6  C          8.8700   -6.5100   10.5250 C.3     1  UNL1        0.0470
      7  C         10.1380   -7.2360   10.4660 C.2     1  UNL1       -0.0470
      8  C         11.3310   -6.5590   10.3630 C.2     1  UNL1        0.0040
      9  C         10.1280   -8.6100   10.5180 C.2     1  UNL1        0.0040
     10  C         12.5040   -7.3160   10.3130 C.2     1  UNL1        0.0000
     11  C         11.2880   -9.3570   10.4680 C.2     1  UNL1        0.0000
     12  C         12.4880   -8.6870   10.3640 C.2     1  UNL1        0.0000
@<TRIPOS>BOND
     1     3     2    2
     2    10     8    1
     3    10    12    2
     4     8     7    2
     5    12    11    1
     6     7     9    1
     7     7     6    1
     8    11     9    2
     9     6     1    1
    10     2     1    1
    11     2     4    1
    12     4     5    1
