@<TRIPOS>MOLECULE
/home/cewinharhar/GITHUB/reincatalyze/data/processed/docking_pred/2023-Apr-26-1657_maxeplen10_maxtrainstep1000_exh32_gamma099_lrac9e-4_lrcr1e-3/7473f82790d6809f011fa27bf7bcba9a4b9bdb46_ligand_2.pdbqt
 12 12 0 0 0
SMALL
GASTEIGER

@<TRIPOS>ATOM
      1  C          6.5120   -0.5480    2.7700 C.3     1  UNL1        0.1270
      2  C          7.1820   -1.5380    1.8940 C.2     1  UNL1        0.3030
      3  O          8.3450   -1.3420    1.4610 O.2     1  UNL1       -0.2520
      4  O          6.5410   -2.7100    1.5260 O.3     1  UNL1       -0.4810
      5  H          7.0100   -3.6070    1.6780 H       1  UNL1        0.2960
      6  C          5.3360    0.0140    2.0310 C.3     1  UNL1        0.0470
      7  C          5.5920    1.3100    1.4040 C.2     1  UNL1       -0.0470
      8  C          6.5780    2.1410    1.8840 C.2     1  UNL1        0.0040
      9  C          4.8350    1.6930    0.3210 C.2     1  UNL1        0.0040
     10  C          6.7680    3.3630    1.2350 C.2     1  UNL1        0.0000
     11  C          5.0240    2.9020   -0.3190 C.2     1  UNL1        0.0000
     12  C          6.0090    3.7400    0.1560 C.2     1  UNL1        0.0000
@<TRIPOS>BOND
     1    11    12    2
     2    11     9    1
     3    12    10    1
     4     9     7    2
     5    10     8    2
     6     7     8    1
     7     7     6    1
     8     3     2    2
     9     4     5    1
    10     4     2    1
    11     2     1    1
    12     6     1    1
