@<TRIPOS>MOLECULE
/home/cewinharhar/GITHUB/reincatalyze/data/processed/docking_pred/2023-Apr-26-1657_maxeplen10_maxtrainstep1000_exh32_gamma099_lrac9e-4_lrcr1e-3/7473f82790d6809f011fa27bf7bcba9a4b9bdb46_ligand_2.pdbqt
 12 12 0 0 0
SMALL
GASTEIGER

@<TRIPOS>ATOM
      1  C          6.4240   -0.5110    2.7460 C.3     1  UNL1        0.1270
      2  C          7.1370   -1.4930    1.8950 C.2     1  UNL1        0.3030
      3  O          8.3040   -1.2740    1.4860 O.2     1  UNL1       -0.2520
      4  O          6.5320   -2.6840    1.5260 O.3     1  UNL1       -0.4810
      5  H          5.5270   -2.6970    1.3350 H       1  UNL1        0.2960
      6  C          5.2790    0.0490    1.9590 C.3     1  UNL1        0.0470
      7  C          5.5600    1.3430    1.3380 C.2     1  UNL1       -0.0470
      8  C          4.8910    1.7380    0.2030 C.2     1  UNL1        0.0040
      9  C          6.5040    2.1680    1.9050 C.2     1  UNL1        0.0040
     10  C          5.2100    2.9870   -0.3350 C.2     1  UNL1        0.0000
     11  C          6.8180    3.4020    1.3710 C.2     1  UNL1        0.0000
     12  C          6.1530    3.8060    0.2340 C.2     1  UNL1        0.0000
@<TRIPOS>BOND
     1    10     8    1
     2    10    12    2
     3     8     7    2
     4    12    11    1
     5     5     4    1
     6     7     9    1
     7     7     6    1
     8    11     9    2
     9     3     2    2
    10     4     2    1
    11     2     1    1
    12     6     1    1
