@<TRIPOS>MOLECULE
/home/cewinharhar/GITHUB/reincatalyze/data/processed/docking_pred/2023-Apr-26-1657_maxeplen10_maxtrainstep1000_exh32_gamma099_lrac9e-4_lrcr1e-3/7473f82790d6809f011fa27bf7bcba9a4b9bdb46_ligand_2.pdbqt
 12 12 0 0 0
SMALL
GASTEIGER

@<TRIPOS>ATOM
      1  C          8.1020   -6.1530   11.3310 C.3     1  UNL1        0.1270
      2  C          8.2400   -4.6920   11.5350 C.2     1  UNL1        0.3030
      3  O          7.4920   -3.8780   10.9380 O.2     1  UNL1       -0.2520
      4  O          9.2020   -4.1820   12.3920 O.3     1  UNL1       -0.4810
      5  H          8.9740   -3.3740   12.9770 H       1  UNL1        0.2960
      6  C          8.9000   -6.5380   10.1230 C.3     1  UNL1        0.0470
      7  C         10.1500   -7.2290   10.4320 C.2     1  UNL1       -0.0470
      8  C         10.1640   -8.5810   10.6820 C.2     1  UNL1        0.0040
      9  C         11.3230   -6.5100   10.4690 C.2     1  UNL1        0.0040
     10  C         11.3950   -9.1760   10.9690 C.2     1  UNL1        0.0000
     11  C         12.5390   -7.0990   10.7530 C.2     1  UNL1        0.0000
     12  C         12.5610   -8.4540   11.0050 C.2     1  UNL1        0.0000
@<TRIPOS>BOND
     1     6     7    1
     2     6     1    1
     3     7     9    2
     4     7     8    1
     5     9    11    1
     6     8    10    2
     7    11    12    2
     8     3     2    2
     9    10    12    1
    10     1     2    1
    11     2     4    1
    12     4     5    1
