MODEL 1
REMARK VINA RESULT:      -5.5      0.000      0.000
REMARK SMILES O=C(O)CCc1ccccc1
REMARK SMILES IDX 4 1 2 2 1 3 3 4 5 6 6 7 7 8 11 9 8 10 10 11 9 12
REMARK H PARENT 3 5
REMARK Flexibility Score: inf
ROOT
ATOM      1  C   UNL     1       6.424  -0.511   2.746  1.00  0.00     0.127 C 
ENDROOT
BRANCH   1   2
ATOM      2  C   UNL     1       7.137  -1.493   1.895  1.00  0.00     0.303 C 
ATOM      3  O   UNL     1       8.304  -1.274   1.486  1.00  0.00    -0.252 OA
BRANCH   2   4
ATOM      4  O   UNL     1       6.532  -2.684   1.526  1.00  0.00    -0.481 OA
ATOM      5  H   UNL     1       5.527  -2.697   1.335  1.00  0.00     0.296 HD
ENDBRANCH   2   4
ENDBRANCH   1   2
BRANCH   1   6
ATOM      6  C   UNL     1       5.279   0.049   1.959  1.00  0.00     0.047 C 
BRANCH   6   7
ATOM      7  C   UNL     1       5.560   1.343   1.338  1.00  0.00    -0.047 A 
ATOM      8  C   UNL     1       4.891   1.738   0.203  1.00  0.00     0.004 A 
ATOM      9  C   UNL     1       6.504   2.168   1.905  1.00  0.00     0.004 A 
ATOM     10  C   UNL     1       5.210   2.987  -0.335  1.00  0.00     0.000 A 
ATOM     11  C   UNL     1       6.818   3.402   1.371  1.00  0.00     0.000 A 
ATOM     12  C   UNL     1       6.153   3.806   0.234  1.00  0.00     0.000 A 
ENDBRANCH   6   7
ENDBRANCH   1   6
TORSDOF 4
ENDMDL
MODEL 2
REMARK VINA RESULT:      -5.5      0.120      1.439
REMARK SMILES O=C(O)CCc1ccccc1
REMARK SMILES IDX 4 1 2 2 1 3 3 4 5 6 6 7 7 8 11 9 8 10 10 11 9 12
REMARK H PARENT 3 5
REMARK Flexibility Score: inf
ROOT
ATOM      1  C   UNL     1       6.512  -0.548   2.770  1.00  0.00     0.127 C 
ENDROOT
BRANCH   1   2
ATOM      2  C   UNL     1       7.182  -1.538   1.894  1.00  0.00     0.303 C 
ATOM      3  O   UNL     1       8.345  -1.342   1.461  1.00  0.00    -0.252 OA
BRANCH   2   4
ATOM      4  O   UNL     1       6.541  -2.710   1.526  1.00  0.00    -0.481 OA
ATOM      5  H   UNL     1       7.010  -3.607   1.678  1.00  0.00     0.296 HD
ENDBRANCH   2   4
ENDBRANCH   1   2
BRANCH   1   6
ATOM      6  C   UNL     1       5.336   0.014   2.031  1.00  0.00     0.047 C 
BRANCH   6   7
ATOM      7  C   UNL     1       5.592   1.310   1.404  1.00  0.00    -0.047 A 
ATOM      8  C   UNL     1       6.578   2.141   1.884  1.00  0.00     0.004 A 
ATOM      9  C   UNL     1       4.835   1.693   0.321  1.00  0.00     0.004 A 
ATOM     10  C   UNL     1       6.768   3.363   1.235  1.00  0.00     0.000 A 
ATOM     11  C   UNL     1       5.024   2.902  -0.319  1.00  0.00     0.000 A 
ATOM     12  C   UNL     1       6.009   3.740   0.156  1.00  0.00     0.000 A 
ENDBRANCH   6   7
ENDBRANCH   1   6
TORSDOF 4
ENDMDL
MODEL 3
REMARK VINA RESULT:      -3.7     11.740     14.298
REMARK SMILES O=C(O)CCc1ccccc1
REMARK SMILES IDX 4 1 2 2 1 3 3 4 5 6 6 7 7 8 11 9 8 10 10 11 9 12
REMARK H PARENT 3 5
REMARK Flexibility Score: inf
ROOT
ATOM      1  C   UNL     1       8.069  -6.463  10.712  1.00  0.00     0.127 C 
ENDROOT
BRANCH   1   2
ATOM      2  C   UNL     1       8.310  -5.024  10.971  1.00  0.00     0.303 C 
ATOM      3  O   UNL     1       7.635  -4.136  10.393  1.00  0.00    -0.252 OA
BRANCH   2   4
ATOM      4  O   UNL     1       9.293  -4.617  11.859  1.00  0.00    -0.481 OA
ATOM      5  H   UNL     1       9.083  -3.875  12.533  1.00  0.00     0.296 HD
ENDBRANCH   2   4
ENDBRANCH   1   2
BRANCH   1   6
ATOM      6  C   UNL     1       8.484  -7.235  11.927  1.00  0.00     0.047 C 
BRANCH   6   7
ATOM      7  C   UNL     1       9.390  -8.347  11.643  1.00  0.00    -0.047 A 
ATOM      8  C   UNL     1      10.336  -8.248  10.650  1.00  0.00     0.004 A 
ATOM      9  C   UNL     1       9.290  -9.501  12.385  1.00  0.00     0.004 A 
ATOM     10  C   UNL     1      11.168  -9.348  10.434  1.00  0.00     0.000 A 
ATOM     11  C   UNL     1      10.113 -10.588  12.171  1.00  0.00     0.000 A 
ATOM     12  C   UNL     1      11.063 -10.497  11.177  1.00  0.00     0.000 A 
ENDBRANCH   6   7
ENDBRANCH   1   6
TORSDOF 4
ENDMDL
MODEL 4
REMARK VINA RESULT:      -3.7     11.906     13.503
REMARK SMILES O=C(O)CCc1ccccc1
REMARK SMILES IDX 4 1 2 2 1 3 3 4 5 6 6 7 7 8 11 9 8 10 10 11 9 12
REMARK H PARENT 3 5
REMARK Flexibility Score: inf
ROOT
ATOM      1  C   UNL     1       8.102  -6.153  11.331  1.00  0.00     0.127 C 
ENDROOT
BRANCH   1   2
ATOM      2  C   UNL     1       8.240  -4.692  11.535  1.00  0.00     0.303 C 
ATOM      3  O   UNL     1       7.492  -3.878  10.938  1.00  0.00    -0.252 OA
BRANCH   2   4
ATOM      4  O   UNL     1       9.202  -4.182  12.392  1.00  0.00    -0.481 OA
ATOM      5  H   UNL     1       8.974  -3.374  12.977  1.00  0.00     0.296 HD
ENDBRANCH   2   4
ENDBRANCH   1   2
BRANCH   1   6
ATOM      6  C   UNL     1       8.900  -6.538  10.123  1.00  0.00     0.047 C 
BRANCH   6   7
ATOM      7  C   UNL     1      10.150  -7.229  10.432  1.00  0.00    -0.047 A 
ATOM      8  C   UNL     1      10.164  -8.581  10.682  1.00  0.00     0.004 A 
ATOM      9  C   UNL     1      11.323  -6.510  10.469  1.00  0.00     0.004 A 
ATOM     10  C   UNL     1      11.395  -9.176  10.969  1.00  0.00     0.000 A 
ATOM     11  C   UNL     1      12.539  -7.099  10.753  1.00  0.00     0.000 A 
ATOM     12  C   UNL     1      12.561  -8.454  11.005  1.00  0.00     0.000 A 
ENDBRANCH   6   7
ENDBRANCH   1   6
TORSDOF 4
ENDMDL
MODEL 5
REMARK VINA RESULT:      -3.6     11.614     13.408
REMARK SMILES O=C(O)CCc1ccccc1
REMARK SMILES IDX 4 1 2 2 1 3 3 4 5 6 6 7 7 8 11 9 8 10 10 11 9 12
REMARK H PARENT 3 5
REMARK Flexibility Score: inf
ROOT
ATOM      1  C   UNL     1       8.721  -5.640  11.735  1.00  0.00     0.127 C 
ENDROOT
BRANCH   1   2
ATOM      2  C   UNL     1       7.815  -4.518  11.394  1.00  0.00     0.303 C 
ATOM      3  O   UNL     1       7.678  -4.131  10.207  1.00  0.00    -0.252 OA
BRANCH   2   4
ATOM      4  O   UNL     1       7.093  -3.863  12.378  1.00  0.00    -0.481 OA
ATOM      5  H   UNL     1       6.920  -4.335  13.270  1.00  0.00     0.296 HD
ENDBRANCH   2   4
ENDBRANCH   1   2
BRANCH   1   6
ATOM      6  C   UNL     1       8.870  -6.510  10.525  1.00  0.00     0.047 C 
BRANCH   6   7
ATOM      7  C   UNL     1      10.138  -7.236  10.466  1.00  0.00    -0.047 A 
ATOM      8  C   UNL     1      11.331  -6.559  10.363  1.00  0.00     0.004 A 
ATOM      9  C   UNL     1      10.128  -8.610  10.518  1.00  0.00     0.004 A 
ATOM     10  C   UNL     1      12.504  -7.316  10.313  1.00  0.00     0.000 A 
ATOM     11  C   UNL     1      11.288  -9.357  10.468  1.00  0.00     0.000 A 
ATOM     12  C   UNL     1      12.488  -8.687  10.364  1.00  0.00     0.000 A 
ENDBRANCH   6   7
ENDBRANCH   1   6
TORSDOF 4
ENDMDL
