@<TRIPOS>MOLECULE
/home/cewinharhar/GITHUB/reincatalyze/data/processed/docking_pred/2023-Apr-26-1657_maxeplen10_maxtrainstep1000_exh32_gamma099_lrac9e-4_lrcr1e-3/76d14433275938f70f74ce69856b36729c59e426_ligand_2.pdbqt
 12 12 0 0 0
SMALL
GASTEIGER

@<TRIPOS>ATOM
      1  C          8.3980   -0.5820   -2.1930 C.3     1  UNL1        0.1270
      2  C          8.4610   -1.8780   -2.9090 C.2     1  UNL1        0.3030
      3  O          9.5530   -2.4760   -3.0780 O.2     1  UNL1       -0.2520
      4  O          7.3130   -2.4670   -3.4130 O.3     1  UNL1       -0.4810
      5  H          6.5100   -2.6100   -2.7940 H       1  UNL1        0.2960
      6  C          6.9670   -0.1430   -2.1380 C.3     1  UNL1        0.0470
      7  C          6.4510    0.0370   -0.7820 C.2     1  UNL1       -0.0470
      8  C          5.8390    1.2120   -0.4130 C.2     1  UNL1        0.0040
      9  C          6.5830   -0.9860    0.1280 C.2     1  UNL1        0.0040
     10  C          5.3700    1.3140    0.8990 C.2     1  UNL1        0.0000
     11  C          6.1190   -0.8840    1.4240 C.2     1  UNL1        0.0000
     12  C          5.5050    0.2900    1.8020 C.2     1  UNL1        0.0000
@<TRIPOS>BOND
     1     4     2    1
     2     4     5    1
     3     3     2    2
     4     2     1    1
     5     1     6    1
     6     6     7    1
     7     7     8    2
     8     7     9    1
     9     8    10    1
    10     9    11    2
    11    10    12    2
    12    11    12    1
