@<TRIPOS>MOLECULE
/home/cewinharhar/GITHUB/reincatalyze/data/processed/docking_pred/2023-Apr-26-1657_maxeplen10_maxtrainstep1000_exh32_gamma099_lrac9e-4_lrcr1e-3/76d14433275938f70f74ce69856b36729c59e426_ligand_2.pdbqt
 12 12 0 0 0
SMALL
GASTEIGER

@<TRIPOS>ATOM
      1  C          5.4240    2.8640    0.0130 C.3     1  UNL1        0.1270
      2  C          6.2270    3.8230    0.8070 C.2     1  UNL1        0.3030
      3  O          6.8370    4.7730    0.2570 O.2     1  UNL1       -0.2520
      4  O          6.3270    3.6960    2.1830 O.3     1  UNL1       -0.4810
      5  H          5.6640    3.0960    2.6810 H       1  UNL1        0.2960
      6  C          4.9140    1.7990    0.9350 C.3     1  UNL1        0.0470
      7  C          5.7130    0.5740    0.9280 C.2     1  UNL1       -0.0470
      8  C          6.3860    0.1800   -0.2050 C.2     1  UNL1        0.0040
      9  C          5.7890   -0.1840    2.0730 C.2     1  UNL1        0.0040
     10  C          7.1310   -1.0000   -0.1390 C.2     1  UNL1        0.0000
     11  C          6.5250   -1.3510    2.1370 C.2     1  UNL1        0.0000
     12  C          7.2020   -1.7530    1.0060 C.2     1  UNL1        0.0000
@<TRIPOS>BOND
     1     8    10    1
     2     8     7    2
     3    10    12    2
     4     1     2    1
     5     1     6    1
     6     3     2    2
     7     2     4    1
     8     7     6    1
     9     7     9    1
    10    12    11    1
    11     9    11    2
    12     4     5    1
