@<TRIPOS>MOLECULE
/home/cewinharhar/GITHUB/reincatalyze/data/processed/docking_pred/2023-Apr-26-1657_maxeplen10_maxtrainstep1000_exh32_gamma099_lrac9e-4_lrcr1e-3/76d14433275938f70f74ce69856b36729c59e426_ligand_2.pdbqt
 12 12 0 0 0
SMALL
GASTEIGER

@<TRIPOS>ATOM
      1  C          7.2460   -1.2360   -2.2880 C.3     1  UNL1        0.1270
      2  C          8.7020   -1.3770   -2.5280 C.2     1  UNL1        0.3030
      3  O          9.5180   -0.5260   -2.0960 O.2     1  UNL1       -0.2520
      4  O          9.2030   -2.4550   -3.2390 O.3     1  UNL1       -0.4810
      5  H          8.9100   -2.5940   -4.2110 H       1  UNL1        0.2960
      6  C          6.9660    0.1870   -1.9120 C.3     1  UNL1        0.0470
      7  C          6.3450    0.3450   -0.5990 C.2     1  UNL1       -0.0470
      8  C          6.4780   -0.6290    0.3640 C.2     1  UNL1        0.0040
      9  C          5.6220    1.4840   -0.3300 C.2     1  UNL1        0.0040
     10  C          5.8590   -0.4120    1.5970 C.2     1  UNL1        0.0000
     11  C          5.0090    1.6970    0.8890 C.2     1  UNL1        0.0000
     12  C          5.1380    0.7260    1.8580 C.2     1  UNL1        0.0000
@<TRIPOS>BOND
     1     5     4    1
     2     4     2    1
     3     2     1    1
     4     2     3    2
     5     1     6    1
     6     6     7    1
     7     7     9    2
     8     7     8    1
     9     9    11    1
    10     8    10    2
    11    11    12    2
    12    10    12    1
