@<TRIPOS>MOLECULE
/home/cewinharhar/GITHUB/reincatalyze/data/processed/docking_pred/2023-Apr-26-1657_maxeplen10_maxtrainstep1000_exh32_gamma099_lrac9e-4_lrcr1e-3/76d14433275938f70f74ce69856b36729c59e426_ligand_2.pdbqt
 12 12 0 0 0
SMALL
GASTEIGER

@<TRIPOS>ATOM
      1  C          8.4200   -0.5640   -2.2290 C.3     1  UNL1        0.1270
      2  C          8.4670   -1.8710   -2.9260 C.2     1  UNL1        0.3030
      3  O          9.5510   -2.4840   -3.0850 O.2     1  UNL1       -0.2520
      4  O          7.3120   -2.4530   -3.4220 O.3     1  UNL1       -0.4810
      5  H          7.3770   -3.3360   -3.9360 H       1  UNL1        0.2960
      6  C          6.9910   -0.1160   -2.1640 C.3     1  UNL1        0.0470
      7  C          6.4770    0.0360   -0.8040 C.2     1  UNL1       -0.0470
      8  C          6.6030   -0.9810    0.1130 C.2     1  UNL1        0.0040
      9  C          5.8640    1.2150   -0.4470 C.2     1  UNL1        0.0040
     10  C          6.0890   -0.7660    1.3940 C.2     1  UNL1        0.0000
     11  C          5.3570    1.4260    0.8200 C.2     1  UNL1        0.0000
     12  C          5.4780    0.4110    1.7450 C.2     1  UNL1        0.0000
@<TRIPOS>BOND
     1     5     4    1
     2     4     2    1
     3     3     2    2
     4     2     1    1
     5     1     6    1
     6     6     7    1
     7     7     9    2
     8     7     8    1
     9     9    11    1
    10     8    10    2
    11    11    12    2
    12    10    12    1
