@<TRIPOS>MOLECULE
/home/cewinharhar/GITHUB/reincatalyze/data/processed/docking_pred/2023-Apr-26-1657_maxeplen10_maxtrainstep1000_exh32_gamma099_lrac9e-4_lrcr1e-3/76d14433275938f70f74ce69856b36729c59e426_ligand_2.pdbqt
 12 12 0 0 0
SMALL
GASTEIGER

@<TRIPOS>ATOM
      1  C          4.9990    1.7930    0.7070 C.3     1  UNL1        0.1270
      2  C          4.4840    1.1090    1.9160 C.2     1  UNL1        0.3030
      3  O          5.1430    0.2010    2.4820 O.2     1  UNL1       -0.2520
      4  O          3.2560    1.4530    2.4580 O.3     1  UNL1       -0.4810
      5  H          2.4560    0.8270    2.3260 H       1  UNL1        0.2960
      6  C          6.4960    1.7690    0.7550 C.3     1  UNL1        0.0470
      7  C          7.1140    1.0170   -0.3370 C.2     1  UNL1       -0.0470
      8  C          6.3830    0.1100   -1.0680 C.2     1  UNL1        0.0040
      9  C          8.4410    1.2280   -0.6300 C.2     1  UNL1        0.0040
     10  C          7.0380   -0.5710   -2.0960 C.2     1  UNL1        0.0000
     11  C          9.0870    0.5540   -1.6460 C.2     1  UNL1        0.0000
     12  C          8.3620   -0.3580   -2.3830 C.2     1  UNL1        0.0000
@<TRIPOS>BOND
     1    12    10    2
     2    12    11    1
     3    10     8    1
     4    11     9    2
     5     8     7    2
     6     9     7    1
     7     7     6    1
     8     1     6    1
     9     1     2    1
    10     2     4    1
    11     2     3    2
    12     5     4    1
