@<TRIPOS>MOLECULE
/home/cewinharhar/GITHUB/reincatalyze/data/processed/docking_pred/2023-Apr-26-1657_maxeplen10_maxtrainstep1000_exh32_gamma099_lrac9e-4_lrcr1e-3/777751631f294be45381376aa4be6161cfc72981_ligand_2.pdbqt
 12 12 0 0 0
SMALL
GASTEIGER

@<TRIPOS>ATOM
      1  C          8.4300   -0.6180   -2.1460 C.3     1  UNL1        0.1270
      2  C          8.4580   -1.8960   -2.8960 C.2     1  UNL1        0.3030
      3  O          9.5310   -2.5250   -3.0710 O.2     1  UNL1       -0.2520
      4  O          7.2960   -2.4330   -3.4270 O.3     1  UNL1       -0.4810
      5  H          7.0570   -3.4070   -3.2250 H       1  UNL1        0.2960
      6  C          7.0150   -0.1280   -2.1030 C.3     1  UNL1        0.0470
      7  C          6.4730    0.0110   -0.7520 C.2     1  UNL1       -0.0470
      8  C          6.5910   -1.0120    0.1600 C.2     1  UNL1        0.0040
      9  C          5.8430    1.1810   -0.3980 C.2     1  UNL1        0.0040
     10  C          6.0510   -0.8100    1.4330 C.2     1  UNL1        0.0000
     11  C          5.3100    1.3790    0.8600 C.2     1  UNL1        0.0000
     12  C          5.4230    0.3590    1.7800 C.2     1  UNL1        0.0000
@<TRIPOS>BOND
     1     4     5    1
     2     4     2    1
     3     3     2    2
     4     2     1    1
     5     1     6    1
     6     6     7    1
     7     7     9    2
     8     7     8    1
     9     9    11    1
    10     8    10    2
    11    11    12    2
    12    10    12    1
