@<TRIPOS>MOLECULE
/home/cewinharhar/GITHUB/reincatalyze/data/processed/docking_pred/2023-Apr-26-1657_maxeplen10_maxtrainstep1000_exh32_gamma099_lrac9e-4_lrcr1e-3/777751631f294be45381376aa4be6161cfc72981_ligand_2.pdbqt
 12 12 0 0 0
SMALL
GASTEIGER

@<TRIPOS>ATOM
      1  C          5.0060    1.7940    0.6810 C.3     1  UNL1        0.1270
      2  C          4.5000    1.1150    1.8970 C.2     1  UNL1        0.3030
      3  O          5.1670    0.2150    2.4650 O.2     1  UNL1       -0.2520
      4  O          3.2740    1.4570    2.4440 O.3     1  UNL1       -0.4810
      5  H          2.4580    1.5400    1.8300 H       1  UNL1        0.2960
      6  C          6.5030    1.8110    0.7390 C.3     1  UNL1        0.0470
      7  C          7.1480    1.0580   -0.3360 C.2     1  UNL1       -0.0470
      8  C          8.4780    1.2500   -0.6290 C.2     1  UNL1        0.0040
      9  C          6.4080    0.1480   -1.0560 C.2     1  UNL1        0.0040
     10  C          9.0290    0.4960   -1.6670 C.2     1  UNL1        0.0000
     11  C          6.9540   -0.5960   -2.0830 C.2     1  UNL1        0.0000
     12  C          8.2860   -0.4090   -2.3830 C.2     1  UNL1        0.0000
@<TRIPOS>BOND
     1    12    11    2
     2    12    10    1
     3    11     9    1
     4    10     8    2
     5     9     7    2
     6     8     7    1
     7     7     6    1
     8     1     6    1
     9     1     2    1
    10     5     4    1
    11     2     4    1
    12     2     3    2
