@<TRIPOS>MOLECULE
/home/cewinharhar/GITHUB/reincatalyze/data/processed/docking_pred/2023-Apr-26-1657_maxeplen10_maxtrainstep1000_exh32_gamma099_lrac9e-4_lrcr1e-3/777751631f294be45381376aa4be6161cfc72981_ligand_2.pdbqt
 12 12 0 0 0
SMALL
GASTEIGER

@<TRIPOS>ATOM
      1  C          5.5900    2.8370   -0.0790 C.3     1  UNL1        0.1270
      2  C          6.2840    3.8360    0.7680 C.2     1  UNL1        0.3030
      3  O          6.9440    4.7750    0.2580 O.2     1  UNL1       -0.2520
      4  O          6.2250    3.7590    2.1500 O.3     1  UNL1       -0.4810
      5  H          6.2710    2.8420    2.6030 H       1  UNL1        0.2960
      6  C          4.9590    1.8160    0.8180 C.3     1  UNL1        0.0470
      7  C          5.7180    0.5710    0.9270 C.2     1  UNL1       -0.0470
      8  C          5.7640   -0.1230    2.1140 C.2     1  UNL1        0.0040
      9  C          6.3880    0.0950   -0.1760 C.2     1  UNL1        0.0040
     10  C          6.5080   -1.3050    2.1450 C.2     1  UNL1        0.0000
     11  C          7.1230   -1.0740   -0.1430 C.2     1  UNL1        0.0000
     12  C          7.1750   -1.7750    1.0420 C.2     1  UNL1        0.0000
@<TRIPOS>BOND
     1     9    11    1
     2     9     7    2
     3    11    12    2
     4     1     2    1
     5     1     6    1
     6     3     2    2
     7     2     4    1
     8     6     7    1
     9     7     8    1
    10    12    10    1
    11     8    10    2
    12     4     5    1
