@<TRIPOS>MOLECULE
/home/cewinharhar/GITHUB/reincatalyze/data/processed/docking_pred/2023-Apr-26-1657_maxeplen10_maxtrainstep1000_exh32_gamma099_lrac9e-4_lrcr1e-3/777751631f294be45381376aa4be6161cfc72981_ligand_2.pdbqt
 12 12 0 0 0
SMALL
GASTEIGER

@<TRIPOS>ATOM
      1  C          8.2000    0.2270   -2.2150 C.3     1  UNL1        0.1270
      2  C          9.3270    0.3680   -1.2630 C.2     1  UNL1        0.3030
      3  O          9.4470   -0.4030   -0.2780 O.2     1  UNL1       -0.2520
      4  O         10.2820    1.3570   -1.4340 O.3     1  UNL1       -0.4810
      5  H         10.0090    2.2500   -1.8540 H       1  UNL1        0.2960
      6  C          7.0970   -0.5220   -1.5310 C.3     1  UNL1        0.0470
      7  C          6.3270    0.2850   -0.5860 C.2     1  UNL1       -0.0470
      8  C          6.1200   -0.1480    0.7030 C.2     1  UNL1        0.0040
      9  C          5.8100    1.4910   -0.9990 C.2     1  UNL1        0.0040
     10  C          5.3760    0.6750    1.5510 C.2     1  UNL1        0.0000
     11  C          5.0740    2.3030   -0.1590 C.2     1  UNL1        0.0000
     12  C          4.8610    1.8760    1.1340 C.2     1  UNL1        0.0000
@<TRIPOS>BOND
     1     1     6    1
     2     1     2    1
     3     5     4    1
     4     6     7    1
     5     4     2    1
     6     2     3    2
     7     9     7    2
     8     9    11    1
     9     7     8    1
    10    11    12    2
    11     8    10    2
    12    12    10    1
