MODEL 1
REMARK VINA RESULT:      -7.3      0.000      0.000
REMARK SMILES O=C(O)CCc1ccccc1
REMARK SMILES IDX 4 1 2 2 1 3 3 4 5 6 6 7 7 8 11 9 8 10 10 11 9 12
REMARK H PARENT 3 5
REMARK Flexibility Score: inf
ROOT
ATOM      1  C   UNL     1       8.430  -0.618  -2.146  1.00  0.00     0.127 C 
ENDROOT
BRANCH   1   2
ATOM      2  C   UNL     1       8.458  -1.896  -2.896  1.00  0.00     0.303 C 
ATOM      3  O   UNL     1       9.531  -2.525  -3.071  1.00  0.00    -0.252 OA
BRANCH   2   4
ATOM      4  O   UNL     1       7.296  -2.433  -3.427  1.00  0.00    -0.481 OA
ATOM      5  H   UNL     1       7.057  -3.407  -3.225  1.00  0.00     0.296 HD
ENDBRANCH   2   4
ENDBRANCH   1   2
BRANCH   1   6
ATOM      6  C   UNL     1       7.015  -0.128  -2.103  1.00  0.00     0.047 C 
BRANCH   6   7
ATOM      7  C   UNL     1       6.473   0.011  -0.752  1.00  0.00    -0.047 A 
ATOM      8  C   UNL     1       6.591  -1.012   0.160  1.00  0.00     0.004 A 
ATOM      9  C   UNL     1       5.843   1.181  -0.398  1.00  0.00     0.004 A 
ATOM     10  C   UNL     1       6.051  -0.810   1.433  1.00  0.00     0.000 A 
ATOM     11  C   UNL     1       5.310   1.379   0.860  1.00  0.00     0.000 A 
ATOM     12  C   UNL     1       5.423   0.359   1.780  1.00  0.00     0.000 A 
ENDBRANCH   6   7
ENDBRANCH   1   6
TORSDOF 4
ENDMDL
MODEL 2
REMARK VINA RESULT:      -7.2      0.115      1.731
REMARK SMILES O=C(O)CCc1ccccc1
REMARK SMILES IDX 4 1 2 2 1 3 3 4 5 6 6 7 7 8 11 9 8 10 10 11 9 12
REMARK H PARENT 3 5
REMARK Flexibility Score: inf
ROOT
ATOM      1  C   UNL     1       8.402  -0.583  -2.158  1.00  0.00     0.127 C 
ENDROOT
BRANCH   1   2
ATOM      2  C   UNL     1       8.381  -1.869  -2.894  1.00  0.00     0.303 C 
ATOM      3  O   UNL     1       7.298  -2.413  -3.223  1.00  0.00    -0.252 OA
BRANCH   2   4
ATOM      4  O   UNL     1       9.561  -2.509  -3.239  1.00  0.00    -0.481 OA
ATOM      5  H   UNL     1      10.251  -2.013  -3.810  1.00  0.00     0.296 HD
ENDBRANCH   2   4
ENDBRANCH   1   2
BRANCH   1   6
ATOM      6  C   UNL     1       7.004  -0.048  -2.106  1.00  0.00     0.047 C 
BRANCH   6   7
ATOM      7  C   UNL     1       6.469   0.089  -0.753  1.00  0.00    -0.047 A 
ATOM      8  C   UNL     1       5.842   1.248  -0.358  1.00  0.00     0.004 A 
ATOM      9  C   UNL     1       6.597  -0.960   0.129  1.00  0.00     0.004 A 
ATOM     10  C   UNL     1       5.354   1.308   0.950  1.00  0.00     0.000 A 
ATOM     11  C   UNL     1       6.114  -0.899   1.421  1.00  0.00     0.000 A 
ATOM     12  C   UNL     1       5.485   0.259   1.825  1.00  0.00     0.000 A 
ENDBRANCH   6   7
ENDBRANCH   1   6
TORSDOF 4
ENDMDL
MODEL 3
REMARK VINA RESULT:      -6.7      3.371      5.070
REMARK SMILES O=C(O)CCc1ccccc1
REMARK SMILES IDX 4 1 2 2 1 3 3 4 5 6 6 7 7 8 11 9 8 10 10 11 9 12
REMARK H PARENT 3 5
REMARK Flexibility Score: inf
ROOT
ATOM      1  C   UNL     1       5.006   1.794   0.681  1.00  0.00     0.127 C 
ENDROOT
BRANCH   1   2
ATOM      2  C   UNL     1       4.500   1.115   1.897  1.00  0.00     0.303 C 
ATOM      3  O   UNL     1       5.167   0.215   2.465  1.00  0.00    -0.252 OA
BRANCH   2   4
ATOM      4  O   UNL     1       3.274   1.457   2.444  1.00  0.00    -0.481 OA
ATOM      5  H   UNL     1       2.458   1.540   1.830  1.00  0.00     0.296 HD
ENDBRANCH   2   4
ENDBRANCH   1   2
BRANCH   1   6
ATOM      6  C   UNL     1       6.503   1.811   0.739  1.00  0.00     0.047 C 
BRANCH   6   7
ATOM      7  C   UNL     1       7.148   1.058  -0.336  1.00  0.00    -0.047 A 
ATOM      8  C   UNL     1       8.478   1.250  -0.629  1.00  0.00     0.004 A 
ATOM      9  C   UNL     1       6.408   0.148  -1.056  1.00  0.00     0.004 A 
ATOM     10  C   UNL     1       9.029   0.496  -1.667  1.00  0.00     0.000 A 
ATOM     11  C   UNL     1       6.954  -0.596  -2.083  1.00  0.00     0.000 A 
ATOM     12  C   UNL     1       8.286  -0.409  -2.383  1.00  0.00     0.000 A 
ENDBRANCH   6   7
ENDBRANCH   1   6
TORSDOF 4
ENDMDL
MODEL 4
REMARK VINA RESULT:      -6.7      3.823      4.893
REMARK SMILES O=C(O)CCc1ccccc1
REMARK SMILES IDX 4 1 2 2 1 3 3 4 5 6 6 7 7 8 11 9 8 10 10 11 9 12
REMARK H PARENT 3 5
REMARK Flexibility Score: inf
ROOT
ATOM      1  C   UNL     1       5.590   2.837  -0.079  1.00  0.00     0.127 C 
ENDROOT
BRANCH   1   2
ATOM      2  C   UNL     1       6.284   3.836   0.768  1.00  0.00     0.303 C 
ATOM      3  O   UNL     1       6.944   4.775   0.258  1.00  0.00    -0.252 OA
BRANCH   2   4
ATOM      4  O   UNL     1       6.225   3.759   2.150  1.00  0.00    -0.481 OA
ATOM      5  H   UNL     1       6.271   2.842   2.603  1.00  0.00     0.296 HD
ENDBRANCH   2   4
ENDBRANCH   1   2
BRANCH   1   6
ATOM      6  C   UNL     1       4.959   1.816   0.818  1.00  0.00     0.047 C 
BRANCH   6   7
ATOM      7  C   UNL     1       5.718   0.571   0.927  1.00  0.00    -0.047 A 
ATOM      8  C   UNL     1       5.764  -0.123   2.114  1.00  0.00     0.004 A 
ATOM      9  C   UNL     1       6.388   0.095  -0.176  1.00  0.00     0.004 A 
ATOM     10  C   UNL     1       6.508  -1.305   2.145  1.00  0.00     0.000 A 
ATOM     11  C   UNL     1       7.123  -1.074  -0.143  1.00  0.00     0.000 A 
ATOM     12  C   UNL     1       7.175  -1.775   1.042  1.00  0.00     0.000 A 
ENDBRANCH   6   7
ENDBRANCH   1   6
TORSDOF 4
ENDMDL
MODEL 5
REMARK VINA RESULT:      -6.6      1.925      2.313
REMARK SMILES O=C(O)CCc1ccccc1
REMARK SMILES IDX 4 1 2 2 1 3 3 4 5 6 6 7 7 8 11 9 8 10 10 11 9 12
REMARK H PARENT 3 5
REMARK Flexibility Score: inf
ROOT
ATOM      1  C   UNL     1       8.200   0.227  -2.215  1.00  0.00     0.127 C 
ENDROOT
BRANCH   1   2
ATOM      2  C   UNL     1       9.327   0.368  -1.263  1.00  0.00     0.303 C 
ATOM      3  O   UNL     1       9.447  -0.403  -0.278  1.00  0.00    -0.252 OA
BRANCH   2   4
ATOM      4  O   UNL     1      10.282   1.357  -1.434  1.00  0.00    -0.481 OA
ATOM      5  H   UNL     1      10.009   2.250  -1.854  1.00  0.00     0.296 HD
ENDBRANCH   2   4
ENDBRANCH   1   2
BRANCH   1   6
ATOM      6  C   UNL     1       7.097  -0.522  -1.531  1.00  0.00     0.047 C 
BRANCH   6   7
ATOM      7  C   UNL     1       6.327   0.285  -0.586  1.00  0.00    -0.047 A 
ATOM      8  C   UNL     1       6.120  -0.148   0.703  1.00  0.00     0.004 A 
ATOM      9  C   UNL     1       5.810   1.491  -0.999  1.00  0.00     0.004 A 
ATOM     10  C   UNL     1       5.376   0.675   1.551  1.00  0.00     0.000 A 
ATOM     11  C   UNL     1       5.074   2.303  -0.159  1.00  0.00     0.000 A 
ATOM     12  C   UNL     1       4.861   1.876   1.134  1.00  0.00     0.000 A 
ENDBRANCH   6   7
ENDBRANCH   1   6
TORSDOF 4
ENDMDL
