@<TRIPOS>MOLECULE
/home/cewinharhar/GITHUB/reincatalyze/data/processed/docking_pred/2023-Apr-26-1657_maxeplen10_maxtrainstep1000_exh32_gamma099_lrac9e-4_lrcr1e-3/777751631f294be45381376aa4be6161cfc72981_ligand_2.pdbqt
 12 12 0 0 0
SMALL
GASTEIGER

@<TRIPOS>ATOM
      1  C          8.4020   -0.5830   -2.1580 C.3     1  UNL1        0.1270
      2  C          8.3810   -1.8690   -2.8940 C.2     1  UNL1        0.3030
      3  O          7.2980   -2.4130   -3.2230 O.2     1  UNL1       -0.2520
      4  O          9.5610   -2.5090   -3.2390 O.3     1  UNL1       -0.4810
      5  H         10.2510   -2.0130   -3.8100 H       1  UNL1        0.2960
      6  C          7.0040   -0.0480   -2.1060 C.3     1  UNL1        0.0470
      7  C          6.4690    0.0890   -0.7530 C.2     1  UNL1       -0.0470
      8  C          5.8420    1.2480   -0.3580 C.2     1  UNL1        0.0040
      9  C          6.5970   -0.9600    0.1290 C.2     1  UNL1        0.0040
     10  C          5.3540    1.3080    0.9500 C.2     1  UNL1        0.0000
     11  C          6.1140   -0.8990    1.4210 C.2     1  UNL1        0.0000
     12  C          5.4850    0.2590    1.8250 C.2     1  UNL1        0.0000
@<TRIPOS>BOND
     1     5     4    1
     2     4     2    1
     3     3     2    2
     4     2     1    1
     5     1     6    1
     6     6     7    1
     7     7     8    2
     8     7     9    1
     9     8    10    1
    10     9    11    2
    11    10    12    2
    12    11    12    1
