@<TRIPOS>MOLECULE
/home/cewinharhar/GITHUB/reincatalyze/data/processed/docking_pred/2023-Apr-26-1657_maxeplen10_maxtrainstep1000_exh32_gamma099_lrac9e-4_lrcr1e-3/79094ef31ed65e340e791eab6f4e997ef8bc8970_ligand_2.pdbqt
 12 12 0 0 0
SMALL
GASTEIGER

@<TRIPOS>ATOM
      1  C          8.4350   -0.6370   -2.1210 C.3     1  UNL1        0.1270
      2  C          8.4640   -1.9100   -2.8780 C.2     1  UNL1        0.3030
      3  O          9.5350   -2.5470   -3.0400 O.2     1  UNL1       -0.2520
      4  O          7.3070   -2.4350   -3.4300 O.3     1  UNL1       -0.4810
      5  H          6.4640   -1.8540   -3.4720 H       1  UNL1        0.2960
      6  C          7.0220   -0.1380   -2.0930 C.3     1  UNL1        0.0470
      7  C          6.4750    0.0240   -0.7470 C.2     1  UNL1       -0.0470
      8  C          6.5980   -0.9780    0.1870 C.2     1  UNL1        0.0040
      9  C          5.8330    1.1960   -0.4200 C.2     1  UNL1        0.0040
     10  C          6.0520   -0.7540    1.4530 C.2     1  UNL1        0.0000
     11  C          5.2930    1.4150    0.8310 C.2     1  UNL1        0.0000
     12  C          5.4120    0.4160    1.7730 C.2     1  UNL1        0.0000
@<TRIPOS>BOND
     1     5     4    1
     2     4     2    1
     3     3     2    2
     4     2     1    1
     5     1     6    1
     6     6     7    1
     7     7     9    2
     8     7     8    1
     9     9    11    1
    10     8    10    2
    11    11    12    2
    12    10    12    1
