MODEL 1
REMARK VINA RESULT:      -7.3      0.000      0.000
REMARK SMILES O=C(O)CCc1ccccc1
REMARK SMILES IDX 4 1 2 2 1 3 3 4 5 6 6 7 7 8 11 9 8 10 10 11 9 12
REMARK H PARENT 3 5
REMARK Flexibility Score: inf
ROOT
ATOM      1  C   UNL     1       8.436  -0.635  -2.144  1.00  0.00     0.127 C 
ENDROOT
BRANCH   1   2
ATOM      2  C   UNL     1       8.474  -1.911  -2.896  1.00  0.00     0.303 C 
ATOM      3  O   UNL     1       9.553  -2.526  -3.081  1.00  0.00    -0.252 OA
BRANCH   2   4
ATOM      4  O   UNL     1       7.314  -2.463  -3.417  1.00  0.00    -0.481 OA
ATOM      5  H   UNL     1       7.384  -3.228  -4.093  1.00  0.00     0.296 HD
ENDBRANCH   2   4
ENDBRANCH   1   2
BRANCH   1   6
ATOM      6  C   UNL     1       7.022  -0.139  -2.129  1.00  0.00     0.047 C 
BRANCH   6   7
ATOM      7  C   UNL     1       6.478   0.065  -0.787  1.00  0.00    -0.047 A 
ATOM      8  C   UNL     1       5.852   1.243  -0.454  1.00  0.00     0.004 A 
ATOM      9  C   UNL     1       6.596  -0.940   0.145  1.00  0.00     0.004 A 
ATOM     10  C   UNL     1       5.355   1.368   0.846  1.00  0.00     0.000 A 
ATOM     11  C   UNL     1       6.104  -0.815   1.429  1.00  0.00     0.000 A 
ATOM     12  C   UNL     1       5.476   0.363   1.771  1.00  0.00     0.000 A 
ENDBRANCH   6   7
ENDBRANCH   1   6
TORSDOF 4
ENDMDL
MODEL 2
REMARK VINA RESULT:      -7.3      0.057      1.437
REMARK SMILES O=C(O)CCc1ccccc1
REMARK SMILES IDX 4 1 2 2 1 3 3 4 5 6 6 7 7 8 11 9 8 10 10 11 9 12
REMARK H PARENT 3 5
REMARK Flexibility Score: inf
ROOT
ATOM      1  C   UNL     1       8.435  -0.637  -2.121  1.00  0.00     0.127 C 
ENDROOT
BRANCH   1   2
ATOM      2  C   UNL     1       8.464  -1.910  -2.878  1.00  0.00     0.303 C 
ATOM      3  O   UNL     1       9.535  -2.547  -3.040  1.00  0.00    -0.252 OA
BRANCH   2   4
ATOM      4  O   UNL     1       7.307  -2.435  -3.430  1.00  0.00    -0.481 OA
ATOM      5  H   UNL     1       6.464  -1.854  -3.472  1.00  0.00     0.296 HD
ENDBRANCH   2   4
ENDBRANCH   1   2
BRANCH   1   6
ATOM      6  C   UNL     1       7.022  -0.138  -2.093  1.00  0.00     0.047 C 
BRANCH   6   7
ATOM      7  C   UNL     1       6.475   0.024  -0.747  1.00  0.00    -0.047 A 
ATOM      8  C   UNL     1       6.598  -0.978   0.187  1.00  0.00     0.004 A 
ATOM      9  C   UNL     1       5.833   1.196  -0.420  1.00  0.00     0.004 A 
ATOM     10  C   UNL     1       6.052  -0.754   1.453  1.00  0.00     0.000 A 
ATOM     11  C   UNL     1       5.293   1.415   0.831  1.00  0.00     0.000 A 
ATOM     12  C   UNL     1       5.412   0.416   1.773  1.00  0.00     0.000 A 
ENDBRANCH   6   7
ENDBRANCH   1   6
TORSDOF 4
ENDMDL
MODEL 3
REMARK VINA RESULT:      -7.2      0.627      1.072
REMARK SMILES O=C(O)CCc1ccccc1
REMARK SMILES IDX 4 1 2 2 1 3 3 4 5 6 6 7 7 8 11 9 8 10 10 11 9 12
REMARK H PARENT 3 5
REMARK Flexibility Score: inf
ROOT
ATOM      1  C   UNL     1       8.281  -0.956  -1.875  1.00  0.00     0.127 C 
ENDROOT
BRANCH   1   2
ATOM      2  C   UNL     1       8.358  -2.077  -2.841  1.00  0.00     0.303 C 
ATOM      3  O   UNL     1       9.441  -2.672  -3.063  1.00  0.00    -0.252 OA
BRANCH   2   4
ATOM      4  O   UNL     1       7.231  -2.499  -3.529  1.00  0.00    -0.481 OA
ATOM      5  H   UNL     1       6.309  -2.377  -3.102  1.00  0.00     0.296 HD
ENDBRANCH   2   4
ENDBRANCH   1   2
BRANCH   1   6
ATOM      6  C   UNL     1       7.473  -1.406  -0.696  1.00  0.00     0.047 C 
BRANCH   6   7
ATOM      7  C   UNL     1       6.621  -0.362  -0.127  1.00  0.00    -0.047 A 
ATOM      8  C   UNL     1       6.268   0.740  -0.869  1.00  0.00     0.004 A 
ATOM      9  C   UNL     1       6.171  -0.495   1.167  1.00  0.00     0.004 A 
ATOM     10  C   UNL     1       5.451   1.696  -0.262  1.00  0.00     0.000 A 
ATOM     11  C   UNL     1       5.364   0.452   1.766  1.00  0.00     0.000 A 
ATOM     12  C   UNL     1       5.006   1.560   1.029  1.00  0.00     0.000 A 
ENDBRANCH   6   7
ENDBRANCH   1   6
TORSDOF 4
ENDMDL
MODEL 4
REMARK VINA RESULT:      -6.7      1.938      2.668
REMARK SMILES O=C(O)CCc1ccccc1
REMARK SMILES IDX 4 1 2 2 1 3 3 4 5 6 6 7 7 8 11 9 8 10 10 11 9 12
REMARK H PARENT 3 5
REMARK Flexibility Score: inf
ROOT
ATOM      1  C   UNL     1       8.249   0.232  -2.182  1.00  0.00     0.127 C 
ENDROOT
BRANCH   1   2
ATOM      2  C   UNL     1       9.378   0.345  -1.229  1.00  0.00     0.303 C 
ATOM      3  O   UNL     1       9.458  -0.402  -0.223  1.00  0.00    -0.252 OA
BRANCH   2   4
ATOM      4  O   UNL     1      10.380   1.283  -1.424  1.00  0.00    -0.481 OA
ATOM      5  H   UNL     1      11.219   1.018  -1.947  1.00  0.00     0.296 HD
ENDBRANCH   2   4
ENDBRANCH   1   2
BRANCH   1   6
ATOM      6  C   UNL     1       7.146  -0.534  -1.517  1.00  0.00     0.047 C 
BRANCH   6   7
ATOM      7  C   UNL     1       6.357   0.259  -0.576  1.00  0.00    -0.047 A 
ATOM      8  C   UNL     1       6.138  -0.185   0.708  1.00  0.00     0.004 A 
ATOM      9  C   UNL     1       5.832   1.462  -0.987  1.00  0.00     0.004 A 
ATOM     10  C   UNL     1       5.375   0.624   1.553  1.00  0.00     0.000 A 
ATOM     11  C   UNL     1       5.077   2.261  -0.150  1.00  0.00     0.000 A 
ATOM     12  C   UNL     1       4.853   1.823   1.137  1.00  0.00     0.000 A 
ENDBRANCH   6   7
ENDBRANCH   1   6
TORSDOF 4
ENDMDL
MODEL 5
REMARK VINA RESULT:      -6.6      3.350      5.069
REMARK SMILES O=C(O)CCc1ccccc1
REMARK SMILES IDX 4 1 2 2 1 3 3 4 5 6 6 7 7 8 11 9 8 10 10 11 9 12
REMARK H PARENT 3 5
REMARK Flexibility Score: inf
ROOT
ATOM      1  C   UNL     1       5.035   1.775   0.724  1.00  0.00     0.127 C 
ENDROOT
BRANCH   1   2
ATOM      2  C   UNL     1       4.530   1.034   1.904  1.00  0.00     0.303 C 
ATOM      3  O   UNL     1       5.162   0.057   2.378  1.00  0.00    -0.252 OA
BRANCH   2   4
ATOM      4  O   UNL     1       3.344   1.400   2.518  1.00  0.00    -0.481 OA
ATOM      5  H   UNL     1       2.717   0.672   2.873  1.00  0.00     0.296 HD
ENDBRANCH   2   4
ENDBRANCH   1   2
BRANCH   1   6
ATOM      6  C   UNL     1       6.533   1.751   0.758  1.00  0.00     0.047 C 
BRANCH   6   7
ATOM      7  C   UNL     1       7.142   1.045  -0.367  1.00  0.00    -0.047 A 
ATOM      8  C   UNL     1       6.411   0.150  -1.115  1.00  0.00     0.004 A 
ATOM      9  C   UNL     1       8.461   1.285  -0.677  1.00  0.00     0.004 A 
ATOM     10  C   UNL     1       7.057  -0.487  -2.177  1.00  0.00     0.000 A 
ATOM     11  C   UNL     1       9.098   0.654  -1.726  1.00  0.00     0.000 A 
ATOM     12  C   UNL     1       8.373  -0.244  -2.480  1.00  0.00     0.000 A 
ENDBRANCH   6   7
ENDBRANCH   1   6
TORSDOF 4
ENDMDL
