@<TRIPOS>MOLECULE
/home/cewinharhar/GITHUB/reincatalyze/data/processed/docking_pred/2023-Apr-26-1657_maxeplen10_maxtrainstep1000_exh32_gamma099_lrac9e-4_lrcr1e-3/79094ef31ed65e340e791eab6f4e997ef8bc8970_ligand_2.pdbqt
 12 12 0 0 0
SMALL
GASTEIGER

@<TRIPOS>ATOM
      1  C          8.2810   -0.9560   -1.8750 C.3     1  UNL1        0.1270
      2  C          8.3580   -2.0770   -2.8410 C.2     1  UNL1        0.3030
      3  O          9.4410   -2.6720   -3.0630 O.2     1  UNL1       -0.2520
      4  O          7.2310   -2.4990   -3.5290 O.3     1  UNL1       -0.4810
      5  H          6.3090   -2.3770   -3.1020 H       1  UNL1        0.2960
      6  C          7.4730   -1.4060   -0.6960 C.3     1  UNL1        0.0470
      7  C          6.6210   -0.3620   -0.1270 C.2     1  UNL1       -0.0470
      8  C          6.2680    0.7400   -0.8690 C.2     1  UNL1        0.0040
      9  C          6.1710   -0.4950    1.1670 C.2     1  UNL1        0.0040
     10  C          5.4510    1.6960   -0.2620 C.2     1  UNL1        0.0000
     11  C          5.3640    0.4520    1.7660 C.2     1  UNL1        0.0000
     12  C          5.0060    1.5600    1.0290 C.2     1  UNL1        0.0000
@<TRIPOS>BOND
     1     4     5    1
     2     4     2    1
     3     3     2    2
     4     2     1    1
     5     1     6    1
     6     8    10    1
     7     8     7    2
     8     6     7    1
     9    10    12    2
    10     7     9    1
    11    12    11    1
    12     9    11    2
