@<TRIPOS>MOLECULE
/home/cewinharhar/GITHUB/reincatalyze/data/processed/docking_pred/2023-Apr-26-1657_maxeplen10_maxtrainstep1000_exh32_gamma099_lrac9e-4_lrcr1e-3/79094ef31ed65e340e791eab6f4e997ef8bc8970_ligand_2.pdbqt
 12 12 0 0 0
SMALL
GASTEIGER

@<TRIPOS>ATOM
      1  C          5.0350    1.7750    0.7240 C.3     1  UNL1        0.1270
      2  C          4.5300    1.0340    1.9040 C.2     1  UNL1        0.3030
      3  O          5.1620    0.0570    2.3780 O.2     1  UNL1       -0.2520
      4  O          3.3440    1.4000    2.5180 O.3     1  UNL1       -0.4810
      5  H          2.7170    0.6720    2.8730 H       1  UNL1        0.2960
      6  C          6.5330    1.7510    0.7580 C.3     1  UNL1        0.0470
      7  C          7.1420    1.0450   -0.3670 C.2     1  UNL1       -0.0470
      8  C          6.4110    0.1500   -1.1150 C.2     1  UNL1        0.0040
      9  C          8.4610    1.2850   -0.6770 C.2     1  UNL1        0.0040
     10  C          7.0570   -0.4870   -2.1770 C.2     1  UNL1        0.0000
     11  C          9.0980    0.6540   -1.7260 C.2     1  UNL1        0.0000
     12  C          8.3730   -0.2440   -2.4800 C.2     1  UNL1        0.0000
@<TRIPOS>BOND
     1    12    10    2
     2    12    11    1
     3    10     8    1
     4    11     9    2
     5     8     7    2
     6     9     7    1
     7     7     6    1
     8     1     6    1
     9     1     2    1
    10     2     3    2
    11     2     4    1
    12     4     5    1
