@<TRIPOS>MOLECULE
/home/cewinharhar/GITHUB/reincatalyze/data/processed/docking_pred/2023-Apr-26-1657_maxeplen10_maxtrainstep1000_exh32_gamma099_lrac9e-4_lrcr1e-3/79094ef31ed65e340e791eab6f4e997ef8bc8970_ligand_2.pdbqt
 12 12 0 0 0
SMALL
GASTEIGER

@<TRIPOS>ATOM
      1  C          8.2490    0.2320   -2.1820 C.3     1  UNL1        0.1270
      2  C          9.3780    0.3450   -1.2290 C.2     1  UNL1        0.3030
      3  O          9.4580   -0.4020   -0.2230 O.2     1  UNL1       -0.2520
      4  O         10.3800    1.2830   -1.4240 O.3     1  UNL1       -0.4810
      5  H         11.2190    1.0180   -1.9470 H       1  UNL1        0.2960
      6  C          7.1460   -0.5340   -1.5170 C.3     1  UNL1        0.0470
      7  C          6.3570    0.2590   -0.5760 C.2     1  UNL1       -0.0470
      8  C          6.1380   -0.1850    0.7080 C.2     1  UNL1        0.0040
      9  C          5.8320    1.4620   -0.9870 C.2     1  UNL1        0.0040
     10  C          5.3750    0.6240    1.5530 C.2     1  UNL1        0.0000
     11  C          5.0770    2.2610   -0.1500 C.2     1  UNL1        0.0000
     12  C          4.8530    1.8230    1.1370 C.2     1  UNL1        0.0000
@<TRIPOS>BOND
     1     1     6    1
     2     1     2    1
     3     5     4    1
     4     6     7    1
     5     4     2    1
     6     2     3    2
     7     9     7    2
     8     9    11    1
     9     7     8    1
    10    11    12    2
    11     8    10    2
    12    12    10    1
