@<TRIPOS>MOLECULE
/home/cewinharhar/GITHUB/reincatalyze/data/processed/docking_pred/2023-Apr-26-1657_maxeplen10_maxtrainstep1000_exh32_gamma099_lrac9e-4_lrcr1e-3/79495f175fd15f32955b26bb978cae7af324a937_ligand_2.pdbqt
 12 12 0 0 0
SMALL
GASTEIGER

@<TRIPOS>ATOM
      1  C          8.4280   -0.5760   -2.1980 C.3     1  UNL1        0.1270
      2  C          8.4800   -1.8790   -2.9030 C.2     1  UNL1        0.3030
      3  O          9.5670   -2.4870   -3.0670 O.2     1  UNL1       -0.2520
      4  O          7.3270   -2.4620   -3.4030 O.3     1  UNL1       -0.4810
      5  H          7.3930   -3.0930   -4.2060 H       1  UNL1        0.2960
      6  C          7.0020   -0.1170   -2.1620 C.3     1  UNL1        0.0470
      7  C          6.4730    0.0740   -0.8120 C.2     1  UNL1       -0.0470
      8  C          5.8560    1.2520   -0.4590 C.2     1  UNL1        0.0040
      9  C          6.5960   -0.9420    0.1070 C.2     1  UNL1        0.0040
     10  C          5.3740    1.3650    0.8460 C.2     1  UNL1        0.0000
     11  C          6.1190   -0.8280    1.3980 C.2     1  UNL1        0.0000
     12  C          5.5000    0.3490    1.7600 C.2     1  UNL1        0.0000
@<TRIPOS>BOND
     1     5     4    1
     2     4     2    1
     3     3     2    2
     4     2     1    1
     5     1     6    1
     6     6     7    1
     7     7     8    2
     8     7     9    1
     9     8    10    1
    10     9    11    2
    11    10    12    2
    12    11    12    1
