@<TRIPOS>MOLECULE
/home/cewinharhar/GITHUB/reincatalyze/data/processed/docking_pred/2023-Apr-26-1657_maxeplen10_maxtrainstep1000_exh32_gamma099_lrac9e-4_lrcr1e-3/79495f175fd15f32955b26bb978cae7af324a937_ligand_2.pdbqt
 12 12 0 0 0
SMALL
GASTEIGER

@<TRIPOS>ATOM
      1  C          8.1870    0.2600   -2.1370 C.3     1  UNL1        0.1270
      2  C          9.3470    0.3500   -1.2200 C.2     1  UNL1        0.3030
      3  O          9.4510   -0.4110   -0.2260 O.2     1  UNL1       -0.2520
      4  O         10.3520    1.2790   -1.4350 O.3     1  UNL1       -0.4810
      5  H         11.3110    0.9550   -1.5830 H       1  UNL1        0.2960
      6  C          7.1180   -0.5490   -1.4670 C.3     1  UNL1        0.0470
      7  C          6.3420    0.1950   -0.4770 C.2     1  UNL1       -0.0470
      8  C          5.8020    1.4220   -0.7850 C.2     1  UNL1        0.0040
      9  C          6.1530   -0.3470    0.7730 C.2     1  UNL1        0.0040
     10  C          5.0710    2.0760    0.2090 C.2     1  UNL1        0.0000
     11  C          5.4300    0.3020    1.7550 C.2     1  UNL1        0.0000
     12  C          4.8860    1.5320    1.4550 C.2     1  UNL1        0.0000
@<TRIPOS>BOND
     1     1     6    1
     2     1     2    1
     3     5     4    1
     4     6     7    1
     5     4     2    1
     6     2     3    2
     7     8     7    2
     8     8    10    1
     9     7     9    1
    10    10    12    2
    11     9    11    2
    12    12    11    1
