@<TRIPOS>MOLECULE
/home/cewinharhar/GITHUB/reincatalyze/data/processed/docking_pred/2023-Apr-26-1657_maxeplen10_maxtrainstep1000_exh32_gamma099_lrac9e-4_lrcr1e-3/79495f175fd15f32955b26bb978cae7af324a937_ligand_2.pdbqt
 12 12 0 0 0
SMALL
GASTEIGER

@<TRIPOS>ATOM
      1  C          5.4440    2.8220    0.0440 C.3     1  UNL1        0.1270
      2  C          6.2260    3.7790    0.8610 C.2     1  UNL1        0.3030
      3  O          6.2270    3.7150    2.1150 O.2     1  UNL1       -0.2520
      4  O          6.9810    4.7740    0.2610 O.3     1  UNL1       -0.4810
      5  H          7.9970    4.7760    0.3860 H       1  UNL1        0.2960
      6  C          4.9070    1.7570    0.9510 C.3     1  UNL1        0.0470
      7  C          5.7120    0.5370    0.9770 C.2     1  UNL1       -0.0470
      8  C          5.7860   -0.2330    2.1140 C.2     1  UNL1        0.0040
      9  C          6.3990    0.1620   -0.1550 C.2     1  UNL1        0.0040
     10  C          6.5730   -1.3860    2.0660 C.2     1  UNL1        0.0000
     11  C          7.1770   -0.9780   -0.2000 C.2     1  UNL1        0.0000
     12  C          7.2560   -1.7550    0.9350 C.2     1  UNL1        0.0000
@<TRIPOS>BOND
     1    11     9    1
     2    11    12    2
     3     9     7    2
     4     1     2    1
     5     1     6    1
     6     4     5    1
     7     4     2    1
     8     2     3    2
     9    12    10    1
    10     6     7    1
    11     7     8    1
    12    10     8    2
