@<TRIPOS>MOLECULE
/home/cewinharhar/GITHUB/reincatalyze/data/processed/docking_pred/2023-Apr-26-1657_maxeplen10_maxtrainstep1000_exh32_gamma099_lrac9e-4_lrcr1e-3/79495f175fd15f32955b26bb978cae7af324a937_ligand_2.pdbqt
 12 12 0 0 0
SMALL
GASTEIGER

@<TRIPOS>ATOM
      1  C          8.4690   -0.6160   -2.1530 C.3     1  UNL1        0.1270
      2  C          8.4850   -1.8940   -2.9040 C.2     1  UNL1        0.3030
      3  O          9.5540   -2.5280   -3.0850 O.2     1  UNL1       -0.2520
      4  O          7.3180   -2.4240   -3.4280 O.3     1  UNL1       -0.4810
      5  H          7.0570   -3.3870   -3.1980 H       1  UNL1        0.2960
      6  C          7.0610   -0.1030   -2.1270 C.3     1  UNL1        0.0470
      7  C          6.5040    0.0390   -0.7830 C.2     1  UNL1       -0.0470
      8  C          6.6290   -0.9730    0.1400 C.2     1  UNL1        0.0040
      9  C          5.8510    1.2020   -0.4460 C.2     1  UNL1        0.0040
     10  C          6.0740   -0.7690    1.4050 C.2     1  UNL1        0.0000
     11  C          5.3020    1.4020    0.8050 C.2     1  UNL1        0.0000
     12  C          5.4230    0.3930    1.7360 C.2     1  UNL1        0.0000
@<TRIPOS>BOND
     1     4     5    1
     2     4     2    1
     3     3     2    2
     4     2     1    1
     5     1     6    1
     6     6     7    1
     7     7     9    2
     8     7     8    1
     9     9    11    1
    10     8    10    2
    11    11    12    2
    12    10    12    1
