@<TRIPOS>MOLECULE
/home/cewinharhar/GITHUB/reincatalyze/data/processed/docking_pred/2023-Apr-26-1657_maxeplen10_maxtrainstep1000_exh32_gamma099_lrac9e-4_lrcr1e-3/79495f175fd15f32955b26bb978cae7af324a937_ligand_2.pdbqt
 12 12 0 0 0
SMALL
GASTEIGER

@<TRIPOS>ATOM
      1  C          5.0140    1.7640    0.7040 C.3     1  UNL1        0.1270
      2  C          4.5010    1.0950    1.9230 C.2     1  UNL1        0.3030
      3  O          5.1560    0.1870    2.4910 O.2     1  UNL1       -0.2520
      4  O          3.2800    1.4550    2.4690 O.3     1  UNL1       -0.4810
      5  H          3.1060    1.2830    3.4640 H       1  UNL1        0.2960
      6  C          6.5110    1.7680    0.7640 C.3     1  UNL1        0.0470
      7  C          7.1510    1.0320   -0.3260 C.2     1  UNL1       -0.0470
      8  C          8.4820    1.2220   -0.6160 C.2     1  UNL1        0.0040
      9  C          6.4060    0.1400   -1.0620 C.2     1  UNL1        0.0040
     10  C          9.0280    0.4850   -1.6690 C.2     1  UNL1        0.0000
     11  C          6.9470   -0.5870   -2.1030 C.2     1  UNL1        0.0000
     12  C          8.2790   -0.4020   -2.4010 C.2     1  UNL1        0.0000
@<TRIPOS>BOND
     1    12    11    2
     2    12    10    1
     3    11     9    1
     4    10     8    2
     5     9     7    2
     6     8     7    1
     7     7     6    1
     8     1     6    1
     9     1     2    1
    10     2     4    1
    11     2     3    2
    12     4     5    1
