MODEL 1
REMARK VINA RESULT:      -7.4      0.000      0.000
REMARK SMILES O=C(O)CCc1ccccc1
REMARK SMILES IDX 4 1 2 2 1 3 3 4 5 6 6 7 7 8 11 9 8 10 10 11 9 12
REMARK H PARENT 3 5
REMARK Flexibility Score: inf
ROOT
ATOM      1  C   UNL     1       8.469  -0.616  -2.153  1.00  0.00     0.127 C 
ENDROOT
BRANCH   1   2
ATOM      2  C   UNL     1       8.485  -1.894  -2.904  1.00  0.00     0.303 C 
ATOM      3  O   UNL     1       9.554  -2.528  -3.085  1.00  0.00    -0.252 OA
BRANCH   2   4
ATOM      4  O   UNL     1       7.318  -2.424  -3.428  1.00  0.00    -0.481 OA
ATOM      5  H   UNL     1       7.057  -3.387  -3.198  1.00  0.00     0.296 HD
ENDBRANCH   2   4
ENDBRANCH   1   2
BRANCH   1   6
ATOM      6  C   UNL     1       7.061  -0.103  -2.127  1.00  0.00     0.047 C 
BRANCH   6   7
ATOM      7  C   UNL     1       6.504   0.039  -0.783  1.00  0.00    -0.047 A 
ATOM      8  C   UNL     1       6.629  -0.973   0.140  1.00  0.00     0.004 A 
ATOM      9  C   UNL     1       5.851   1.202  -0.446  1.00  0.00     0.004 A 
ATOM     10  C   UNL     1       6.074  -0.769   1.405  1.00  0.00     0.000 A 
ATOM     11  C   UNL     1       5.302   1.402   0.805  1.00  0.00     0.000 A 
ATOM     12  C   UNL     1       5.423   0.393   1.736  1.00  0.00     0.000 A 
ENDBRANCH   6   7
ENDBRANCH   1   6
TORSDOF 4
ENDMDL
MODEL 2
REMARK VINA RESULT:      -7.3      0.065      1.438
REMARK SMILES O=C(O)CCc1ccccc1
REMARK SMILES IDX 4 1 2 2 1 3 3 4 5 6 6 7 7 8 11 9 8 10 10 11 9 12
REMARK H PARENT 3 5
REMARK Flexibility Score: inf
ROOT
ATOM      1  C   UNL     1       8.428  -0.576  -2.198  1.00  0.00     0.127 C 
ENDROOT
BRANCH   1   2
ATOM      2  C   UNL     1       8.480  -1.879  -2.903  1.00  0.00     0.303 C 
ATOM      3  O   UNL     1       9.567  -2.487  -3.067  1.00  0.00    -0.252 OA
BRANCH   2   4
ATOM      4  O   UNL     1       7.327  -2.462  -3.403  1.00  0.00    -0.481 OA
ATOM      5  H   UNL     1       7.393  -3.093  -4.206  1.00  0.00     0.296 HD
ENDBRANCH   2   4
ENDBRANCH   1   2
BRANCH   1   6
ATOM      6  C   UNL     1       7.002  -0.117  -2.162  1.00  0.00     0.047 C 
BRANCH   6   7
ATOM      7  C   UNL     1       6.473   0.074  -0.812  1.00  0.00    -0.047 A 
ATOM      8  C   UNL     1       5.856   1.252  -0.459  1.00  0.00     0.004 A 
ATOM      9  C   UNL     1       6.596  -0.942   0.107  1.00  0.00     0.004 A 
ATOM     10  C   UNL     1       5.374   1.365   0.846  1.00  0.00     0.000 A 
ATOM     11  C   UNL     1       6.119  -0.828   1.398  1.00  0.00     0.000 A 
ATOM     12  C   UNL     1       5.500   0.349   1.760  1.00  0.00     0.000 A 
ENDBRANCH   6   7
ENDBRANCH   1   6
TORSDOF 4
ENDMDL
MODEL 3
REMARK VINA RESULT:      -6.8      3.372      5.072
REMARK SMILES O=C(O)CCc1ccccc1
REMARK SMILES IDX 4 1 2 2 1 3 3 4 5 6 6 7 7 8 11 9 8 10 10 11 9 12
REMARK H PARENT 3 5
REMARK Flexibility Score: inf
ROOT
ATOM      1  C   UNL     1       5.014   1.764   0.704  1.00  0.00     0.127 C 
ENDROOT
BRANCH   1   2
ATOM      2  C   UNL     1       4.501   1.095   1.923  1.00  0.00     0.303 C 
ATOM      3  O   UNL     1       5.156   0.187   2.491  1.00  0.00    -0.252 OA
BRANCH   2   4
ATOM      4  O   UNL     1       3.280   1.455   2.469  1.00  0.00    -0.481 OA
ATOM      5  H   UNL     1       3.106   1.283   3.464  1.00  0.00     0.296 HD
ENDBRANCH   2   4
ENDBRANCH   1   2
BRANCH   1   6
ATOM      6  C   UNL     1       6.511   1.768   0.764  1.00  0.00     0.047 C 
BRANCH   6   7
ATOM      7  C   UNL     1       7.151   1.032  -0.326  1.00  0.00    -0.047 A 
ATOM      8  C   UNL     1       8.482   1.222  -0.616  1.00  0.00     0.004 A 
ATOM      9  C   UNL     1       6.406   0.140  -1.062  1.00  0.00     0.004 A 
ATOM     10  C   UNL     1       9.028   0.485  -1.669  1.00  0.00     0.000 A 
ATOM     11  C   UNL     1       6.947  -0.587  -2.103  1.00  0.00     0.000 A 
ATOM     12  C   UNL     1       8.279  -0.402  -2.401  1.00  0.00     0.000 A 
ENDBRANCH   6   7
ENDBRANCH   1   6
TORSDOF 4
ENDMDL
MODEL 4
REMARK VINA RESULT:      -6.7      3.822      4.935
REMARK SMILES O=C(O)CCc1ccccc1
REMARK SMILES IDX 4 1 2 2 1 3 3 4 5 6 6 7 7 8 11 9 8 10 10 11 9 12
REMARK H PARENT 3 5
REMARK Flexibility Score: inf
ROOT
ATOM      1  C   UNL     1       5.444   2.822   0.044  1.00  0.00     0.127 C 
ENDROOT
BRANCH   1   2
ATOM      2  C   UNL     1       6.226   3.779   0.861  1.00  0.00     0.303 C 
ATOM      3  O   UNL     1       6.227   3.715   2.115  1.00  0.00    -0.252 OA
BRANCH   2   4
ATOM      4  O   UNL     1       6.981   4.774   0.261  1.00  0.00    -0.481 OA
ATOM      5  H   UNL     1       7.997   4.776   0.386  1.00  0.00     0.296 HD
ENDBRANCH   2   4
ENDBRANCH   1   2
BRANCH   1   6
ATOM      6  C   UNL     1       4.907   1.757   0.951  1.00  0.00     0.047 C 
BRANCH   6   7
ATOM      7  C   UNL     1       5.712   0.537   0.977  1.00  0.00    -0.047 A 
ATOM      8  C   UNL     1       5.786  -0.233   2.114  1.00  0.00     0.004 A 
ATOM      9  C   UNL     1       6.399   0.162  -0.155  1.00  0.00     0.004 A 
ATOM     10  C   UNL     1       6.573  -1.386   2.066  1.00  0.00     0.000 A 
ATOM     11  C   UNL     1       7.177  -0.978  -0.200  1.00  0.00     0.000 A 
ATOM     12  C   UNL     1       7.256  -1.755   0.935  1.00  0.00     0.000 A 
ENDBRANCH   6   7
ENDBRANCH   1   6
TORSDOF 4
ENDMDL
MODEL 5
REMARK VINA RESULT:      -6.6      1.927      2.618
REMARK SMILES O=C(O)CCc1ccccc1
REMARK SMILES IDX 4 1 2 2 1 3 3 4 5 6 6 7 7 8 11 9 8 10 10 11 9 12
REMARK H PARENT 3 5
REMARK Flexibility Score: inf
ROOT
ATOM      1  C   UNL     1       8.187   0.260  -2.137  1.00  0.00     0.127 C 
ENDROOT
BRANCH   1   2
ATOM      2  C   UNL     1       9.347   0.350  -1.220  1.00  0.00     0.303 C 
ATOM      3  O   UNL     1       9.451  -0.411  -0.226  1.00  0.00    -0.252 OA
BRANCH   2   4
ATOM      4  O   UNL     1      10.352   1.279  -1.435  1.00  0.00    -0.481 OA
ATOM      5  H   UNL     1      11.311   0.955  -1.583  1.00  0.00     0.296 HD
ENDBRANCH   2   4
ENDBRANCH   1   2
BRANCH   1   6
ATOM      6  C   UNL     1       7.118  -0.549  -1.467  1.00  0.00     0.047 C 
BRANCH   6   7
ATOM      7  C   UNL     1       6.342   0.195  -0.477  1.00  0.00    -0.047 A 
ATOM      8  C   UNL     1       5.802   1.422  -0.785  1.00  0.00     0.004 A 
ATOM      9  C   UNL     1       6.153  -0.347   0.773  1.00  0.00     0.004 A 
ATOM     10  C   UNL     1       5.071   2.076   0.209  1.00  0.00     0.000 A 
ATOM     11  C   UNL     1       5.430   0.302   1.755  1.00  0.00     0.000 A 
ATOM     12  C   UNL     1       4.886   1.532   1.455  1.00  0.00     0.000 A 
ENDBRANCH   6   7
ENDBRANCH   1   6
TORSDOF 4
ENDMDL
