@<TRIPOS>MOLECULE
/home/cewinharhar/GITHUB/reincatalyze/data/processed/docking_pred/2023-Apr-26-1657_maxeplen10_maxtrainstep1000_exh32_gamma099_lrac9e-4_lrcr1e-3/7ac8f9624e71b352d93dccd4dc48cb56e96c53c0_ligand_2.pdbqt
 12 12 0 0 0
SMALL
GASTEIGER

@<TRIPOS>ATOM
      1  C          8.4530   -0.6020   -2.2020 C.3     1  UNL1        0.1270
      2  C          8.4930   -1.9020   -2.9120 C.2     1  UNL1        0.3030
      3  O          9.5740   -2.5200   -3.0790 O.2     1  UNL1       -0.2520
      4  O          7.3350   -2.4730   -3.4140 O.3     1  UNL1       -0.4810
      5  H          6.8590   -2.0290   -4.2040 H       1  UNL1        0.2960
      6  C          7.0310   -0.1310   -2.1610 C.3     1  UNL1        0.0470
      7  C          6.4960    0.0270   -0.8100 C.2     1  UNL1       -0.0470
      8  C          6.6250   -0.9780    0.1200 C.2     1  UNL1        0.0040
      9  C          5.8600    1.2000   -0.4740 C.2     1  UNL1        0.0040
     10  C          6.0910   -0.7560    1.3920 C.2     1  UNL1        0.0000
     11  C          5.3320    1.4170    0.7830 C.2     1  UNL1        0.0000
     12  C          5.4560    0.4150    1.7210 C.2     1  UNL1        0.0000
@<TRIPOS>BOND
     1     5     4    1
     2     4     2    1
     3     3     2    2
     4     2     1    1
     5     1     6    1
     6     6     7    1
     7     7     9    2
     8     7     8    1
     9     9    11    1
    10     8    10    2
    11    11    12    2
    12    10    12    1
