@<TRIPOS>MOLECULE
/home/cewinharhar/GITHUB/reincatalyze/data/processed/docking_pred/2023-Apr-26-1657_maxeplen10_maxtrainstep1000_exh32_gamma099_lrac9e-4_lrcr1e-3/7ac8f9624e71b352d93dccd4dc48cb56e96c53c0_ligand_2.pdbqt
 12 12 0 0 0
SMALL
GASTEIGER

@<TRIPOS>ATOM
      1  C          5.3820    2.9380    0.0280 C.3     1  UNL1        0.1270
      2  C          6.2210    3.8780    0.8080 C.2     1  UNL1        0.3030
      3  O          6.9250    4.7480    0.2380 O.2     1  UNL1       -0.2520
      4  O          6.2510    3.8220    2.1920 O.3     1  UNL1       -0.4810
      5  H          5.6210    3.1800    2.6810 H       1  UNL1        0.2960
      6  C          4.9350    1.8370    0.9410 C.3     1  UNL1        0.0470
      7  C          5.7340    0.6170    0.8360 C.2     1  UNL1       -0.0470
      8  C          5.8740   -0.2260    1.9140 C.2     1  UNL1        0.0040
      9  C          6.3470    0.3170   -0.3580 C.2     1  UNL1        0.0040
     10  C          6.6500   -1.3740    1.7420 C.2     1  UNL1        0.0000
     11  C          7.1150   -0.8180   -0.5260 C.2     1  UNL1        0.0000
     12  C          7.2610   -1.6680    0.5490 C.2     1  UNL1        0.0000
@<TRIPOS>BOND
     1    11     9    1
     2    11    12    2
     3     9     7    2
     4     1     2    1
     5     1     6    1
     6     3     2    2
     7    12    10    1
     8     2     4    1
     9     7     6    1
    10     7     8    1
    11    10     8    2
    12     4     5    1
