@<TRIPOS>MOLECULE
/home/cewinharhar/GITHUB/reincatalyze/data/processed/docking_pred/2023-Apr-26-1657_maxeplen10_maxtrainstep1000_exh32_gamma099_lrac9e-4_lrcr1e-3/7ac8f9624e71b352d93dccd4dc48cb56e96c53c0_ligand_2.pdbqt
 12 12 0 0 0
SMALL
GASTEIGER

@<TRIPOS>ATOM
      1  C          7.9740   -2.0540    0.8960 C.3     1  UNL1        0.1270
      2  C          8.7260   -3.2240    0.3840 C.2     1  UNL1        0.3030
      3  O          9.5750   -3.8150    1.0970 O.2     1  UNL1       -0.2520
      4  O          8.5120   -3.6990   -0.8990 O.3     1  UNL1       -0.4810
      5  H          7.8760   -3.1930   -1.5210 H       1  UNL1        0.2960
      6  C          7.3530   -1.3470   -0.2690 C.3     1  UNL1        0.0470
      7  C          6.5000   -0.2210    0.1050 C.2     1  UNL1       -0.0470
      8  C          5.9490   -0.1430    1.3630 C.2     1  UNL1        0.0040
      9  C          6.2510    0.7690   -0.8180 C.2     1  UNL1        0.0040
     10  C          5.1450    0.9620    1.6510 C.2     1  UNL1        0.0000
     11  C          5.4560    1.8600   -0.5320 C.2     1  UNL1        0.0000
     12  C          4.9000    1.9460    0.7260 C.2     1  UNL1        0.0000
@<TRIPOS>BOND
     1     5     4    1
     2     4     2    1
     3     9    11    1
     4     9     7    2
     5    11    12    2
     6     6     7    1
     7     6     1    1
     8     7     8    1
     9     2     1    1
    10     2     3    2
    11    12    10    1
    12     8    10    2
