MODEL 1
REMARK VINA RESULT:      -7.4      0.000      0.000
REMARK SMILES O=C(O)CCc1ccccc1
REMARK SMILES IDX 4 1 2 2 1 3 3 4 5 6 6 7 7 8 11 9 8 10 10 11 9 12
REMARK H PARENT 3 5
REMARK Flexibility Score: inf
ROOT
ATOM      1  C   UNL     1       8.453  -0.602  -2.202  1.00  0.00     0.127 C 
ENDROOT
BRANCH   1   2
ATOM      2  C   UNL     1       8.493  -1.902  -2.912  1.00  0.00     0.303 C 
ATOM      3  O   UNL     1       9.574  -2.520  -3.079  1.00  0.00    -0.252 OA
BRANCH   2   4
ATOM      4  O   UNL     1       7.335  -2.473  -3.414  1.00  0.00    -0.481 OA
ATOM      5  H   UNL     1       6.859  -2.029  -4.204  1.00  0.00     0.296 HD
ENDBRANCH   2   4
ENDBRANCH   1   2
BRANCH   1   6
ATOM      6  C   UNL     1       7.031  -0.131  -2.161  1.00  0.00     0.047 C 
BRANCH   6   7
ATOM      7  C   UNL     1       6.496   0.027  -0.810  1.00  0.00    -0.047 A 
ATOM      8  C   UNL     1       6.625  -0.978   0.120  1.00  0.00     0.004 A 
ATOM      9  C   UNL     1       5.860   1.200  -0.474  1.00  0.00     0.004 A 
ATOM     10  C   UNL     1       6.091  -0.756   1.392  1.00  0.00     0.000 A 
ATOM     11  C   UNL     1       5.332   1.417   0.783  1.00  0.00     0.000 A 
ATOM     12  C   UNL     1       5.456   0.415   1.721  1.00  0.00     0.000 A 
ENDBRANCH   6   7
ENDBRANCH   1   6
TORSDOF 4
ENDMDL
MODEL 2
REMARK VINA RESULT:      -7.3      0.131      1.732
REMARK SMILES O=C(O)CCc1ccccc1
REMARK SMILES IDX 4 1 2 2 1 3 3 4 5 6 6 7 7 8 11 9 8 10 10 11 9 12
REMARK H PARENT 3 5
REMARK Flexibility Score: inf
ROOT
ATOM      1  C   UNL     1       8.406  -0.618  -2.114  1.00  0.00     0.127 C 
ENDROOT
BRANCH   1   2
ATOM      2  C   UNL     1       8.386  -1.884  -2.884  1.00  0.00     0.303 C 
ATOM      3  O   UNL     1       7.304  -2.424  -3.222  1.00  0.00    -0.252 OA
BRANCH   2   4
ATOM      4  O   UNL     1       9.567  -2.510  -3.251  1.00  0.00    -0.481 OA
ATOM      5  H   UNL     1      10.417  -1.950  -3.361  1.00  0.00     0.296 HD
ENDBRANCH   2   4
ENDBRANCH   1   2
BRANCH   1   6
ATOM      6  C   UNL     1       7.015  -0.061  -2.089  1.00  0.00     0.047 C 
BRANCH   6   7
ATOM      7  C   UNL     1       6.462   0.097  -0.745  1.00  0.00    -0.047 A 
ATOM      8  C   UNL     1       5.829   1.262  -0.378  1.00  0.00     0.004 A 
ATOM      9  C   UNL     1       6.579  -0.937   0.155  1.00  0.00     0.004 A 
ATOM     10  C   UNL     1       5.324   1.343   0.922  1.00  0.00     0.000 A 
ATOM     11  C   UNL     1       6.079  -0.855   1.440  1.00  0.00     0.000 A 
ATOM     12  C   UNL     1       5.444   0.309   1.816  1.00  0.00     0.000 A 
ENDBRANCH   6   7
ENDBRANCH   1   6
TORSDOF 4
ENDMDL
MODEL 3
REMARK VINA RESULT:      -6.7      3.341      5.032
REMARK SMILES O=C(O)CCc1ccccc1
REMARK SMILES IDX 4 1 2 2 1 3 3 4 5 6 6 7 7 8 11 9 8 10 10 11 9 12
REMARK H PARENT 3 5
REMARK Flexibility Score: inf
ROOT
ATOM      1  C   UNL     1       5.027   1.714   0.666  1.00  0.00     0.127 C 
ENDROOT
BRANCH   1   2
ATOM      2  C   UNL     1       4.607   1.034   1.914  1.00  0.00     0.303 C 
ATOM      3  O   UNL     1       5.352   0.197   2.481  1.00  0.00    -0.252 OA
BRANCH   2   4
ATOM      4  O   UNL     1       3.376   1.303   2.490  1.00  0.00    -0.481 OA
ATOM      5  H   UNL     1       3.320   1.463   3.500  1.00  0.00     0.296 HD
ENDBRANCH   2   4
ENDBRANCH   1   2
BRANCH   1   6
ATOM      6  C   UNL     1       6.521   1.819   0.667  1.00  0.00     0.047 C 
BRANCH   6   7
ATOM      7  C   UNL     1       7.172   1.043  -0.387  1.00  0.00    -0.047 A 
ATOM      8  C   UNL     1       8.514   1.196  -0.647  1.00  0.00     0.004 A 
ATOM      9  C   UNL     1       6.426   0.149  -1.121  1.00  0.00     0.004 A 
ATOM     10  C   UNL     1       9.070   0.420  -1.667  1.00  0.00     0.000 A 
ATOM     11  C   UNL     1       6.977  -0.616  -2.129  1.00  0.00     0.000 A 
ATOM     12  C   UNL     1       8.321  -0.468  -2.396  1.00  0.00     0.000 A 
ENDBRANCH   6   7
ENDBRANCH   1   6
TORSDOF 4
ENDMDL
MODEL 4
REMARK VINA RESULT:      -6.7      3.774      4.945
REMARK SMILES O=C(O)CCc1ccccc1
REMARK SMILES IDX 4 1 2 2 1 3 3 4 5 6 6 7 7 8 11 9 8 10 10 11 9 12
REMARK H PARENT 3 5
REMARK Flexibility Score: inf
ROOT
ATOM      1  C   UNL     1       5.382   2.938   0.028  1.00  0.00     0.127 C 
ENDROOT
BRANCH   1   2
ATOM      2  C   UNL     1       6.221   3.878   0.808  1.00  0.00     0.303 C 
ATOM      3  O   UNL     1       6.925   4.748   0.238  1.00  0.00    -0.252 OA
BRANCH   2   4
ATOM      4  O   UNL     1       6.251   3.822   2.192  1.00  0.00    -0.481 OA
ATOM      5  H   UNL     1       5.621   3.180   2.681  1.00  0.00     0.296 HD
ENDBRANCH   2   4
ENDBRANCH   1   2
BRANCH   1   6
ATOM      6  C   UNL     1       4.935   1.837   0.941  1.00  0.00     0.047 C 
BRANCH   6   7
ATOM      7  C   UNL     1       5.734   0.617   0.836  1.00  0.00    -0.047 A 
ATOM      8  C   UNL     1       5.874  -0.226   1.914  1.00  0.00     0.004 A 
ATOM      9  C   UNL     1       6.347   0.317  -0.358  1.00  0.00     0.004 A 
ATOM     10  C   UNL     1       6.650  -1.374   1.742  1.00  0.00     0.000 A 
ATOM     11  C   UNL     1       7.115  -0.818  -0.526  1.00  0.00     0.000 A 
ATOM     12  C   UNL     1       7.261  -1.668   0.549  1.00  0.00     0.000 A 
ENDBRANCH   6   7
ENDBRANCH   1   6
TORSDOF 4
ENDMDL
MODEL 5
REMARK VINA RESULT:      -6.6      1.982      2.552
REMARK SMILES O=C(O)CCc1ccccc1
REMARK SMILES IDX 4 1 2 2 1 3 3 4 5 6 6 7 7 8 11 9 8 10 10 11 9 12
REMARK H PARENT 3 5
REMARK Flexibility Score: inf
ROOT
ATOM      1  C   UNL     1       7.974  -2.054   0.896  1.00  0.00     0.127 C 
ENDROOT
BRANCH   1   2
ATOM      2  C   UNL     1       8.726  -3.224   0.384  1.00  0.00     0.303 C 
ATOM      3  O   UNL     1       9.575  -3.815   1.097  1.00  0.00    -0.252 OA
BRANCH   2   4
ATOM      4  O   UNL     1       8.512  -3.699  -0.899  1.00  0.00    -0.481 OA
ATOM      5  H   UNL     1       7.876  -3.193  -1.521  1.00  0.00     0.296 HD
ENDBRANCH   2   4
ENDBRANCH   1   2
BRANCH   1   6
ATOM      6  C   UNL     1       7.353  -1.347  -0.269  1.00  0.00     0.047 C 
BRANCH   6   7
ATOM      7  C   UNL     1       6.500  -0.221   0.105  1.00  0.00    -0.047 A 
ATOM      8  C   UNL     1       5.949  -0.143   1.363  1.00  0.00     0.004 A 
ATOM      9  C   UNL     1       6.251   0.769  -0.818  1.00  0.00     0.004 A 
ATOM     10  C   UNL     1       5.145   0.962   1.651  1.00  0.00     0.000 A 
ATOM     11  C   UNL     1       5.456   1.860  -0.532  1.00  0.00     0.000 A 
ATOM     12  C   UNL     1       4.900   1.946   0.726  1.00  0.00     0.000 A 
ENDBRANCH   6   7
ENDBRANCH   1   6
TORSDOF 4
ENDMDL
