@<TRIPOS>MOLECULE
/home/cewinharhar/GITHUB/reincatalyze/data/processed/docking_pred/2023-Apr-26-1657_maxeplen10_maxtrainstep1000_exh32_gamma099_lrac9e-4_lrcr1e-3/7ac8f9624e71b352d93dccd4dc48cb56e96c53c0_ligand_2.pdbqt
 12 12 0 0 0
SMALL
GASTEIGER

@<TRIPOS>ATOM
      1  C          5.0270    1.7140    0.6660 C.3     1  UNL1        0.1270
      2  C          4.6070    1.0340    1.9140 C.2     1  UNL1        0.3030
      3  O          5.3520    0.1970    2.4810 O.2     1  UNL1       -0.2520
      4  O          3.3760    1.3030    2.4900 O.3     1  UNL1       -0.4810
      5  H          3.3200    1.4630    3.5000 H       1  UNL1        0.2960
      6  C          6.5210    1.8190    0.6670 C.3     1  UNL1        0.0470
      7  C          7.1720    1.0430   -0.3870 C.2     1  UNL1       -0.0470
      8  C          8.5140    1.1960   -0.6470 C.2     1  UNL1        0.0040
      9  C          6.4260    0.1490   -1.1210 C.2     1  UNL1        0.0040
     10  C          9.0700    0.4200   -1.6670 C.2     1  UNL1        0.0000
     11  C          6.9770   -0.6160   -2.1290 C.2     1  UNL1        0.0000
     12  C          8.3210   -0.4680   -2.3960 C.2     1  UNL1        0.0000
@<TRIPOS>BOND
     1    12    11    2
     2    12    10    1
     3    11     9    1
     4    10     8    2
     5     9     7    2
     6     8     7    1
     7     7     6    1
     8     1     6    1
     9     1     2    1
    10     2     3    2
    11     2     4    1
    12     4     5    1
