@<TRIPOS>MOLECULE
/home/cewinharhar/GITHUB/reincatalyze/data/processed/docking_pred/2023-Apr-26-1657_maxeplen10_maxtrainstep1000_exh32_gamma099_lrac9e-4_lrcr1e-3/7ac8f9624e71b352d93dccd4dc48cb56e96c53c0_ligand_2.pdbqt
 12 12 0 0 0
SMALL
GASTEIGER

@<TRIPOS>ATOM
      1  C          8.4060   -0.6180   -2.1140 C.3     1  UNL1        0.1270
      2  C          8.3860   -1.8840   -2.8840 C.2     1  UNL1        0.3030
      3  O          7.3040   -2.4240   -3.2220 O.2     1  UNL1       -0.2520
      4  O          9.5670   -2.5100   -3.2510 O.3     1  UNL1       -0.4810
      5  H         10.4170   -1.9500   -3.3610 H       1  UNL1        0.2960
      6  C          7.0150   -0.0610   -2.0890 C.3     1  UNL1        0.0470
      7  C          6.4620    0.0970   -0.7450 C.2     1  UNL1       -0.0470
      8  C          5.8290    1.2620   -0.3780 C.2     1  UNL1        0.0040
      9  C          6.5790   -0.9370    0.1550 C.2     1  UNL1        0.0040
     10  C          5.3240    1.3430    0.9220 C.2     1  UNL1        0.0000
     11  C          6.0790   -0.8550    1.4400 C.2     1  UNL1        0.0000
     12  C          5.4440    0.3090    1.8160 C.2     1  UNL1        0.0000
@<TRIPOS>BOND
     1     5     4    1
     2     4     2    1
     3     3     2    2
     4     2     1    1
     5     1     6    1
     6     6     7    1
     7     7     8    2
     8     7     9    1
     9     8    10    1
    10     9    11    2
    11    10    12    2
    12    11    12    1
