@<TRIPOS>MOLECULE
/home/cewinharhar/GITHUB/reincatalyze/data/processed/docking_pred/2023-Apr-26-1657_maxeplen10_maxtrainstep1000_exh32_gamma099_lrac9e-4_lrcr1e-3/7c86502248d8ce059d377094dc2c2500eee92fd7_ligand_2.pdbqt
 12 12 0 0 0
SMALL
GASTEIGER

@<TRIPOS>ATOM
      1  C          8.2040   -0.8750   -1.9250 C.3     1  UNL1        0.1270
      2  C          8.3680   -2.0070   -2.8680 C.2     1  UNL1        0.3030
      3  O          9.4990   -2.5030   -3.0980 O.2     1  UNL1       -0.2520
      4  O          7.2740   -2.5490   -3.5230 O.3     1  UNL1       -0.4810
      5  H          6.5880   -3.0890   -2.9890 H       1  UNL1        0.2960
      6  C          7.4390   -1.3630   -0.7330 C.3     1  UNL1        0.0470
      7  C          6.5940   -0.3440   -0.1120 C.2     1  UNL1       -0.0470
      8  C          6.1400   -0.4980    1.1780 C.2     1  UNL1        0.0040
      9  C          6.2550    0.7770   -0.8320 C.2     1  UNL1        0.0040
     10  C          5.3370    0.5150    1.7080 C.2     1  UNL1        0.0000
     11  C          5.4610    1.7780   -0.3070 C.2     1  UNL1        0.0000
     12  C          5.0020    1.6310    0.9840 C.2     1  UNL1        0.0000
@<TRIPOS>BOND
     1     4     5    1
     2     4     2    1
     3     3     2    2
     4     2     1    1
     5     1     6    1
     6     9    11    1
     7     9     7    2
     8     6     7    1
     9    11    12    2
    10     7     8    1
    11    12    10    1
    12     8    10    2
