MODEL 1
REMARK VINA RESULT:      -7.4      0.000      0.000
REMARK SMILES O=C(O)CCc1ccccc1
REMARK SMILES IDX 4 1 2 2 1 3 3 4 5 6 6 7 7 8 11 9 8 10 10 11 9 12
REMARK H PARENT 3 5
REMARK Flexibility Score: inf
ROOT
ATOM      1  C   UNL     1       8.485  -0.629  -2.130  1.00  0.00     0.127 C 
ENDROOT
BRANCH   1   2
ATOM      2  C   UNL     1       8.489  -1.901  -2.891  1.00  0.00     0.303 C 
ATOM      3  O   UNL     1       9.554  -2.537  -3.089  1.00  0.00    -0.252 OA
BRANCH   2   4
ATOM      4  O   UNL     1       7.314  -2.423  -3.408  1.00  0.00    -0.481 OA
ATOM      5  H   UNL     1       7.333  -3.335  -3.872  1.00  0.00     0.296 HD
ENDBRANCH   2   4
ENDBRANCH   1   2
BRANCH   1   6
ATOM      6  C   UNL     1       7.085  -0.094  -2.115  1.00  0.00     0.047 C 
BRANCH   6   7
ATOM      7  C   UNL     1       6.517   0.046  -0.776  1.00  0.00    -0.047 A 
ATOM      8  C   UNL     1       6.632  -0.968   0.147  1.00  0.00     0.004 A 
ATOM      9  C   UNL     1       5.862   1.209  -0.442  1.00  0.00     0.004 A 
ATOM     10  C   UNL     1       6.066  -0.765   1.407  1.00  0.00     0.000 A 
ATOM     11  C   UNL     1       5.303   1.408   0.804  1.00  0.00     0.000 A 
ATOM     12  C   UNL     1       5.413   0.397   1.734  1.00  0.00     0.000 A 
ENDBRANCH   6   7
ENDBRANCH   1   6
TORSDOF 4
ENDMDL
MODEL 2
REMARK VINA RESULT:      -7.4      0.073      1.438
REMARK SMILES O=C(O)CCc1ccccc1
REMARK SMILES IDX 4 1 2 2 1 3 3 4 5 6 6 7 7 8 11 9 8 10 10 11 9 12
REMARK H PARENT 3 5
REMARK Flexibility Score: inf
ROOT
ATOM      1  C   UNL     1       8.445  -0.637  -2.108  1.00  0.00     0.127 C 
ENDROOT
BRANCH   1   2
ATOM      2  C   UNL     1       8.469  -1.906  -2.873  1.00  0.00     0.303 C 
ATOM      3  O   UNL     1       9.543  -2.526  -3.072  1.00  0.00    -0.252 OA
BRANCH   2   4
ATOM      4  O   UNL     1       7.302  -2.445  -3.391  1.00  0.00    -0.481 OA
ATOM      5  H   UNL     1       6.495  -2.576  -2.775  1.00  0.00     0.296 HD
ENDBRANCH   2   4
ENDBRANCH   1   2
BRANCH   1   6
ATOM      6  C   UNL     1       7.039  -0.121  -2.095  1.00  0.00     0.047 C 
BRANCH   6   7
ATOM      7  C   UNL     1       6.482   0.054  -0.754  1.00  0.00    -0.047 A 
ATOM      8  C   UNL     1       5.846   1.222  -0.404  1.00  0.00     0.004 A 
ATOM      9  C   UNL     1       6.600  -0.967   0.160  1.00  0.00     0.004 A 
ATOM     10  C   UNL     1       5.337   1.320   0.893  1.00  0.00     0.000 A 
ATOM     11  C   UNL     1       6.097  -0.869   1.442  1.00  0.00     0.000 A 
ATOM     12  C   UNL     1       5.458   0.299   1.801  1.00  0.00     0.000 A 
ENDBRANCH   6   7
ENDBRANCH   1   6
TORSDOF 4
ENDMDL
MODEL 3
REMARK VINA RESULT:      -7.3      0.604      1.063
REMARK SMILES O=C(O)CCc1ccccc1
REMARK SMILES IDX 4 1 2 2 1 3 3 4 5 6 6 7 7 8 11 9 8 10 10 11 9 12
REMARK H PARENT 3 5
REMARK Flexibility Score: inf
ROOT
ATOM      1  C   UNL     1       8.204  -0.875  -1.925  1.00  0.00     0.127 C 
ENDROOT
BRANCH   1   2
ATOM      2  C   UNL     1       8.368  -2.007  -2.868  1.00  0.00     0.303 C 
ATOM      3  O   UNL     1       9.499  -2.503  -3.098  1.00  0.00    -0.252 OA
BRANCH   2   4
ATOM      4  O   UNL     1       7.274  -2.549  -3.523  1.00  0.00    -0.481 OA
ATOM      5  H   UNL     1       6.588  -3.089  -2.989  1.00  0.00     0.296 HD
ENDBRANCH   2   4
ENDBRANCH   1   2
BRANCH   1   6
ATOM      6  C   UNL     1       7.439  -1.363  -0.733  1.00  0.00     0.047 C 
BRANCH   6   7
ATOM      7  C   UNL     1       6.594  -0.344  -0.112  1.00  0.00    -0.047 A 
ATOM      8  C   UNL     1       6.140  -0.498   1.178  1.00  0.00     0.004 A 
ATOM      9  C   UNL     1       6.255   0.777  -0.832  1.00  0.00     0.004 A 
ATOM     10  C   UNL     1       5.337   0.515   1.708  1.00  0.00     0.000 A 
ATOM     11  C   UNL     1       5.461   1.778  -0.307  1.00  0.00     0.000 A 
ATOM     12  C   UNL     1       5.002   1.631   0.984  1.00  0.00     0.000 A 
ENDBRANCH   6   7
ENDBRANCH   1   6
TORSDOF 4
ENDMDL
MODEL 4
REMARK VINA RESULT:      -6.8      3.366      5.062
REMARK SMILES O=C(O)CCc1ccccc1
REMARK SMILES IDX 4 1 2 2 1 3 3 4 5 6 6 7 7 8 11 9 8 10 10 11 9 12
REMARK H PARENT 3 5
REMARK Flexibility Score: inf
ROOT
ATOM      1  C   UNL     1       4.987   1.809   0.699  1.00  0.00     0.127 C 
ENDROOT
BRANCH   1   2
ATOM      2  C   UNL     1       4.479   1.120   1.909  1.00  0.00     0.303 C 
ATOM      3  O   UNL     1       5.143   0.213   2.468  1.00  0.00    -0.252 OA
BRANCH   2   4
ATOM      4  O   UNL     1       3.253   1.461   2.457  1.00  0.00    -0.481 OA
ATOM      5  H   UNL     1       3.053   2.443   2.668  1.00  0.00     0.296 HD
ENDBRANCH   2   4
ENDBRANCH   1   2
BRANCH   1   6
ATOM      6  C   UNL     1       6.484   1.800   0.746  1.00  0.00     0.047 C 
BRANCH   6   7
ATOM      7  C   UNL     1       7.109   1.044  -0.338  1.00  0.00    -0.047 A 
ATOM      8  C   UNL     1       6.379   0.143  -1.079  1.00  0.00     0.004 A 
ATOM      9  C   UNL     1       8.442   1.242  -0.614  1.00  0.00     0.004 A 
ATOM     10  C   UNL     1       7.040  -0.544  -2.099  1.00  0.00     0.000 A 
ATOM     11  C   UNL     1       9.094   0.562  -1.623  1.00  0.00     0.000 A 
ATOM     12  C   UNL     1       8.370  -0.342  -2.369  1.00  0.00     0.000 A 
ENDBRANCH   6   7
ENDBRANCH   1   6
TORSDOF 4
ENDMDL
MODEL 5
REMARK VINA RESULT:      -6.7      3.828      4.924
REMARK SMILES O=C(O)CCc1ccccc1
REMARK SMILES IDX 4 1 2 2 1 3 3 4 5 6 6 7 7 8 11 9 8 10 10 11 9 12
REMARK H PARENT 3 5
REMARK Flexibility Score: inf
ROOT
ATOM      1  C   UNL     1       5.530   2.850  -0.027  1.00  0.00     0.127 C 
ENDROOT
BRANCH   1   2
ATOM      2  C   UNL     1       6.265   3.846   0.788  1.00  0.00     0.303 C 
ATOM      3  O   UNL     1       6.916   4.774   0.248  1.00  0.00    -0.252 OA
BRANCH   2   4
ATOM      4  O   UNL     1       6.253   3.780   2.172  1.00  0.00    -0.481 OA
ATOM      5  H   UNL     1       6.627   2.948   2.637  1.00  0.00     0.296 HD
ENDBRANCH   2   4
ENDBRANCH   1   2
BRANCH   1   6
ATOM      6  C   UNL     1       4.950   1.822   0.897  1.00  0.00     0.047 C 
BRANCH   6   7
ATOM      7  C   UNL     1       5.717   0.579   0.960  1.00  0.00    -0.047 A 
ATOM      8  C   UNL     1       5.778  -0.152   2.124  1.00  0.00     0.004 A 
ATOM      9  C   UNL     1       6.379   0.142  -0.164  1.00  0.00     0.004 A 
ATOM     10  C   UNL     1       6.528  -1.330   2.111  1.00  0.00     0.000 A 
ATOM     11  C   UNL     1       7.121  -1.023  -0.174  1.00  0.00     0.000 A 
ATOM     12  C   UNL     1       7.188  -1.761   0.988  1.00  0.00     0.000 A 
ENDBRANCH   6   7
ENDBRANCH   1   6
TORSDOF 4
ENDMDL
