@<TRIPOS>MOLECULE
/home/cewinharhar/GITHUB/reincatalyze/data/processed/docking_pred/2023-Apr-26-1657_maxeplen10_maxtrainstep1000_exh32_gamma099_lrac9e-4_lrcr1e-3/7c86502248d8ce059d377094dc2c2500eee92fd7_ligand_2.pdbqt
 12 12 0 0 0
SMALL
GASTEIGER

@<TRIPOS>ATOM
      1  C          8.4850   -0.6290   -2.1300 C.3     1  UNL1        0.1270
      2  C          8.4890   -1.9010   -2.8910 C.2     1  UNL1        0.3030
      3  O          9.5540   -2.5370   -3.0890 O.2     1  UNL1       -0.2520
      4  O          7.3140   -2.4230   -3.4080 O.3     1  UNL1       -0.4810
      5  H          7.3330   -3.3350   -3.8720 H       1  UNL1        0.2960
      6  C          7.0850   -0.0940   -2.1150 C.3     1  UNL1        0.0470
      7  C          6.5170    0.0460   -0.7760 C.2     1  UNL1       -0.0470
      8  C          6.6320   -0.9680    0.1470 C.2     1  UNL1        0.0040
      9  C          5.8620    1.2090   -0.4420 C.2     1  UNL1        0.0040
     10  C          6.0660   -0.7650    1.4070 C.2     1  UNL1        0.0000
     11  C          5.3030    1.4080    0.8040 C.2     1  UNL1        0.0000
     12  C          5.4130    0.3970    1.7340 C.2     1  UNL1        0.0000
@<TRIPOS>BOND
     1     5     4    1
     2     4     2    1
     3     3     2    2
     4     2     1    1
     5     1     6    1
     6     6     7    1
     7     7     9    2
     8     7     8    1
     9     9    11    1
    10     8    10    2
    11    11    12    2
    12    10    12    1
