@<TRIPOS>MOLECULE
/home/cewinharhar/GITHUB/reincatalyze/data/processed/docking_pred/2023-Apr-26-1657_maxeplen10_maxtrainstep1000_exh32_gamma099_lrac9e-4_lrcr1e-3/7c86502248d8ce059d377094dc2c2500eee92fd7_ligand_2.pdbqt
 12 12 0 0 0
SMALL
GASTEIGER

@<TRIPOS>ATOM
      1  C          5.5300    2.8500   -0.0270 C.3     1  UNL1        0.1270
      2  C          6.2650    3.8460    0.7880 C.2     1  UNL1        0.3030
      3  O          6.9160    4.7740    0.2480 O.2     1  UNL1       -0.2520
      4  O          6.2530    3.7800    2.1720 O.3     1  UNL1       -0.4810
      5  H          6.6270    2.9480    2.6370 H       1  UNL1        0.2960
      6  C          4.9500    1.8220    0.8970 C.3     1  UNL1        0.0470
      7  C          5.7170    0.5790    0.9600 C.2     1  UNL1       -0.0470
      8  C          5.7780   -0.1520    2.1240 C.2     1  UNL1        0.0040
      9  C          6.3790    0.1420   -0.1640 C.2     1  UNL1        0.0040
     10  C          6.5280   -1.3300    2.1110 C.2     1  UNL1        0.0000
     11  C          7.1210   -1.0230   -0.1740 C.2     1  UNL1        0.0000
     12  C          7.1880   -1.7610    0.9880 C.2     1  UNL1        0.0000
@<TRIPOS>BOND
     1    11     9    1
     2    11    12    2
     3     9     7    2
     4     1     2    1
     5     1     6    1
     6     3     2    2
     7     2     4    1
     8     6     7    1
     9     7     8    1
    10    12    10    1
    11    10     8    2
    12     4     5    1
