@<TRIPOS>MOLECULE
/home/cewinharhar/GITHUB/reincatalyze/data/processed/docking_pred/2023-Apr-26-1657_maxeplen10_maxtrainstep1000_exh32_gamma099_lrac9e-4_lrcr1e-3/7c86502248d8ce059d377094dc2c2500eee92fd7_ligand_2.pdbqt
 12 12 0 0 0
SMALL
GASTEIGER

@<TRIPOS>ATOM
      1  C          8.4450   -0.6370   -2.1080 C.3     1  UNL1        0.1270
      2  C          8.4690   -1.9060   -2.8730 C.2     1  UNL1        0.3030
      3  O          9.5430   -2.5260   -3.0720 O.2     1  UNL1       -0.2520
      4  O          7.3020   -2.4450   -3.3910 O.3     1  UNL1       -0.4810
      5  H          6.4950   -2.5760   -2.7750 H       1  UNL1        0.2960
      6  C          7.0390   -0.1210   -2.0950 C.3     1  UNL1        0.0470
      7  C          6.4820    0.0540   -0.7540 C.2     1  UNL1       -0.0470
      8  C          5.8460    1.2220   -0.4040 C.2     1  UNL1        0.0040
      9  C          6.6000   -0.9670    0.1600 C.2     1  UNL1        0.0040
     10  C          5.3370    1.3200    0.8930 C.2     1  UNL1        0.0000
     11  C          6.0970   -0.8690    1.4420 C.2     1  UNL1        0.0000
     12  C          5.4580    0.2990    1.8010 C.2     1  UNL1        0.0000
@<TRIPOS>BOND
     1     4     2    1
     2     4     5    1
     3     3     2    2
     4     2     1    1
     5     1     6    1
     6     6     7    1
     7     7     8    2
     8     7     9    1
     9     8    10    1
    10     9    11    2
    11    10    12    2
    12    11    12    1
