@<TRIPOS>MOLECULE
/home/cewinharhar/GITHUB/reincatalyze/data/processed/docking_pred/2023-Apr-26-1657_maxeplen10_maxtrainstep1000_exh32_gamma099_lrac9e-4_lrcr1e-3/7c86502248d8ce059d377094dc2c2500eee92fd7_ligand_2.pdbqt
 12 12 0 0 0
SMALL
GASTEIGER

@<TRIPOS>ATOM
      1  C          4.9870    1.8090    0.6990 C.3     1  UNL1        0.1270
      2  C          4.4790    1.1200    1.9090 C.2     1  UNL1        0.3030
      3  O          5.1430    0.2130    2.4680 O.2     1  UNL1       -0.2520
      4  O          3.2530    1.4610    2.4570 O.3     1  UNL1       -0.4810
      5  H          3.0530    2.4430    2.6680 H       1  UNL1        0.2960
      6  C          6.4840    1.8000    0.7460 C.3     1  UNL1        0.0470
      7  C          7.1090    1.0440   -0.3380 C.2     1  UNL1       -0.0470
      8  C          6.3790    0.1430   -1.0790 C.2     1  UNL1        0.0040
      9  C          8.4420    1.2420   -0.6140 C.2     1  UNL1        0.0040
     10  C          7.0400   -0.5440   -2.0990 C.2     1  UNL1        0.0000
     11  C          9.0940    0.5620   -1.6230 C.2     1  UNL1        0.0000
     12  C          8.3700   -0.3420   -2.3690 C.2     1  UNL1        0.0000
@<TRIPOS>BOND
     1    12    10    2
     2    12    11    1
     3    10     8    1
     4    11     9    2
     5     8     7    2
     6     9     7    1
     7     7     6    1
     8     1     6    1
     9     1     2    1
    10     2     4    1
    11     2     3    2
    12     4     5    1
