@<TRIPOS>MOLECULE
/home/cewinharhar/GITHUB/reincatalyze/data/processed/docking_pred/2023-Apr-26-1657_maxeplen10_maxtrainstep1000_exh32_gamma099_lrac9e-4_lrcr1e-3/7d60c2a66717a3f4b6d307e9593656cfb0aaeeb8_ligand_2.pdbqt
 12 12 0 0 0
SMALL
GASTEIGER

@<TRIPOS>ATOM
      1  C          5.0440    1.8040    0.6440 C.3     1  UNL1        0.1270
      2  C          4.5320    1.1480    1.8700 C.2     1  UNL1        0.3030
      3  O          5.2030    0.2690    2.4660 O.2     1  UNL1       -0.2520
      4  O          3.2950    1.4880    2.3940 O.3     1  UNL1       -0.4810
      5  H          3.0930    2.4690    2.6070 H       1  UNL1        0.2960
      6  C          6.5410    1.8060    0.7000 C.3     1  UNL1        0.0470
      7  C          7.1770    1.0410   -0.3720 C.2     1  UNL1       -0.0470
      8  C          8.5070    1.2220   -0.6710 C.2     1  UNL1        0.0040
      9  C          6.4290    0.1310   -1.0830 C.2     1  UNL1        0.0040
     10  C          9.0480    0.4570   -1.7070 C.2     1  UNL1        0.0000
     11  C          6.9650   -0.6240   -2.1060 C.2     1  UNL1        0.0000
     12  C          8.2970   -0.4480   -2.4130 C.2     1  UNL1        0.0000
@<TRIPOS>BOND
     1    12    11    2
     2    12    10    1
     3    11     9    1
     4    10     8    2
     5     9     7    2
     6     8     7    1
     7     7     6    1
     8     1     6    1
     9     1     2    1
    10     2     4    1
    11     2     3    2
    12     4     5    1
