MODEL 1
REMARK VINA RESULT:      -7.4      0.000      0.000
REMARK SMILES O=C(O)CCc1ccccc1
REMARK SMILES IDX 4 1 2 2 1 3 3 4 5 6 6 7 7 8 11 9 8 10 10 11 9 12
REMARK H PARENT 3 5
REMARK Flexibility Score: inf
ROOT
ATOM      1  C   UNL     1       8.433  -0.586  -2.200  1.00  0.00     0.127 C 
ENDROOT
BRANCH   1   2
ATOM      2  C   UNL     1       8.479  -1.883  -2.915  1.00  0.00     0.303 C 
ATOM      3  O   UNL     1       9.561  -2.500  -3.076  1.00  0.00    -0.252 OA
BRANCH   2   4
ATOM      4  O   UNL     1       7.324  -2.452  -3.428  1.00  0.00    -0.481 OA
ATOM      5  H   UNL     1       6.590  -2.762  -2.786  1.00  0.00     0.296 HD
ENDBRANCH   2   4
ENDBRANCH   1   2
BRANCH   1   6
ATOM      6  C   UNL     1       7.010  -0.121  -2.160  1.00  0.00     0.047 C 
BRANCH   6   7
ATOM      7  C   UNL     1       6.477   0.045  -0.809  1.00  0.00    -0.047 A 
ATOM      8  C   UNL     1       6.611  -0.954   0.128  1.00  0.00     0.004 A 
ATOM      9  C   UNL     1       5.836   1.217  -0.479  1.00  0.00     0.004 A 
ATOM     10  C   UNL     1       6.079  -0.726   1.399  1.00  0.00     0.000 A 
ATOM     11  C   UNL     1       5.310   1.440   0.778  1.00  0.00     0.000 A 
ATOM     12  C   UNL     1       5.440   0.444   1.722  1.00  0.00     0.000 A 
ENDBRANCH   6   7
ENDBRANCH   1   6
TORSDOF 4
ENDMDL
MODEL 2
REMARK VINA RESULT:      -7.3      0.088      1.439
REMARK SMILES O=C(O)CCc1ccccc1
REMARK SMILES IDX 4 1 2 2 1 3 3 4 5 6 6 7 7 8 11 9 8 10 10 11 9 12
REMARK H PARENT 3 5
REMARK Flexibility Score: inf
ROOT
ATOM      1  C   UNL     1       8.416  -0.573  -2.216  1.00  0.00     0.127 C 
ENDROOT
BRANCH   1   2
ATOM      2  C   UNL     1       8.478  -1.876  -2.921  1.00  0.00     0.303 C 
ATOM      3  O   UNL     1       9.569  -2.477  -3.081  1.00  0.00    -0.252 OA
BRANCH   2   4
ATOM      4  O   UNL     1       7.330  -2.466  -3.425  1.00  0.00    -0.481 OA
ATOM      5  H   UNL     1       6.418  -2.177  -3.062  1.00  0.00     0.296 HD
ENDBRANCH   2   4
ENDBRANCH   1   2
BRANCH   1   6
ATOM      6  C   UNL     1       6.984  -0.134  -2.165  1.00  0.00     0.047 C 
BRANCH   6   7
ATOM      7  C   UNL     1       6.466   0.045  -0.810  1.00  0.00    -0.047 A 
ATOM      8  C   UNL     1       5.836   1.213  -0.447  1.00  0.00     0.004 A 
ATOM      9  C   UNL     1       6.613  -0.971   0.106  1.00  0.00     0.004 A 
ATOM     10  C   UNL     1       5.365   1.315   0.864  1.00  0.00     0.000 A 
ATOM     11  C   UNL     1       6.147  -0.868   1.401  1.00  0.00     0.000 A 
ATOM     12  C   UNL     1       5.515   0.299   1.773  1.00  0.00     0.000 A 
ENDBRANCH   6   7
ENDBRANCH   1   6
TORSDOF 4
ENDMDL
MODEL 3
REMARK VINA RESULT:      -7.3      0.634      1.082
REMARK SMILES O=C(O)CCc1ccccc1
REMARK SMILES IDX 4 1 2 2 1 3 3 4 5 6 6 7 7 8 11 9 8 10 10 11 9 12
REMARK H PARENT 3 5
REMARK Flexibility Score: inf
ROOT
ATOM      1  C   UNL     1       8.256  -0.916  -1.854  1.00  0.00     0.127 C 
ENDROOT
BRANCH   1   2
ATOM      2  C   UNL     1       8.404  -2.011  -2.841  1.00  0.00     0.303 C 
ATOM      3  O   UNL     1       9.531  -2.496  -3.111  1.00  0.00    -0.252 OA
BRANCH   2   4
ATOM      4  O   UNL     1       7.299  -2.531  -3.496  1.00  0.00    -0.481 OA
ATOM      5  H   UNL     1       6.468  -2.782  -2.954  1.00  0.00     0.296 HD
ENDBRANCH   2   4
ENDBRANCH   1   2
BRANCH   1   6
ATOM      6  C   UNL     1       7.368  -1.397  -0.747  1.00  0.00     0.047 C 
BRANCH   6   7
ATOM      7  C   UNL     1       6.556  -0.346  -0.136  1.00  0.00    -0.047 A 
ATOM      8  C   UNL     1       6.130  -0.454   1.167  1.00  0.00     0.004 A 
ATOM      9  C   UNL     1       6.221   0.761  -0.881  1.00  0.00     0.004 A 
ATOM     10  C   UNL     1       5.359   0.589   1.685  1.00  0.00     0.000 A 
ATOM     11  C   UNL     1       5.458   1.791  -0.367  1.00  0.00     0.000 A 
ATOM     12  C   UNL     1       5.027   1.690   0.937  1.00  0.00     0.000 A 
ENDBRANCH   6   7
ENDBRANCH   1   6
TORSDOF 4
ENDMDL
MODEL 4
REMARK VINA RESULT:      -6.7      3.369      5.062
REMARK SMILES O=C(O)CCc1ccccc1
REMARK SMILES IDX 4 1 2 2 1 3 3 4 5 6 6 7 7 8 11 9 8 10 10 11 9 12
REMARK H PARENT 3 5
REMARK Flexibility Score: inf
ROOT
ATOM      1  C   UNL     1       5.044   1.804   0.644  1.00  0.00     0.127 C 
ENDROOT
BRANCH   1   2
ATOM      2  C   UNL     1       4.532   1.148   1.870  1.00  0.00     0.303 C 
ATOM      3  O   UNL     1       5.203   0.269   2.466  1.00  0.00    -0.252 OA
BRANCH   2   4
ATOM      4  O   UNL     1       3.295   1.488   2.394  1.00  0.00    -0.481 OA
ATOM      5  H   UNL     1       3.093   2.469   2.607  1.00  0.00     0.296 HD
ENDBRANCH   2   4
ENDBRANCH   1   2
BRANCH   1   6
ATOM      6  C   UNL     1       6.541   1.806   0.700  1.00  0.00     0.047 C 
BRANCH   6   7
ATOM      7  C   UNL     1       7.177   1.041  -0.372  1.00  0.00    -0.047 A 
ATOM      8  C   UNL     1       8.507   1.222  -0.671  1.00  0.00     0.004 A 
ATOM      9  C   UNL     1       6.429   0.131  -1.083  1.00  0.00     0.004 A 
ATOM     10  C   UNL     1       9.048   0.457  -1.707  1.00  0.00     0.000 A 
ATOM     11  C   UNL     1       6.965  -0.624  -2.106  1.00  0.00     0.000 A 
ATOM     12  C   UNL     1       8.297  -0.448  -2.413  1.00  0.00     0.000 A 
ENDBRANCH   6   7
ENDBRANCH   1   6
TORSDOF 4
ENDMDL
MODEL 5
REMARK VINA RESULT:      -6.7      1.973      2.306
REMARK SMILES O=C(O)CCc1ccccc1
REMARK SMILES IDX 4 1 2 2 1 3 3 4 5 6 6 7 7 8 11 9 8 10 10 11 9 12
REMARK H PARENT 3 5
REMARK Flexibility Score: inf
ROOT
ATOM      1  C   UNL     1       8.284   0.377  -2.067  1.00  0.00     0.127 C 
ENDROOT
BRANCH   1   2
ATOM      2  C   UNL     1       9.449   0.419  -1.153  1.00  0.00     0.303 C 
ATOM      3  O   UNL     1       9.529  -0.351  -0.164  1.00  0.00    -0.252 OA
BRANCH   2   4
ATOM      4  O   UNL     1      10.486   1.314  -1.366  1.00  0.00    -0.481 OA
ATOM      5  H   UNL     1      10.636   2.075  -0.698  1.00  0.00     0.296 HD
ENDBRANCH   2   4
ENDBRANCH   1   2
BRANCH   1   6
ATOM      6  C   UNL     1       7.226  -0.481  -1.442  1.00  0.00     0.047 C 
BRANCH   6   7
ATOM      7  C   UNL     1       6.405   0.215  -0.452  1.00  0.00    -0.047 A 
ATOM      8  C   UNL     1       6.204  -0.323   0.798  1.00  0.00     0.004 A 
ATOM      9  C   UNL     1       5.832   1.421  -0.783  1.00  0.00     0.004 A 
ATOM     10  C   UNL     1       5.409   0.396   1.693  1.00  0.00     0.000 A 
ATOM     11  C   UNL     1       5.046   2.131   0.103  1.00  0.00     0.000 A 
ATOM     12  C   UNL     1       4.840   1.599   1.357  1.00  0.00     0.000 A 
ENDBRANCH   6   7
ENDBRANCH   1   6
TORSDOF 4
ENDMDL
