@<TRIPOS>MOLECULE
/home/cewinharhar/GITHUB/reincatalyze/data/processed/docking_pred/2023-Apr-26-1657_maxeplen10_maxtrainstep1000_exh32_gamma099_lrac9e-4_lrcr1e-3/7d60c2a66717a3f4b6d307e9593656cfb0aaeeb8_ligand_2.pdbqt
 12 12 0 0 0
SMALL
GASTEIGER

@<TRIPOS>ATOM
      1  C          8.4330   -0.5860   -2.2000 C.3     1  UNL1        0.1270
      2  C          8.4790   -1.8830   -2.9150 C.2     1  UNL1        0.3030
      3  O          9.5610   -2.5000   -3.0760 O.2     1  UNL1       -0.2520
      4  O          7.3240   -2.4520   -3.4280 O.3     1  UNL1       -0.4810
      5  H          6.5900   -2.7620   -2.7860 H       1  UNL1        0.2960
      6  C          7.0100   -0.1210   -2.1600 C.3     1  UNL1        0.0470
      7  C          6.4770    0.0450   -0.8090 C.2     1  UNL1       -0.0470
      8  C          6.6110   -0.9540    0.1280 C.2     1  UNL1        0.0040
      9  C          5.8360    1.2170   -0.4790 C.2     1  UNL1        0.0040
     10  C          6.0790   -0.7260    1.3990 C.2     1  UNL1        0.0000
     11  C          5.3100    1.4400    0.7780 C.2     1  UNL1        0.0000
     12  C          5.4400    0.4440    1.7220 C.2     1  UNL1        0.0000
@<TRIPOS>BOND
     1     4     2    1
     2     4     5    1
     3     3     2    2
     4     2     1    1
     5     1     6    1
     6     6     7    1
     7     7     9    2
     8     7     8    1
     9     9    11    1
    10     8    10    2
    11    11    12    2
    12    10    12    1
