@<TRIPOS>MOLECULE
/home/cewinharhar/GITHUB/reincatalyze/data/processed/docking_pred/2023-Apr-26-1657_maxeplen10_maxtrainstep1000_exh32_gamma099_lrac9e-4_lrcr1e-3/7d60c2a66717a3f4b6d307e9593656cfb0aaeeb8_ligand_2.pdbqt
 12 12 0 0 0
SMALL
GASTEIGER

@<TRIPOS>ATOM
      1  C          8.2840    0.3770   -2.0670 C.3     1  UNL1        0.1270
      2  C          9.4490    0.4190   -1.1530 C.2     1  UNL1        0.3030
      3  O          9.5290   -0.3510   -0.1640 O.2     1  UNL1       -0.2520
      4  O         10.4860    1.3140   -1.3660 O.3     1  UNL1       -0.4810
      5  H         10.6360    2.0750   -0.6980 H       1  UNL1        0.2960
      6  C          7.2260   -0.4810   -1.4420 C.3     1  UNL1        0.0470
      7  C          6.4050    0.2150   -0.4520 C.2     1  UNL1       -0.0470
      8  C          6.2040   -0.3230    0.7980 C.2     1  UNL1        0.0040
      9  C          5.8320    1.4210   -0.7830 C.2     1  UNL1        0.0040
     10  C          5.4090    0.3960    1.6930 C.2     1  UNL1        0.0000
     11  C          5.0460    2.1310    0.1030 C.2     1  UNL1        0.0000
     12  C          4.8400    1.5990    1.3570 C.2     1  UNL1        0.0000
@<TRIPOS>BOND
     1     1     6    1
     2     1     2    1
     3     6     7    1
     4     4     2    1
     5     4     5    1
     6     2     3    2
     7     9     7    2
     8     9    11    1
     9     7     8    1
    10    11    12    2
    11     8    10    2
    12    12    10    1
