@<TRIPOS>MOLECULE
/home/cewinharhar/GITHUB/reincatalyze/data/processed/docking_pred/2023-Apr-26-1657_maxeplen10_maxtrainstep1000_exh32_gamma099_lrac9e-4_lrcr1e-3/7d60c2a66717a3f4b6d307e9593656cfb0aaeeb8_ligand_2.pdbqt
 12 12 0 0 0
SMALL
GASTEIGER

@<TRIPOS>ATOM
      1  C          8.2560   -0.9160   -1.8540 C.3     1  UNL1        0.1270
      2  C          8.4040   -2.0110   -2.8410 C.2     1  UNL1        0.3030
      3  O          9.5310   -2.4960   -3.1110 O.2     1  UNL1       -0.2520
      4  O          7.2990   -2.5310   -3.4960 O.3     1  UNL1       -0.4810
      5  H          6.4680   -2.7820   -2.9540 H       1  UNL1        0.2960
      6  C          7.3680   -1.3970   -0.7470 C.3     1  UNL1        0.0470
      7  C          6.5560   -0.3460   -0.1360 C.2     1  UNL1       -0.0470
      8  C          6.1300   -0.4540    1.1670 C.2     1  UNL1        0.0040
      9  C          6.2210    0.7610   -0.8810 C.2     1  UNL1        0.0040
     10  C          5.3590    0.5890    1.6850 C.2     1  UNL1        0.0000
     11  C          5.4580    1.7910   -0.3670 C.2     1  UNL1        0.0000
     12  C          5.0270    1.6900    0.9370 C.2     1  UNL1        0.0000
@<TRIPOS>BOND
     1     4     5    1
     2     4     2    1
     3     3     2    2
     4     2     1    1
     5     1     6    1
     6     9    11    1
     7     9     7    2
     8     6     7    1
     9    11    12    2
    10     7     8    1
    11    12    10    1
    12     8    10    2
