@<TRIPOS>MOLECULE
/home/cewinharhar/GITHUB/reincatalyze/data/processed/docking_pred/2023-Apr-26-1657_maxeplen10_maxtrainstep1000_exh32_gamma099_lrac9e-4_lrcr1e-3/7d60c2a66717a3f4b6d307e9593656cfb0aaeeb8_ligand_2.pdbqt
 12 12 0 0 0
SMALL
GASTEIGER

@<TRIPOS>ATOM
      1  C          8.4160   -0.5730   -2.2160 C.3     1  UNL1        0.1270
      2  C          8.4780   -1.8760   -2.9210 C.2     1  UNL1        0.3030
      3  O          9.5690   -2.4770   -3.0810 O.2     1  UNL1       -0.2520
      4  O          7.3300   -2.4660   -3.4250 O.3     1  UNL1       -0.4810
      5  H          6.4180   -2.1770   -3.0620 H       1  UNL1        0.2960
      6  C          6.9840   -0.1340   -2.1650 C.3     1  UNL1        0.0470
      7  C          6.4660    0.0450   -0.8100 C.2     1  UNL1       -0.0470
      8  C          5.8360    1.2130   -0.4470 C.2     1  UNL1        0.0040
      9  C          6.6130   -0.9710    0.1060 C.2     1  UNL1        0.0040
     10  C          5.3650    1.3150    0.8640 C.2     1  UNL1        0.0000
     11  C          6.1470   -0.8680    1.4010 C.2     1  UNL1        0.0000
     12  C          5.5150    0.2990    1.7730 C.2     1  UNL1        0.0000
@<TRIPOS>BOND
     1     4     5    1
     2     4     2    1
     3     3     2    2
     4     2     1    1
     5     1     6    1
     6     6     7    1
     7     7     8    2
     8     7     9    1
     9     8    10    1
    10     9    11    2
    11    10    12    2
    12    11    12    1
