MODEL 1
REMARK VINA RESULT:      -7.3      0.000      0.000
REMARK SMILES O=C(O)CCc1ccccc1
REMARK SMILES IDX 4 1 2 2 1 3 3 4 5 6 6 7 7 8 11 9 8 10 10 11 9 12
REMARK H PARENT 3 5
REMARK Flexibility Score: inf
ROOT
ATOM      1  C   UNL     1       8.423  -0.550  -2.240  1.00  0.00     0.127 C 
ENDROOT
BRANCH   1   2
ATOM      2  C   UNL     1       8.475  -1.863  -2.923  1.00  0.00     0.303 C 
ATOM      3  O   UNL     1       9.558  -2.483  -3.062  1.00  0.00    -0.252 OA
BRANCH   2   4
ATOM      4  O   UNL     1       7.324  -2.446  -3.430  1.00  0.00    -0.481 OA
ATOM      5  H   UNL     1       6.858  -3.184  -2.895  1.00  0.00     0.296 HD
ENDBRANCH   2   4
ENDBRANCH   1   2
BRANCH   1   6
ATOM      6  C   UNL     1       6.993  -0.104  -2.183  1.00  0.00     0.047 C 
BRANCH   6   7
ATOM      7  C   UNL     1       6.475   0.058  -0.826  1.00  0.00    -0.047 A 
ATOM      8  C   UNL     1       6.607  -0.948   0.103  1.00  0.00     0.004 A 
ATOM      9  C   UNL     1       5.851   1.235  -0.482  1.00  0.00     0.004 A 
ATOM     10  C   UNL     1       6.089  -0.724   1.380  1.00  0.00     0.000 A 
ATOM     11  C   UNL     1       5.339   1.455   0.781  1.00  0.00     0.000 A 
ATOM     12  C   UNL     1       5.466   0.452   1.717  1.00  0.00     0.000 A 
ENDBRANCH   6   7
ENDBRANCH   1   6
TORSDOF 4
ENDMDL
MODEL 2
REMARK VINA RESULT:      -7.3      0.147      1.733
REMARK SMILES O=C(O)CCc1ccccc1
REMARK SMILES IDX 4 1 2 2 1 3 3 4 5 6 6 7 7 8 11 9 8 10 10 11 9 12
REMARK H PARENT 3 5
REMARK Flexibility Score: inf
ROOT
ATOM      1  C   UNL     1       8.398  -0.625  -2.111  1.00  0.00     0.127 C 
ENDROOT
BRANCH   1   2
ATOM      2  C   UNL     1       8.369  -1.886  -2.891  1.00  0.00     0.303 C 
ATOM      3  O   UNL     1       7.284  -2.405  -3.249  1.00  0.00    -0.252 OA
BRANCH   2   4
ATOM      4  O   UNL     1       9.545  -2.527  -3.246  1.00  0.00    -0.481 OA
ATOM      5  H   UNL     1       9.664  -3.518  -3.016  1.00  0.00     0.296 HD
ENDBRANCH   2   4
ENDBRANCH   1   2
BRANCH   1   6
ATOM      6  C   UNL     1       7.012  -0.056  -2.086  1.00  0.00     0.047 C 
BRANCH   6   7
ATOM      7  C   UNL     1       6.457   0.097  -0.742  1.00  0.00    -0.047 A 
ATOM      8  C   UNL     1       5.811   1.255  -0.377  1.00  0.00     0.004 A 
ATOM      9  C   UNL     1       6.585  -0.934   0.159  1.00  0.00     0.004 A 
ATOM     10  C   UNL     1       5.305   1.333   0.923  1.00  0.00     0.000 A 
ATOM     11  C   UNL     1       6.085  -0.856   1.444  1.00  0.00     0.000 A 
ATOM     12  C   UNL     1       5.436   0.301   1.818  1.00  0.00     0.000 A 
ENDBRANCH   6   7
ENDBRANCH   1   6
TORSDOF 4
ENDMDL
MODEL 3
REMARK VINA RESULT:      -7.2      0.642      1.587
REMARK SMILES O=C(O)CCc1ccccc1
REMARK SMILES IDX 4 1 2 2 1 3 3 4 5 6 6 7 7 8 11 9 8 10 10 11 9 12
REMARK H PARENT 3 5
REMARK Flexibility Score: inf
ROOT
ATOM      1  C   UNL     1       8.244  -0.901  -1.905  1.00  0.00     0.127 C 
ENDROOT
BRANCH   1   2
ATOM      2  C   UNL     1       8.414  -2.023  -2.857  1.00  0.00     0.303 C 
ATOM      3  O   UNL     1       9.547  -2.513  -3.089  1.00  0.00    -0.252 OA
BRANCH   2   4
ATOM      4  O   UNL     1       7.323  -2.564  -3.519  1.00  0.00    -0.481 OA
ATOM      5  H   UNL     1       7.333  -3.556  -3.772  1.00  0.00     0.296 HD
ENDBRANCH   2   4
ENDBRANCH   1   2
BRANCH   1   6
ATOM      6  C   UNL     1       7.356  -1.360  -0.789  1.00  0.00     0.047 C 
BRANCH   6   7
ATOM      7  C   UNL     1       6.547  -0.296  -0.197  1.00  0.00    -0.047 A 
ATOM      8  C   UNL     1       6.206   0.818  -0.927  1.00  0.00     0.004 A 
ATOM      9  C   UNL     1       6.124  -0.421   1.107  1.00  0.00     0.004 A 
ATOM     10  C   UNL     1       5.430   1.794  -0.298  1.00  0.00     0.000 A 
ATOM     11  C   UNL     1       5.357   0.545   1.728  1.00  0.00     0.000 A 
ATOM     12  C   UNL     1       5.012   1.665   1.003  1.00  0.00     0.000 A 
ENDBRANCH   6   7
ENDBRANCH   1   6
TORSDOF 4
ENDMDL
MODEL 4
REMARK VINA RESULT:      -6.8      3.374      5.047
REMARK SMILES O=C(O)CCc1ccccc1
REMARK SMILES IDX 4 1 2 2 1 3 3 4 5 6 6 7 7 8 11 9 8 10 10 11 9 12
REMARK H PARENT 3 5
REMARK Flexibility Score: inf
ROOT
ATOM      1  C   UNL     1       5.040   1.789   0.719  1.00  0.00     0.127 C 
ENDROOT
BRANCH   1   2
ATOM      2  C   UNL     1       4.486   1.109   1.913  1.00  0.00     0.303 C 
ATOM      3  O   UNL     1       5.112   0.182   2.483  1.00  0.00    -0.252 OA
BRANCH   2   4
ATOM      4  O   UNL     1       3.256   1.478   2.434  1.00  0.00    -0.481 OA
ATOM      5  H   UNL     1       2.903   1.003   3.269  1.00  0.00     0.296 HD
ENDBRANCH   2   4
ENDBRANCH   1   2
BRANCH   1   6
ATOM      6  C   UNL     1       6.534   1.700   0.778  1.00  0.00     0.047 C 
BRANCH   6   7
ATOM      7  C   UNL     1       7.129   0.958  -0.332  1.00  0.00    -0.047 A 
ATOM      8  C   UNL     1       6.402   0.013  -1.017  1.00  0.00     0.004 A 
ATOM      9  C   UNL     1       8.432   1.216  -0.691  1.00  0.00     0.004 A 
ATOM     10  C   UNL     1       7.034  -0.657  -2.067  1.00  0.00     0.000 A 
ATOM     11  C   UNL     1       9.056   0.553  -1.729  1.00  0.00     0.000 A 
ATOM     12  C   UNL     1       8.334  -0.396  -2.419  1.00  0.00     0.000 A 
ENDBRANCH   6   7
ENDBRANCH   1   6
TORSDOF 4
ENDMDL
MODEL 5
REMARK VINA RESULT:      -6.7      3.825      4.994
REMARK SMILES O=C(O)CCc1ccccc1
REMARK SMILES IDX 4 1 2 2 1 3 3 4 5 6 6 7 7 8 11 9 8 10 10 11 9 12
REMARK H PARENT 3 5
REMARK Flexibility Score: inf
ROOT
ATOM      1  C   UNL     1       5.424   2.836   0.042  1.00  0.00     0.127 C 
ENDROOT
BRANCH   1   2
ATOM      2  C   UNL     1       6.220   3.793   0.848  1.00  0.00     0.303 C 
ATOM      3  O   UNL     1       6.225   3.740   2.103  1.00  0.00    -0.252 OA
BRANCH   2   4
ATOM      4  O   UNL     1       6.982   4.775   0.235  1.00  0.00    -0.481 OA
ATOM      5  H   UNL     1       7.596   4.520  -0.543  1.00  0.00     0.296 HD
ENDBRANCH   2   4
ENDBRANCH   1   2
BRANCH   1   6
ATOM      6  C   UNL     1       4.921   1.758   0.953  1.00  0.00     0.047 C 
BRANCH   6   7
ATOM      7  C   UNL     1       5.736   0.545   0.945  1.00  0.00    -0.047 A 
ATOM      8  C   UNL     1       6.450   0.185  -0.174  1.00  0.00     0.004 A 
ATOM      9  C   UNL     1       5.785  -0.239   2.075  1.00  0.00     0.004 A 
ATOM     10  C   UNL     1       7.208  -0.987  -0.110  1.00  0.00     0.000 A 
ATOM     11  C   UNL     1       6.534  -1.397   2.137  1.00  0.00     0.000 A 
ATOM     12  C   UNL     1       7.252  -1.765   1.020  1.00  0.00     0.000 A 
ENDBRANCH   6   7
ENDBRANCH   1   6
TORSDOF 4
ENDMDL
