@<TRIPOS>MOLECULE
/home/cewinharhar/GITHUB/reincatalyze/data/processed/docking_pred/2023-Apr-26-1657_maxeplen10_maxtrainstep1000_exh32_gamma099_lrac9e-4_lrcr1e-3/7e2b2812a39c1bf8d23d6aab3a18bb39f1acac0e_ligand_2.pdbqt
 12 12 0 0 0
SMALL
GASTEIGER

@<TRIPOS>ATOM
      1  C          5.4240    2.8360    0.0420 C.3     1  UNL1        0.1270
      2  C          6.2200    3.7930    0.8480 C.2     1  UNL1        0.3030
      3  O          6.2250    3.7400    2.1030 O.2     1  UNL1       -0.2520
      4  O          6.9820    4.7750    0.2350 O.3     1  UNL1       -0.4810
      5  H          7.5960    4.5200   -0.5430 H       1  UNL1        0.2960
      6  C          4.9210    1.7580    0.9530 C.3     1  UNL1        0.0470
      7  C          5.7360    0.5450    0.9450 C.2     1  UNL1       -0.0470
      8  C          6.4500    0.1850   -0.1740 C.2     1  UNL1        0.0040
      9  C          5.7850   -0.2390    2.0750 C.2     1  UNL1        0.0040
     10  C          7.2080   -0.9870   -0.1100 C.2     1  UNL1        0.0000
     11  C          6.5340   -1.3970    2.1370 C.2     1  UNL1        0.0000
     12  C          7.2520   -1.7650    1.0200 C.2     1  UNL1        0.0000
@<TRIPOS>BOND
     1     5     4    1
     2     8    10    1
     3     8     7    2
     4    10    12    2
     5     1     2    1
     6     1     6    1
     7     4     2    1
     8     2     3    2
     9     7     6    1
    10     7     9    1
    11    12    11    1
    12     9    11    2
