@<TRIPOS>MOLECULE
/home/cewinharhar/GITHUB/reincatalyze/data/processed/docking_pred/2023-Apr-26-1657_maxeplen10_maxtrainstep1000_exh32_gamma099_lrac9e-4_lrcr1e-3/7e2b2812a39c1bf8d23d6aab3a18bb39f1acac0e_ligand_2.pdbqt
 12 12 0 0 0
SMALL
GASTEIGER

@<TRIPOS>ATOM
      1  C          5.0400    1.7890    0.7190 C.3     1  UNL1        0.1270
      2  C          4.4860    1.1090    1.9130 C.2     1  UNL1        0.3030
      3  O          5.1120    0.1820    2.4830 O.2     1  UNL1       -0.2520
      4  O          3.2560    1.4780    2.4340 O.3     1  UNL1       -0.4810
      5  H          2.9030    1.0030    3.2690 H       1  UNL1        0.2960
      6  C          6.5340    1.7000    0.7780 C.3     1  UNL1        0.0470
      7  C          7.1290    0.9580   -0.3320 C.2     1  UNL1       -0.0470
      8  C          6.4020    0.0130   -1.0170 C.2     1  UNL1        0.0040
      9  C          8.4320    1.2160   -0.6910 C.2     1  UNL1        0.0040
     10  C          7.0340   -0.6570   -2.0670 C.2     1  UNL1        0.0000
     11  C          9.0560    0.5530   -1.7290 C.2     1  UNL1        0.0000
     12  C          8.3340   -0.3960   -2.4190 C.2     1  UNL1        0.0000
@<TRIPOS>BOND
     1    12    10    2
     2    12    11    1
     3    10     8    1
     4    11     9    2
     5     8     7    2
     6     9     7    1
     7     7     6    1
     8     1     6    1
     9     1     2    1
    10     2     4    1
    11     2     3    2
    12     4     5    1
