@<TRIPOS>MOLECULE
/home/cewinharhar/GITHUB/reincatalyze/data/processed/docking_pred/2023-Apr-26-1657_maxeplen10_maxtrainstep1000_exh32_gamma099_lrac9e-4_lrcr1e-3/7e2b2812a39c1bf8d23d6aab3a18bb39f1acac0e_ligand_2.pdbqt
 12 12 0 0 0
SMALL
GASTEIGER

@<TRIPOS>ATOM
      1  C          8.3980   -0.6250   -2.1110 C.3     1  UNL1        0.1270
      2  C          8.3690   -1.8860   -2.8910 C.2     1  UNL1        0.3030
      3  O          7.2840   -2.4050   -3.2490 O.2     1  UNL1       -0.2520
      4  O          9.5450   -2.5270   -3.2460 O.3     1  UNL1       -0.4810
      5  H          9.6640   -3.5180   -3.0160 H       1  UNL1        0.2960
      6  C          7.0120   -0.0560   -2.0860 C.3     1  UNL1        0.0470
      7  C          6.4570    0.0970   -0.7420 C.2     1  UNL1       -0.0470
      8  C          5.8110    1.2550   -0.3770 C.2     1  UNL1        0.0040
      9  C          6.5850   -0.9340    0.1590 C.2     1  UNL1        0.0040
     10  C          5.3050    1.3330    0.9230 C.2     1  UNL1        0.0000
     11  C          6.0850   -0.8560    1.4440 C.2     1  UNL1        0.0000
     12  C          5.4360    0.3010    1.8180 C.2     1  UNL1        0.0000
@<TRIPOS>BOND
     1     3     2    2
     2     4     5    1
     3     4     2    1
     4     2     1    1
     5     1     6    1
     6     6     7    1
     7     7     8    2
     8     7     9    1
     9     8    10    1
    10     9    11    2
    11    10    12    2
    12    11    12    1
