@<TRIPOS>MOLECULE
/home/cewinharhar/GITHUB/reincatalyze/data/processed/docking_pred/2023-Apr-26-1657_maxeplen10_maxtrainstep1000_exh32_gamma099_lrac9e-4_lrcr1e-3/7e2b2812a39c1bf8d23d6aab3a18bb39f1acac0e_ligand_2.pdbqt
 12 12 0 0 0
SMALL
GASTEIGER

@<TRIPOS>ATOM
      1  C          8.2440   -0.9010   -1.9050 C.3     1  UNL1        0.1270
      2  C          8.4140   -2.0230   -2.8570 C.2     1  UNL1        0.3030
      3  O          9.5470   -2.5130   -3.0890 O.2     1  UNL1       -0.2520
      4  O          7.3230   -2.5640   -3.5190 O.3     1  UNL1       -0.4810
      5  H          7.3330   -3.5560   -3.7720 H       1  UNL1        0.2960
      6  C          7.3560   -1.3600   -0.7890 C.3     1  UNL1        0.0470
      7  C          6.5470   -0.2960   -0.1970 C.2     1  UNL1       -0.0470
      8  C          6.2060    0.8180   -0.9270 C.2     1  UNL1        0.0040
      9  C          6.1240   -0.4210    1.1070 C.2     1  UNL1        0.0040
     10  C          5.4300    1.7940   -0.2980 C.2     1  UNL1        0.0000
     11  C          5.3570    0.5450    1.7280 C.2     1  UNL1        0.0000
     12  C          5.0120    1.6650    1.0030 C.2     1  UNL1        0.0000
@<TRIPOS>BOND
     1     5     4    1
     2     4     2    1
     3     3     2    2
     4     2     1    1
     5     1     6    1
     6     8    10    1
     7     8     7    2
     8     6     7    1
     9    10    12    2
    10     7     9    1
    11    12    11    1
    12     9    11    2
