@<TRIPOS>MOLECULE
/home/cewinharhar/GITHUB/reincatalyze/data/processed/docking_pred/2023-Apr-26-1657_maxeplen10_maxtrainstep1000_exh32_gamma099_lrac9e-4_lrcr1e-3/7e2b2812a39c1bf8d23d6aab3a18bb39f1acac0e_ligand_2.pdbqt
 12 12 0 0 0
SMALL
GASTEIGER

@<TRIPOS>ATOM
      1  C          8.4230   -0.5500   -2.2400 C.3     1  UNL1        0.1270
      2  C          8.4750   -1.8630   -2.9230 C.2     1  UNL1        0.3030
      3  O          9.5580   -2.4830   -3.0620 O.2     1  UNL1       -0.2520
      4  O          7.3240   -2.4460   -3.4300 O.3     1  UNL1       -0.4810
      5  H          6.8580   -3.1840   -2.8950 H       1  UNL1        0.2960
      6  C          6.9930   -0.1040   -2.1830 C.3     1  UNL1        0.0470
      7  C          6.4750    0.0580   -0.8260 C.2     1  UNL1       -0.0470
      8  C          6.6070   -0.9480    0.1030 C.2     1  UNL1        0.0040
      9  C          5.8510    1.2350   -0.4820 C.2     1  UNL1        0.0040
     10  C          6.0890   -0.7240    1.3800 C.2     1  UNL1        0.0000
     11  C          5.3390    1.4550    0.7810 C.2     1  UNL1        0.0000
     12  C          5.4660    0.4520    1.7170 C.2     1  UNL1        0.0000
@<TRIPOS>BOND
     1     4     2    1
     2     4     5    1
     3     3     2    2
     4     2     1    1
     5     1     6    1
     6     6     7    1
     7     7     9    2
     8     7     8    1
     9     9    11    1
    10     8    10    2
    11    11    12    2
    12    10    12    1
