MODEL 1
REMARK VINA RESULT:      -7.3      0.000      0.000
REMARK SMILES O=C(O)CCc1ccccc1
REMARK SMILES IDX 4 1 2 2 1 3 3 4 5 6 6 7 7 8 11 9 8 10 10 11 9 12
REMARK H PARENT 3 5
REMARK Flexibility Score: inf
ROOT
ATOM      1  C   UNL     1       8.436  -0.652  -2.060  1.00  0.00     0.127 C 
ENDROOT
BRANCH   1   2
ATOM      2  C   UNL     1       8.385  -1.895  -2.866  1.00  0.00     0.303 C 
ATOM      3  O   UNL     1       7.290  -2.399  -3.217  1.00  0.00    -0.252 OA
BRANCH   2   4
ATOM      4  O   UNL     1       9.550  -2.536  -3.255  1.00  0.00    -0.481 OA
ATOM      5  H   UNL     1       9.606  -3.557  -3.189  1.00  0.00     0.296 HD
ENDBRANCH   2   4
ENDBRANCH   1   2
BRANCH   1   6
ATOM      6  C   UNL     1       7.074  -0.026  -2.074  1.00  0.00     0.047 C 
BRANCH   6   7
ATOM      7  C   UNL     1       6.482   0.138  -0.747  1.00  0.00    -0.047 A 
ATOM      8  C   UNL     1       5.810   1.292  -0.415  1.00  0.00     0.004 A 
ATOM      9  C   UNL     1       6.601  -0.879   0.172  1.00  0.00     0.004 A 
ATOM     10  C   UNL     1       5.269   1.380   0.869  1.00  0.00     0.000 A 
ATOM     11  C   UNL     1       6.065  -0.790   1.441  1.00  0.00     0.000 A 
ATOM     12  C   UNL     1       5.391   0.363   1.782  1.00  0.00     0.000 A 
ENDBRANCH   6   7
ENDBRANCH   1   6
TORSDOF 4
ENDMDL
MODEL 2
REMARK VINA RESULT:      -7.3      0.059      1.438
REMARK SMILES O=C(O)CCc1ccccc1
REMARK SMILES IDX 4 1 2 2 1 3 3 4 5 6 6 7 7 8 11 9 8 10 10 11 9 12
REMARK H PARENT 3 5
REMARK Flexibility Score: inf
ROOT
ATOM      1  C   UNL     1       8.433  -0.628  -2.118  1.00  0.00     0.127 C 
ENDROOT
BRANCH   1   2
ATOM      2  C   UNL     1       8.387  -1.891  -2.893  1.00  0.00     0.303 C 
ATOM      3  O   UNL     1       7.293  -2.409  -3.227  1.00  0.00    -0.252 OA
BRANCH   2   4
ATOM      4  O   UNL     1       9.554  -2.535  -3.271  1.00  0.00    -0.481 OA
ATOM      5  H   UNL     1       9.956  -3.245  -2.654  1.00  0.00     0.296 HD
ENDBRANCH   2   4
ENDBRANCH   1   2
BRANCH   1   6
ATOM      6  C   UNL     1       7.057  -0.036  -2.101  1.00  0.00     0.047 C 
BRANCH   6   7
ATOM      7  C   UNL     1       6.486   0.103  -0.763  1.00  0.00    -0.047 A 
ATOM      8  C   UNL     1       6.618  -0.902   0.167  1.00  0.00     0.004 A 
ATOM      9  C   UNL     1       5.811   1.257  -0.437  1.00  0.00     0.004 A 
ATOM     10  C   UNL     1       6.048  -0.701   1.426  1.00  0.00     0.000 A 
ATOM     11  C   UNL     1       5.248   1.455   0.808  1.00  0.00     0.000 A 
ATOM     12  C   UNL     1       5.376   0.452   1.745  1.00  0.00     0.000 A 
ENDBRANCH   6   7
ENDBRANCH   1   6
TORSDOF 4
ENDMDL
MODEL 3
REMARK VINA RESULT:      -7.1      0.851      1.059
REMARK SMILES O=C(O)CCc1ccccc1
REMARK SMILES IDX 4 1 2 2 1 3 3 4 5 6 6 7 7 8 11 9 8 10 10 11 9 12
REMARK H PARENT 3 5
REMARK Flexibility Score: inf
ROOT
ATOM      1  C   UNL     1       7.270  -1.340  -2.317  1.00  0.00     0.127 C 
ENDROOT
BRANCH   1   2
ATOM      2  C   UNL     1       8.732  -1.418  -2.546  1.00  0.00     0.303 C 
ATOM      3  O   UNL     1       9.509  -0.540  -2.096  1.00  0.00    -0.252 OA
BRANCH   2   4
ATOM      4  O   UNL     1       9.283  -2.467  -3.265  1.00  0.00    -0.481 OA
ATOM      5  H   UNL     1       8.667  -3.082  -3.804  1.00  0.00     0.296 HD
ENDBRANCH   2   4
ENDBRANCH   1   2
BRANCH   1   6
ATOM      6  C   UNL     1       6.928   0.069  -1.937  1.00  0.00     0.047 C 
BRANCH   6   7
ATOM      7  C   UNL     1       6.353   0.201  -0.600  1.00  0.00    -0.047 A 
ATOM      8  C   UNL     1       5.679   1.343  -0.233  1.00  0.00     0.004 A 
ATOM      9  C   UNL     1       6.490  -0.835   0.295  1.00  0.00     0.004 A 
ATOM     10  C   UNL     1       5.155   1.399   1.060  1.00  0.00     0.000 A 
ATOM     11  C   UNL     1       5.971  -0.778   1.574  1.00  0.00     0.000 A 
ATOM     12  C   UNL     1       5.296   0.363   1.949  1.00  0.00     0.000 A 
ENDBRANCH   6   7
ENDBRANCH   1   6
TORSDOF 4
ENDMDL
MODEL 4
REMARK VINA RESULT:      -6.7      3.263      5.082
REMARK SMILES O=C(O)CCc1ccccc1
REMARK SMILES IDX 4 1 2 2 1 3 3 4 5 6 6 7 7 8 11 9 8 10 10 11 9 12
REMARK H PARENT 3 5
REMARK Flexibility Score: inf
ROOT
ATOM      1  C   UNL     1       5.077   1.717   0.710  1.00  0.00     0.127 C 
ENDROOT
BRANCH   1   2
ATOM      2  C   UNL     1       4.587   1.027   1.927  1.00  0.00     0.303 C 
ATOM      3  O   UNL     1       5.275   0.142   2.494  1.00  0.00    -0.252 OA
BRANCH   2   4
ATOM      4  O   UNL     1       3.353   1.340   2.473  1.00  0.00    -0.481 OA
ATOM      5  H   UNL     1       3.273   2.143   3.102  1.00  0.00     0.296 HD
ENDBRANCH   2   4
ENDBRANCH   1   2
BRANCH   1   6
ATOM      6  C   UNL     1       6.575   1.721   0.742  1.00  0.00     0.047 C 
BRANCH   6   7
ATOM      7  C   UNL     1       7.194   0.978  -0.355  1.00  0.00    -0.047 A 
ATOM      8  C   UNL     1       8.502   1.212  -0.712  1.00  0.00     0.004 A 
ATOM      9  C   UNL     1       6.454   0.035  -1.030  1.00  0.00     0.004 A 
ATOM     10  C   UNL     1       9.029   0.465  -1.768  1.00  0.00     0.000 A 
ATOM     11  C   UNL     1       6.977  -0.702  -2.074  1.00  0.00     0.000 A 
ATOM     12  C   UNL     1       8.286  -0.473  -2.438  1.00  0.00     0.000 A 
ENDBRANCH   6   7
ENDBRANCH   1   6
TORSDOF 4
ENDMDL
MODEL 5
REMARK VINA RESULT:      -6.6      3.818      4.896
REMARK SMILES O=C(O)CCc1ccccc1
REMARK SMILES IDX 4 1 2 2 1 3 3 4 5 6 6 7 7 8 11 9 8 10 10 11 9 12
REMARK H PARENT 3 5
REMARK Flexibility Score: inf
ROOT
ATOM      1  C   UNL     1       5.540   2.872  -0.015  1.00  0.00     0.127 C 
ENDROOT
BRANCH   1   2
ATOM      2  C   UNL     1       6.246   3.853   0.841  1.00  0.00     0.303 C 
ATOM      3  O   UNL     1       6.070   3.878   2.085  1.00  0.00    -0.252 OA
BRANCH   2   4
ATOM      4  O   UNL     1       7.124   4.774   0.291  1.00  0.00    -0.481 OA
ATOM      5  H   UNL     1       8.109   4.753   0.567  1.00  0.00     0.296 HD
ENDBRANCH   2   4
ENDBRANCH   1   2
BRANCH   1   6
ATOM      6  C   UNL     1       4.944   1.819   0.868  1.00  0.00     0.047 C 
BRANCH   6   7
ATOM      7  C   UNL     1       5.727   0.586   0.936  1.00  0.00    -0.047 A 
ATOM      8  C   UNL     1       6.439   0.145  -0.155  1.00  0.00     0.004 A 
ATOM      9  C   UNL     1       5.747  -0.133   2.108  1.00  0.00     0.004 A 
ATOM     10  C   UNL     1       7.166  -1.040  -0.019  1.00  0.00     0.000 A 
ATOM     11  C   UNL     1       6.465  -1.305   2.241  1.00  0.00     0.000 A 
ATOM     12  C   UNL     1       7.181  -1.754   1.153  1.00  0.00     0.000 A 
ENDBRANCH   6   7
ENDBRANCH   1   6
TORSDOF 4
ENDMDL
