@<TRIPOS>MOLECULE
/home/cewinharhar/GITHUB/reincatalyze/data/processed/docking_pred/2023-Apr-26-1657_maxeplen10_maxtrainstep1000_exh32_gamma099_lrac9e-4_lrcr1e-3/80b3dd8cd2b2e3944ffcf13b099740dfc166ef97_ligand_2.pdbqt
 12 12 0 0 0
SMALL
GASTEIGER

@<TRIPOS>ATOM
      1  C          5.0770    1.7170    0.7100 C.3     1  UNL1        0.1270
      2  C          4.5870    1.0270    1.9270 C.2     1  UNL1        0.3030
      3  O          5.2750    0.1420    2.4940 O.2     1  UNL1       -0.2520
      4  O          3.3530    1.3400    2.4730 O.3     1  UNL1       -0.4810
      5  H          3.2730    2.1430    3.1020 H       1  UNL1        0.2960
      6  C          6.5750    1.7210    0.7420 C.3     1  UNL1        0.0470
      7  C          7.1940    0.9780   -0.3550 C.2     1  UNL1       -0.0470
      8  C          8.5020    1.2120   -0.7120 C.2     1  UNL1        0.0040
      9  C          6.4540    0.0350   -1.0300 C.2     1  UNL1        0.0040
     10  C          9.0290    0.4650   -1.7680 C.2     1  UNL1        0.0000
     11  C          6.9770   -0.7020   -2.0740 C.2     1  UNL1        0.0000
     12  C          8.2860   -0.4730   -2.4380 C.2     1  UNL1        0.0000
@<TRIPOS>BOND
     1    12    11    2
     2    12    10    1
     3    11     9    1
     4    10     8    2
     5     9     7    2
     6     8     7    1
     7     7     6    1
     8     1     6    1
     9     1     2    1
    10     2     4    1
    11     2     3    2
    12     4     5    1
