@<TRIPOS>MOLECULE
/home/cewinharhar/GITHUB/reincatalyze/data/processed/docking_pred/2023-Apr-26-1657_maxeplen10_maxtrainstep1000_exh32_gamma099_lrac9e-4_lrcr1e-3/80b3dd8cd2b2e3944ffcf13b099740dfc166ef97_ligand_2.pdbqt
 12 12 0 0 0
SMALL
GASTEIGER

@<TRIPOS>ATOM
      1  C          8.4330   -0.6280   -2.1180 C.3     1  UNL1        0.1270
      2  C          8.3870   -1.8910   -2.8930 C.2     1  UNL1        0.3030
      3  O          7.2930   -2.4090   -3.2270 O.2     1  UNL1       -0.2520
      4  O          9.5540   -2.5350   -3.2710 O.3     1  UNL1       -0.4810
      5  H          9.9560   -3.2450   -2.6540 H       1  UNL1        0.2960
      6  C          7.0570   -0.0360   -2.1010 C.3     1  UNL1        0.0470
      7  C          6.4860    0.1030   -0.7630 C.2     1  UNL1       -0.0470
      8  C          6.6180   -0.9020    0.1670 C.2     1  UNL1        0.0040
      9  C          5.8110    1.2570   -0.4370 C.2     1  UNL1        0.0040
     10  C          6.0480   -0.7010    1.4260 C.2     1  UNL1        0.0000
     11  C          5.2480    1.4550    0.8080 C.2     1  UNL1        0.0000
     12  C          5.3760    0.4520    1.7450 C.2     1  UNL1        0.0000
@<TRIPOS>BOND
     1     4     2    1
     2     4     5    1
     3     3     2    2
     4     2     1    1
     5     1     6    1
     6     6     7    1
     7     7     9    2
     8     7     8    1
     9     9    11    1
    10     8    10    2
    11    11    12    2
    12    10    12    1
