@<TRIPOS>MOLECULE
/home/cewinharhar/GITHUB/reincatalyze/data/processed/docking_pred/2023-Apr-26-1657_maxeplen10_maxtrainstep1000_exh32_gamma099_lrac9e-4_lrcr1e-3/80b3dd8cd2b2e3944ffcf13b099740dfc166ef97_ligand_2.pdbqt
 12 12 0 0 0
SMALL
GASTEIGER

@<TRIPOS>ATOM
      1  C          5.5400    2.8720   -0.0150 C.3     1  UNL1        0.1270
      2  C          6.2460    3.8530    0.8410 C.2     1  UNL1        0.3030
      3  O          6.0700    3.8780    2.0850 O.2     1  UNL1       -0.2520
      4  O          7.1240    4.7740    0.2910 O.3     1  UNL1       -0.4810
      5  H          8.1090    4.7530    0.5670 H       1  UNL1        0.2960
      6  C          4.9440    1.8190    0.8680 C.3     1  UNL1        0.0470
      7  C          5.7270    0.5860    0.9360 C.2     1  UNL1       -0.0470
      8  C          6.4390    0.1450   -0.1550 C.2     1  UNL1        0.0040
      9  C          5.7470   -0.1330    2.1080 C.2     1  UNL1        0.0040
     10  C          7.1660   -1.0400   -0.0190 C.2     1  UNL1        0.0000
     11  C          6.4650   -1.3050    2.2410 C.2     1  UNL1        0.0000
     12  C          7.1810   -1.7540    1.1530 C.2     1  UNL1        0.0000
@<TRIPOS>BOND
     1     8    10    1
     2     8     7    2
     3    10    12    2
     4     1     2    1
     5     1     6    1
     6     4     5    1
     7     4     2    1
     8     2     3    2
     9     6     7    1
    10     7     9    1
    11    12    11    1
    12     9    11    2
