@<TRIPOS>MOLECULE
/home/cewinharhar/GITHUB/reincatalyze/data/processed/docking_pred/2023-Apr-26-1657_maxeplen10_maxtrainstep1000_exh32_gamma099_lrac9e-4_lrcr1e-3/80b3dd8cd2b2e3944ffcf13b099740dfc166ef97_ligand_2.pdbqt
 12 12 0 0 0
SMALL
GASTEIGER

@<TRIPOS>ATOM
      1  C          8.4360   -0.6520   -2.0600 C.3     1  UNL1        0.1270
      2  C          8.3850   -1.8950   -2.8660 C.2     1  UNL1        0.3030
      3  O          7.2900   -2.3990   -3.2170 O.2     1  UNL1       -0.2520
      4  O          9.5500   -2.5360   -3.2550 O.3     1  UNL1       -0.4810
      5  H          9.6060   -3.5570   -3.1890 H       1  UNL1        0.2960
      6  C          7.0740   -0.0260   -2.0740 C.3     1  UNL1        0.0470
      7  C          6.4820    0.1380   -0.7470 C.2     1  UNL1       -0.0470
      8  C          5.8100    1.2920   -0.4150 C.2     1  UNL1        0.0040
      9  C          6.6010   -0.8790    0.1720 C.2     1  UNL1        0.0040
     10  C          5.2690    1.3800    0.8690 C.2     1  UNL1        0.0000
     11  C          6.0650   -0.7900    1.4410 C.2     1  UNL1        0.0000
     12  C          5.3910    0.3630    1.7820 C.2     1  UNL1        0.0000
@<TRIPOS>BOND
     1     4     5    1
     2     4     2    1
     3     3     2    2
     4     2     1    1
     5     6     1    1
     6     6     7    1
     7     7     8    2
     8     7     9    1
     9     8    10    1
    10     9    11    2
    11    10    12    2
    12    11    12    1
