MODEL 1
REMARK VINA RESULT:      -7.3      0.000      0.000
REMARK SMILES O=C(O)CCc1ccccc1
REMARK SMILES IDX 4 1 2 2 1 3 3 4 5 6 6 7 7 8 11 9 8 10 10 11 9 12
REMARK H PARENT 3 5
REMARK Flexibility Score: inf
ROOT
ATOM      1  C   UNL     1       8.437  -0.661  -2.101  1.00  0.00     0.127 C 
ENDROOT
BRANCH   1   2
ATOM      2  C   UNL     1       8.478  -1.913  -2.893  1.00  0.00     0.303 C 
ATOM      3  O   UNL     1       9.560  -2.518  -3.097  1.00  0.00    -0.252 OA
BRANCH   2   4
ATOM      4  O   UNL     1       7.321  -2.451  -3.431  1.00  0.00    -0.481 OA
ATOM      5  H   UNL     1       6.576  -2.766  -2.803  1.00  0.00     0.296 HD
ENDBRANCH   2   4
ENDBRANCH   1   2
BRANCH   1   6
ATOM      6  C   UNL     1       7.029  -0.147  -2.106  1.00  0.00     0.047 C 
BRANCH   6   7
ATOM      7  C   UNL     1       6.465   0.056  -0.772  1.00  0.00    -0.047 A 
ATOM      8  C   UNL     1       5.822   1.228  -0.451  1.00  0.00     0.004 A 
ATOM      9  C   UNL     1       6.583  -0.945   0.165  1.00  0.00     0.004 A 
ATOM     10  C   UNL     1       5.307   1.352   0.841  1.00  0.00     0.000 A 
ATOM     11  C   UNL     1       6.073  -0.820   1.442  1.00  0.00     0.000 A 
ATOM     12  C   UNL     1       5.428   0.352   1.772  1.00  0.00     0.000 A 
ENDBRANCH   6   7
ENDBRANCH   1   6
TORSDOF 4
ENDMDL
MODEL 2
REMARK VINA RESULT:      -7.3      0.089      1.439
REMARK SMILES O=C(O)CCc1ccccc1
REMARK SMILES IDX 4 1 2 2 1 3 3 4 5 6 6 7 7 8 11 9 8 10 10 11 9 12
REMARK H PARENT 3 5
REMARK Flexibility Score: inf
ROOT
ATOM      1  C   UNL     1       8.414  -0.549  -2.255  1.00  0.00     0.127 C 
ENDROOT
BRANCH   1   2
ATOM      2  C   UNL     1       8.470  -1.871  -2.923  1.00  0.00     0.303 C 
ATOM      3  O   UNL     1       9.557  -2.482  -3.067  1.00  0.00    -0.252 OA
BRANCH   2   4
ATOM      4  O   UNL     1       7.319  -2.470  -3.409  1.00  0.00    -0.481 OA
ATOM      5  H   UNL     1       7.389  -3.364  -3.902  1.00  0.00     0.296 HD
ENDBRANCH   2   4
ENDBRANCH   1   2
BRANCH   1   6
ATOM      6  C   UNL     1       6.981  -0.117  -2.184  1.00  0.00     0.047 C 
BRANCH   6   7
ATOM      7  C   UNL     1       6.472   0.035  -0.822  1.00  0.00    -0.047 A 
ATOM      8  C   UNL     1       6.609  -0.978   0.097  1.00  0.00     0.004 A 
ATOM      9  C   UNL     1       5.852   1.210  -0.465  1.00  0.00     0.004 A 
ATOM     10  C   UNL     1       6.101  -0.763   1.380  1.00  0.00     0.000 A 
ATOM     11  C   UNL     1       5.349   1.422   0.803  1.00  0.00     0.000 A 
ATOM     12  C   UNL     1       5.482   0.411   1.731  1.00  0.00     0.000 A 
ENDBRANCH   6   7
ENDBRANCH   1   6
TORSDOF 4
ENDMDL
MODEL 3
REMARK VINA RESULT:      -7.1      0.598      1.871
REMARK SMILES O=C(O)CCc1ccccc1
REMARK SMILES IDX 4 1 2 2 1 3 3 4 5 6 6 7 7 8 11 9 8 10 10 11 9 12
REMARK H PARENT 3 5
REMARK Flexibility Score: inf
ROOT
ATOM      1  C   UNL     1       8.294  -0.881  -1.875  1.00  0.00     0.127 C 
ENDROOT
BRANCH   1   2
ATOM      2  C   UNL     1       8.337  -1.995  -2.850  1.00  0.00     0.303 C 
ATOM      3  O   UNL     1       7.284  -2.461  -3.353  1.00  0.00    -0.252 OA
BRANCH   2   4
ATOM      4  O   UNL     1       9.544  -2.557  -3.235  1.00  0.00    -0.481 OA
ATOM      5  H   UNL     1      10.391  -2.335  -2.705  1.00  0.00     0.296 HD
ENDBRANCH   2   4
ENDBRANCH   1   2
BRANCH   1   6
ATOM      6  C   UNL     1       7.587  -1.359  -0.644  1.00  0.00     0.047 C 
BRANCH   6   7
ATOM      7  C   UNL     1       6.691  -0.369  -0.050  1.00  0.00    -0.047 A 
ATOM      8  C   UNL     1       6.211  -0.532   1.229  1.00  0.00     0.004 A 
ATOM      9  C   UNL     1       6.330   0.736  -0.785  1.00  0.00     0.004 A 
ATOM     10  C   UNL     1       5.359   0.454   1.732  1.00  0.00     0.000 A 
ATOM     11  C   UNL     1       5.488   1.710  -0.286  1.00  0.00     0.000 A 
ATOM     12  C   UNL     1       5.002   1.554   0.994  1.00  0.00     0.000 A 
ENDBRANCH   6   7
ENDBRANCH   1   6
TORSDOF 4
ENDMDL
MODEL 4
REMARK VINA RESULT:      -6.8      3.385      5.090
REMARK SMILES O=C(O)CCc1ccccc1
REMARK SMILES IDX 4 1 2 2 1 3 3 4 5 6 6 7 7 8 11 9 8 10 10 11 9 12
REMARK H PARENT 3 5
REMARK Flexibility Score: inf
ROOT
ATOM      1  C   UNL     1       5.001   1.799   0.704  1.00  0.00     0.127 C 
ENDROOT
BRANCH   1   2
ATOM      2  C   UNL     1       4.486   1.116   1.914  1.00  0.00     0.303 C 
ATOM      3  O   UNL     1       5.145   0.210   2.480  1.00  0.00    -0.252 OA
BRANCH   2   4
ATOM      4  O   UNL     1       3.257   1.460   2.454  1.00  0.00    -0.481 OA
ATOM      5  H   UNL     1       2.431   1.478   1.850  1.00  0.00     0.296 HD
ENDBRANCH   2   4
ENDBRANCH   1   2
BRANCH   1   6
ATOM      6  C   UNL     1       6.498   1.776   0.752  1.00  0.00     0.047 C 
BRANCH   6   7
ATOM      7  C   UNL     1       7.116   1.019  -0.335  1.00  0.00    -0.047 A 
ATOM      8  C   UNL     1       6.387   0.104  -1.059  1.00  0.00     0.004 A 
ATOM      9  C   UNL     1       8.443   1.232  -0.632  1.00  0.00     0.004 A 
ATOM     10  C   UNL     1       7.042  -0.582  -2.083  1.00  0.00     0.000 A 
ATOM     11  C   UNL     1       9.089   0.552  -1.645  1.00  0.00     0.000 A 
ATOM     12  C   UNL     1       8.365  -0.367  -2.374  1.00  0.00     0.000 A 
ENDBRANCH   6   7
ENDBRANCH   1   6
TORSDOF 4
ENDMDL
MODEL 5
REMARK VINA RESULT:      -6.7      3.824      4.932
REMARK SMILES O=C(O)CCc1ccccc1
REMARK SMILES IDX 4 1 2 2 1 3 3 4 5 6 6 7 7 8 11 9 8 10 10 11 9 12
REMARK H PARENT 3 5
REMARK Flexibility Score: inf
ROOT
ATOM      1  C   UNL     1       5.423   2.906   0.013  1.00  0.00     0.127 C 
ENDROOT
BRANCH   1   2
ATOM      2  C   UNL     1       6.232   3.871   0.795  1.00  0.00     0.303 C 
ATOM      3  O   UNL     1       6.910   4.763   0.227  1.00  0.00    -0.252 OA
BRANCH   2   4
ATOM      4  O   UNL     1       6.261   3.816   2.179  1.00  0.00    -0.481 OA
ATOM      5  H   UNL     1       7.116   3.508   2.650  1.00  0.00     0.296 HD
ENDBRANCH   2   4
ENDBRANCH   1   2
BRANCH   1   6
ATOM      6  C   UNL     1       4.914   1.852   0.949  1.00  0.00     0.047 C 
BRANCH   6   7
ATOM      7  C   UNL     1       5.694   0.616   0.933  1.00  0.00    -0.047 A 
ATOM      8  C   UNL     1       6.350   0.212  -0.207  1.00  0.00     0.004 A 
ATOM      9  C   UNL     1       5.770  -0.145   2.077  1.00  0.00     0.004 A 
ATOM     10  C   UNL     1       7.077  -0.978  -0.150  1.00  0.00     0.000 A 
ATOM     11  C   UNL     1       6.490  -1.322   2.132  1.00  0.00     0.000 A 
ATOM     12  C   UNL     1       7.149  -1.734   0.994  1.00  0.00     0.000 A 
ENDBRANCH   6   7
ENDBRANCH   1   6
TORSDOF 4
ENDMDL
