@<TRIPOS>MOLECULE
/home/cewinharhar/GITHUB/reincatalyze/data/processed/docking_pred/2023-Apr-26-1657_maxeplen10_maxtrainstep1000_exh32_gamma099_lrac9e-4_lrcr1e-3/80c9945afd0f5f9f0270d56cce32b054e5c09707_ligand_2.pdbqt
 12 12 0 0 0
SMALL
GASTEIGER

@<TRIPOS>ATOM
      1  C          8.4140   -0.5490   -2.2550 C.3     1  UNL1        0.1270
      2  C          8.4700   -1.8710   -2.9230 C.2     1  UNL1        0.3030
      3  O          9.5570   -2.4820   -3.0670 O.2     1  UNL1       -0.2520
      4  O          7.3190   -2.4700   -3.4090 O.3     1  UNL1       -0.4810
      5  H          7.3890   -3.3640   -3.9020 H       1  UNL1        0.2960
      6  C          6.9810   -0.1170   -2.1840 C.3     1  UNL1        0.0470
      7  C          6.4720    0.0350   -0.8220 C.2     1  UNL1       -0.0470
      8  C          6.6090   -0.9780    0.0970 C.2     1  UNL1        0.0040
      9  C          5.8520    1.2100   -0.4650 C.2     1  UNL1        0.0040
     10  C          6.1010   -0.7630    1.3800 C.2     1  UNL1        0.0000
     11  C          5.3490    1.4220    0.8030 C.2     1  UNL1        0.0000
     12  C          5.4820    0.4110    1.7310 C.2     1  UNL1        0.0000
@<TRIPOS>BOND
     1     5     4    1
     2     4     2    1
     3     3     2    2
     4     2     1    1
     5     1     6    1
     6     6     7    1
     7     7     9    2
     8     7     8    1
     9     9    11    1
    10     8    10    2
    11    11    12    2
    12    10    12    1
