@<TRIPOS>MOLECULE
/home/cewinharhar/GITHUB/reincatalyze/data/processed/docking_pred/2023-Apr-26-1657_maxeplen10_maxtrainstep1000_exh32_gamma099_lrac9e-4_lrcr1e-3/80c9945afd0f5f9f0270d56cce32b054e5c09707_ligand_2.pdbqt
 12 12 0 0 0
SMALL
GASTEIGER

@<TRIPOS>ATOM
      1  C          8.4370   -0.6610   -2.1010 C.3     1  UNL1        0.1270
      2  C          8.4780   -1.9130   -2.8930 C.2     1  UNL1        0.3030
      3  O          9.5600   -2.5180   -3.0970 O.2     1  UNL1       -0.2520
      4  O          7.3210   -2.4510   -3.4310 O.3     1  UNL1       -0.4810
      5  H          6.5760   -2.7660   -2.8030 H       1  UNL1        0.2960
      6  C          7.0290   -0.1470   -2.1060 C.3     1  UNL1        0.0470
      7  C          6.4650    0.0560   -0.7720 C.2     1  UNL1       -0.0470
      8  C          5.8220    1.2280   -0.4510 C.2     1  UNL1        0.0040
      9  C          6.5830   -0.9450    0.1650 C.2     1  UNL1        0.0040
     10  C          5.3070    1.3520    0.8410 C.2     1  UNL1        0.0000
     11  C          6.0730   -0.8200    1.4420 C.2     1  UNL1        0.0000
     12  C          5.4280    0.3520    1.7720 C.2     1  UNL1        0.0000
@<TRIPOS>BOND
     1     4     2    1
     2     4     5    1
     3     3     2    2
     4     2     1    1
     5     6     1    1
     6     6     7    1
     7     7     8    2
     8     7     9    1
     9     8    10    1
    10     9    11    2
    11    10    12    2
    12    11    12    1
