@<TRIPOS>MOLECULE
/home/cewinharhar/GITHUB/reincatalyze/data/processed/docking_pred/2023-Apr-26-1657_maxeplen10_maxtrainstep1000_exh32_gamma099_lrac9e-4_lrcr1e-3/80c9945afd0f5f9f0270d56cce32b054e5c09707_ligand_2.pdbqt
 12 12 0 0 0
SMALL
GASTEIGER

@<TRIPOS>ATOM
      1  C          8.2940   -0.8810   -1.8750 C.3     1  UNL1        0.1270
      2  C          8.3370   -1.9950   -2.8500 C.2     1  UNL1        0.3030
      3  O          7.2840   -2.4610   -3.3530 O.2     1  UNL1       -0.2520
      4  O          9.5440   -2.5570   -3.2350 O.3     1  UNL1       -0.4810
      5  H         10.3910   -2.3350   -2.7050 H       1  UNL1        0.2960
      6  C          7.5870   -1.3590   -0.6440 C.3     1  UNL1        0.0470
      7  C          6.6910   -0.3690   -0.0500 C.2     1  UNL1       -0.0470
      8  C          6.2110   -0.5320    1.2290 C.2     1  UNL1        0.0040
      9  C          6.3300    0.7360   -0.7850 C.2     1  UNL1        0.0040
     10  C          5.3590    0.4540    1.7320 C.2     1  UNL1        0.0000
     11  C          5.4880    1.7100   -0.2860 C.2     1  UNL1        0.0000
     12  C          5.0020    1.5540    0.9940 C.2     1  UNL1        0.0000
@<TRIPOS>BOND
     1     3     2    2
     2     4     2    1
     3     4     5    1
     4     2     1    1
     5     1     6    1
     6     9    11    1
     7     9     7    2
     8     6     7    1
     9    11    12    2
    10     7     8    1
    11    12    10    1
    12     8    10    2
