@<TRIPOS>MOLECULE
/home/cewinharhar/GITHUB/reincatalyze/data/processed/docking_pred/2023-Apr-26-1657_maxeplen10_maxtrainstep1000_exh32_gamma099_lrac9e-4_lrcr1e-3/80c9945afd0f5f9f0270d56cce32b054e5c09707_ligand_2.pdbqt
 12 12 0 0 0
SMALL
GASTEIGER

@<TRIPOS>ATOM
      1  C          5.0010    1.7990    0.7040 C.3     1  UNL1        0.1270
      2  C          4.4860    1.1160    1.9140 C.2     1  UNL1        0.3030
      3  O          5.1450    0.2100    2.4800 O.2     1  UNL1       -0.2520
      4  O          3.2570    1.4600    2.4540 O.3     1  UNL1       -0.4810
      5  H          2.4310    1.4780    1.8500 H       1  UNL1        0.2960
      6  C          6.4980    1.7760    0.7520 C.3     1  UNL1        0.0470
      7  C          7.1160    1.0190   -0.3350 C.2     1  UNL1       -0.0470
      8  C          6.3870    0.1040   -1.0590 C.2     1  UNL1        0.0040
      9  C          8.4430    1.2320   -0.6320 C.2     1  UNL1        0.0040
     10  C          7.0420   -0.5820   -2.0830 C.2     1  UNL1        0.0000
     11  C          9.0890    0.5520   -1.6450 C.2     1  UNL1        0.0000
     12  C          8.3650   -0.3670   -2.3740 C.2     1  UNL1        0.0000
@<TRIPOS>BOND
     1    12    10    2
     2    12    11    1
     3    10     8    1
     4    11     9    2
     5     8     7    2
     6     9     7    1
     7     7     6    1
     8     1     6    1
     9     1     2    1
    10     5     4    1
    11     2     4    1
    12     2     3    2
