@<TRIPOS>MOLECULE
/home/cewinharhar/GITHUB/reincatalyze/data/processed/docking_pred/2023-Apr-26-1657_maxeplen10_maxtrainstep1000_exh32_gamma099_lrac9e-4_lrcr1e-3/80c9945afd0f5f9f0270d56cce32b054e5c09707_ligand_2.pdbqt
 12 12 0 0 0
SMALL
GASTEIGER

@<TRIPOS>ATOM
      1  C          5.4230    2.9060    0.0130 C.3     1  UNL1        0.1270
      2  C          6.2320    3.8710    0.7950 C.2     1  UNL1        0.3030
      3  O          6.9100    4.7630    0.2270 O.2     1  UNL1       -0.2520
      4  O          6.2610    3.8160    2.1790 O.3     1  UNL1       -0.4810
      5  H          7.1160    3.5080    2.6500 H       1  UNL1        0.2960
      6  C          4.9140    1.8520    0.9490 C.3     1  UNL1        0.0470
      7  C          5.6940    0.6160    0.9330 C.2     1  UNL1       -0.0470
      8  C          6.3500    0.2120   -0.2070 C.2     1  UNL1        0.0040
      9  C          5.7700   -0.1450    2.0770 C.2     1  UNL1        0.0040
     10  C          7.0770   -0.9780   -0.1500 C.2     1  UNL1        0.0000
     11  C          6.4900   -1.3220    2.1320 C.2     1  UNL1        0.0000
     12  C          7.1490   -1.7340    0.9940 C.2     1  UNL1        0.0000
@<TRIPOS>BOND
     1     8    10    1
     2     8     7    2
     3    10    12    2
     4     1     2    1
     5     1     6    1
     6     3     2    2
     7     2     4    1
     8     7     6    1
     9     7     9    1
    10    12    11    1
    11     9    11    2
    12     4     5    1
