@<TRIPOS>MOLECULE
/home/cewinharhar/GITHUB/reincatalyze/data/processed/docking_pred/2023-Apr-26-1657_maxeplen10_maxtrainstep1000_exh32_gamma099_lrac9e-4_lrcr1e-3/80ffcc0cdcaea1df7ad243f542ab1163fa4dc1ce_ligand_2.pdbqt
 12 12 0 0 0
SMALL
GASTEIGER

@<TRIPOS>ATOM
      1  C          5.0060    1.8080    0.7100 C.3     1  UNL1        0.1270
      2  C          4.5000    1.1170    1.9190 C.2     1  UNL1        0.3030
      3  O          5.1690    0.2150    2.4820 O.2     1  UNL1       -0.2520
      4  O          3.2700    1.4480    2.4640 O.3     1  UNL1       -0.4810
      5  H          2.5270    0.7440    2.4900 H       1  UNL1        0.2960
      6  C          6.5030    1.7940    0.7510 C.3     1  UNL1        0.0470
      7  C          7.1210    1.0670   -0.3570 C.2     1  UNL1       -0.0470
      8  C          6.3680    0.2570   -1.1740 C.2     1  UNL1        0.0040
      9  C          8.4720    1.2040   -0.5790 C.2     1  UNL1        0.0040
     10  C          7.0240   -0.4060   -2.2130 C.2     1  UNL1        0.0000
     11  C          9.1200    0.5480   -1.6070 C.2     1  UNL1        0.0000
     12  C          8.3720   -0.2670   -2.4290 C.2     1  UNL1        0.0000
@<TRIPOS>BOND
     1    12    10    2
     2    12    11    1
     3    10     8    1
     4    11     9    2
     5     8     7    2
     6     9     7    1
     7     7     6    1
     8     1     6    1
     9     1     2    1
    10     2     4    1
    11     2     3    2
    12     4     5    1
