MODEL 1
REMARK VINA RESULT:      -7.3      0.000      0.000
REMARK SMILES O=C(O)CCc1ccccc1
REMARK SMILES IDX 4 1 2 2 1 3 3 4 5 6 6 7 7 8 11 9 8 10 10 11 9 12
REMARK H PARENT 3 5
REMARK Flexibility Score: inf
ROOT
ATOM      1  C   UNL     1       8.423  -0.578  -2.190  1.00  0.00     0.127 C 
ENDROOT
BRANCH   1   2
ATOM      2  C   UNL     1       8.466  -1.871  -2.913  1.00  0.00     0.303 C 
ATOM      3  O   UNL     1       9.549  -2.479  -3.096  1.00  0.00    -0.252 OA
BRANCH   2   4
ATOM      4  O   UNL     1       7.306  -2.446  -3.408  1.00  0.00    -0.481 OA
ATOM      5  H   UNL     1       6.451  -2.414  -2.846  1.00  0.00     0.296 HD
ENDBRANCH   2   4
ENDBRANCH   1   2
BRANCH   1   6
ATOM      6  C   UNL     1       6.997  -0.122  -2.126  1.00  0.00     0.047 C 
BRANCH   6   7
ATOM      7  C   UNL     1       6.479   0.020  -0.766  1.00  0.00    -0.047 A 
ATOM      8  C   UNL     1       6.609  -1.002   0.146  1.00  0.00     0.004 A 
ATOM      9  C   UNL     1       5.859   1.192  -0.402  1.00  0.00     0.004 A 
ATOM     10  C   UNL     1       6.091  -0.798   1.427  1.00  0.00     0.000 A 
ATOM     11  C   UNL     1       5.347   1.393   0.864  1.00  0.00     0.000 A 
ATOM     12  C   UNL     1       5.472   0.374   1.783  1.00  0.00     0.000 A 
ENDBRANCH   6   7
ENDBRANCH   1   6
TORSDOF 4
ENDMDL
MODEL 2
REMARK VINA RESULT:      -7.3      0.042      1.437
REMARK SMILES O=C(O)CCc1ccccc1
REMARK SMILES IDX 4 1 2 2 1 3 3 4 5 6 6 7 7 8 11 9 8 10 10 11 9 12
REMARK H PARENT 3 5
REMARK Flexibility Score: inf
ROOT
ATOM      1  C   UNL     1       8.419  -0.586  -2.183  1.00  0.00     0.127 C 
ENDROOT
BRANCH   1   2
ATOM      2  C   UNL     1       8.471  -1.877  -2.908  1.00  0.00     0.303 C 
ATOM      3  O   UNL     1       9.556  -2.491  -3.067  1.00  0.00    -0.252 OA
BRANCH   2   4
ATOM      4  O   UNL     1       7.321  -2.444  -3.433  1.00  0.00    -0.481 OA
ATOM      5  H   UNL     1       6.718  -3.006  -2.827  1.00  0.00     0.296 HD
ENDBRANCH   2   4
ENDBRANCH   1   2
BRANCH   1   6
ATOM      6  C   UNL     1       6.993  -0.125  -2.144  1.00  0.00     0.047 C 
BRANCH   6   7
ATOM      7  C   UNL     1       6.466   0.063  -0.794  1.00  0.00    -0.047 A 
ATOM      8  C   UNL     1       5.843   1.236  -0.439  1.00  0.00     0.004 A 
ATOM      9  C   UNL     1       6.597  -0.953   0.125  1.00  0.00     0.004 A 
ATOM     10  C   UNL     1       5.362   1.346   0.867  1.00  0.00     0.000 A 
ATOM     11  C   UNL     1       6.122  -0.842   1.417  1.00  0.00     0.000 A 
ATOM     12  C   UNL     1       5.497   0.331   1.780  1.00  0.00     0.000 A 
ENDBRANCH   6   7
ENDBRANCH   1   6
TORSDOF 4
ENDMDL
MODEL 3
REMARK VINA RESULT:      -7.2      0.613      1.067
REMARK SMILES O=C(O)CCc1ccccc1
REMARK SMILES IDX 4 1 2 2 1 3 3 4 5 6 6 7 7 8 11 9 8 10 10 11 9 12
REMARK H PARENT 3 5
REMARK Flexibility Score: inf
ROOT
ATOM      1  C   UNL     1       8.159  -0.831  -1.986  1.00  0.00     0.127 C 
ENDROOT
BRANCH   1   2
ATOM      2  C   UNL     1       8.314  -2.010  -2.870  1.00  0.00     0.303 C 
ATOM      3  O   UNL     1       9.428  -2.573  -3.015  1.00  0.00    -0.252 OA
BRANCH   2   4
ATOM      4  O   UNL     1       7.231  -2.526  -3.564  1.00  0.00    -0.481 OA
ATOM      5  H   UNL     1       7.093  -2.264  -4.544  1.00  0.00     0.296 HD
ENDBRANCH   2   4
ENDBRANCH   1   2
BRANCH   1   6
ATOM      6  C   UNL     1       7.575  -1.292  -0.686  1.00  0.00     0.047 C 
BRANCH   6   7
ATOM      7  C   UNL     1       6.672  -0.325  -0.064  1.00  0.00    -0.047 A 
ATOM      8  C   UNL     1       6.218  -0.512   1.221  1.00  0.00     0.004 A 
ATOM      9  C   UNL     1       6.278   0.782  -0.779  1.00  0.00     0.004 A 
ATOM     10  C   UNL     1       5.358   0.452   1.752  1.00  0.00     0.000 A 
ATOM     11  C   UNL     1       5.428   1.735  -0.253  1.00  0.00     0.000 A 
ATOM     12  C   UNL     1       4.968   1.555   1.034  1.00  0.00     0.000 A 
ENDBRANCH   6   7
ENDBRANCH   1   6
TORSDOF 4
ENDMDL
MODEL 4
REMARK VINA RESULT:      -6.8      3.374      5.075
REMARK SMILES O=C(O)CCc1ccccc1
REMARK SMILES IDX 4 1 2 2 1 3 3 4 5 6 6 7 7 8 11 9 8 10 10 11 9 12
REMARK H PARENT 3 5
REMARK Flexibility Score: inf
ROOT
ATOM      1  C   UNL     1       5.006   1.808   0.710  1.00  0.00     0.127 C 
ENDROOT
BRANCH   1   2
ATOM      2  C   UNL     1       4.500   1.117   1.919  1.00  0.00     0.303 C 
ATOM      3  O   UNL     1       5.169   0.215   2.482  1.00  0.00    -0.252 OA
BRANCH   2   4
ATOM      4  O   UNL     1       3.270   1.448   2.464  1.00  0.00    -0.481 OA
ATOM      5  H   UNL     1       2.527   0.744   2.490  1.00  0.00     0.296 HD
ENDBRANCH   2   4
ENDBRANCH   1   2
BRANCH   1   6
ATOM      6  C   UNL     1       6.503   1.794   0.751  1.00  0.00     0.047 C 
BRANCH   6   7
ATOM      7  C   UNL     1       7.121   1.067  -0.357  1.00  0.00    -0.047 A 
ATOM      8  C   UNL     1       6.368   0.257  -1.174  1.00  0.00     0.004 A 
ATOM      9  C   UNL     1       8.472   1.204  -0.579  1.00  0.00     0.004 A 
ATOM     10  C   UNL     1       7.024  -0.406  -2.213  1.00  0.00     0.000 A 
ATOM     11  C   UNL     1       9.120   0.548  -1.607  1.00  0.00     0.000 A 
ATOM     12  C   UNL     1       8.372  -0.267  -2.429  1.00  0.00     0.000 A 
ENDBRANCH   6   7
ENDBRANCH   1   6
TORSDOF 4
ENDMDL
MODEL 5
REMARK VINA RESULT:      -6.7      3.817      4.952
REMARK SMILES O=C(O)CCc1ccccc1
REMARK SMILES IDX 4 1 2 2 1 3 3 4 5 6 6 7 7 8 11 9 8 10 10 11 9 12
REMARK H PARENT 3 5
REMARK Flexibility Score: inf
ROOT
ATOM      1  C   UNL     1       5.545   2.901  -0.096  1.00  0.00     0.127 C 
ENDROOT
BRANCH   1   2
ATOM      2  C   UNL     1       6.248   3.900   0.743  1.00  0.00     0.303 C 
ATOM      3  O   UNL     1       6.989   4.775   0.230  1.00  0.00    -0.252 OA
BRANCH   2   4
ATOM      4  O   UNL     1       6.108   3.894   2.121  1.00  0.00    -0.481 OA
ATOM      5  H   UNL     1       6.944   3.845   2.710  1.00  0.00     0.296 HD
ENDBRANCH   2   4
ENDBRANCH   1   2
BRANCH   1   6
ATOM      6  C   UNL     1       4.964   1.854   0.805  1.00  0.00     0.047 C 
BRANCH   6   7
ATOM      7  C   UNL     1       5.755   0.627   0.878  1.00  0.00    -0.047 A 
ATOM      8  C   UNL     1       6.505   0.209  -0.197  1.00  0.00     0.004 A 
ATOM      9  C   UNL     1       5.745  -0.109   2.040  1.00  0.00     0.004 A 
ATOM     10  C   UNL     1       7.237  -0.972  -0.055  1.00  0.00     0.000 A 
ATOM     11  C   UNL     1       6.470  -1.277   2.178  1.00  0.00     0.000 A 
ATOM     12  C   UNL     1       7.223  -1.704   1.105  1.00  0.00     0.000 A 
ENDBRANCH   6   7
ENDBRANCH   1   6
TORSDOF 4
ENDMDL
