@<TRIPOS>MOLECULE
/home/cewinharhar/GITHUB/reincatalyze/data/processed/docking_pred/2023-Apr-26-1657_maxeplen10_maxtrainstep1000_exh32_gamma099_lrac9e-4_lrcr1e-3/80ffcc0cdcaea1df7ad243f542ab1163fa4dc1ce_ligand_2.pdbqt
 12 12 0 0 0
SMALL
GASTEIGER

@<TRIPOS>ATOM
      1  C          8.4230   -0.5780   -2.1900 C.3     1  UNL1        0.1270
      2  C          8.4660   -1.8710   -2.9130 C.2     1  UNL1        0.3030
      3  O          9.5490   -2.4790   -3.0960 O.2     1  UNL1       -0.2520
      4  O          7.3060   -2.4460   -3.4080 O.3     1  UNL1       -0.4810
      5  H          6.4510   -2.4140   -2.8460 H       1  UNL1        0.2960
      6  C          6.9970   -0.1220   -2.1260 C.3     1  UNL1        0.0470
      7  C          6.4790    0.0200   -0.7660 C.2     1  UNL1       -0.0470
      8  C          6.6090   -1.0020    0.1460 C.2     1  UNL1        0.0040
      9  C          5.8590    1.1920   -0.4020 C.2     1  UNL1        0.0040
     10  C          6.0910   -0.7980    1.4270 C.2     1  UNL1        0.0000
     11  C          5.3470    1.3930    0.8640 C.2     1  UNL1        0.0000
     12  C          5.4720    0.3740    1.7830 C.2     1  UNL1        0.0000
@<TRIPOS>BOND
     1     4     2    1
     2     4     5    1
     3     3     2    2
     4     2     1    1
     5     1     6    1
     6     6     7    1
     7     7     9    2
     8     7     8    1
     9     9    11    1
    10     8    10    2
    11    11    12    2
    12    10    12    1
