@<TRIPOS>MOLECULE
/home/cewinharhar/GITHUB/reincatalyze/data/processed/docking_pred/2023-Apr-26-1657_maxeplen10_maxtrainstep1000_exh32_gamma099_lrac9e-4_lrcr1e-3/80ffcc0cdcaea1df7ad243f542ab1163fa4dc1ce_ligand_2.pdbqt
 12 12 0 0 0
SMALL
GASTEIGER

@<TRIPOS>ATOM
      1  C          8.4190   -0.5860   -2.1830 C.3     1  UNL1        0.1270
      2  C          8.4710   -1.8770   -2.9080 C.2     1  UNL1        0.3030
      3  O          9.5560   -2.4910   -3.0670 O.2     1  UNL1       -0.2520
      4  O          7.3210   -2.4440   -3.4330 O.3     1  UNL1       -0.4810
      5  H          6.7180   -3.0060   -2.8270 H       1  UNL1        0.2960
      6  C          6.9930   -0.1250   -2.1440 C.3     1  UNL1        0.0470
      7  C          6.4660    0.0630   -0.7940 C.2     1  UNL1       -0.0470
      8  C          5.8430    1.2360   -0.4390 C.2     1  UNL1        0.0040
      9  C          6.5970   -0.9530    0.1250 C.2     1  UNL1        0.0040
     10  C          5.3620    1.3460    0.8670 C.2     1  UNL1        0.0000
     11  C          6.1220   -0.8420    1.4170 C.2     1  UNL1        0.0000
     12  C          5.4970    0.3310    1.7800 C.2     1  UNL1        0.0000
@<TRIPOS>BOND
     1     4     2    1
     2     4     5    1
     3     3     2    2
     4     2     1    1
     5     1     6    1
     6     6     7    1
     7     7     8    2
     8     7     9    1
     9     8    10    1
    10     9    11    2
    11    10    12    2
    12    11    12    1
