@<TRIPOS>MOLECULE
/home/cewinharhar/GITHUB/reincatalyze/data/processed/docking_pred/2023-Apr-26-1657_maxeplen10_maxtrainstep1000_exh32_gamma099_lrac9e-4_lrcr1e-3/80ffcc0cdcaea1df7ad243f542ab1163fa4dc1ce_ligand_2.pdbqt
 12 12 0 0 0
SMALL
GASTEIGER

@<TRIPOS>ATOM
      1  C          5.5450    2.9010   -0.0960 C.3     1  UNL1        0.1270
      2  C          6.2480    3.9000    0.7430 C.2     1  UNL1        0.3030
      3  O          6.9890    4.7750    0.2300 O.2     1  UNL1       -0.2520
      4  O          6.1080    3.8940    2.1210 O.3     1  UNL1       -0.4810
      5  H          6.9440    3.8450    2.7100 H       1  UNL1        0.2960
      6  C          4.9640    1.8540    0.8050 C.3     1  UNL1        0.0470
      7  C          5.7550    0.6270    0.8780 C.2     1  UNL1       -0.0470
      8  C          6.5050    0.2090   -0.1970 C.2     1  UNL1        0.0040
      9  C          5.7450   -0.1090    2.0400 C.2     1  UNL1        0.0040
     10  C          7.2370   -0.9720   -0.0550 C.2     1  UNL1        0.0000
     11  C          6.4700   -1.2770    2.1780 C.2     1  UNL1        0.0000
     12  C          7.2230   -1.7040    1.1050 C.2     1  UNL1        0.0000
@<TRIPOS>BOND
     1     8    10    1
     2     8     7    2
     3     1     2    1
     4     1     6    1
     5    10    12    2
     6     3     2    2
     7     2     4    1
     8     6     7    1
     9     7     9    1
    10    12    11    1
    11     9    11    2
    12     4     5    1
