@<TRIPOS>MOLECULE
/home/cewinharhar/GITHUB/reincatalyze/data/processed/docking_pred/2023-Apr-26-1657_maxeplen10_maxtrainstep1000_exh32_gamma099_lrac9e-4_lrcr1e-3/80ffcc0cdcaea1df7ad243f542ab1163fa4dc1ce_ligand_2.pdbqt
 12 12 0 0 0
SMALL
GASTEIGER

@<TRIPOS>ATOM
      1  C          8.1590   -0.8310   -1.9860 C.3     1  UNL1        0.1270
      2  C          8.3140   -2.0100   -2.8700 C.2     1  UNL1        0.3030
      3  O          9.4280   -2.5730   -3.0150 O.2     1  UNL1       -0.2520
      4  O          7.2310   -2.5260   -3.5640 O.3     1  UNL1       -0.4810
      5  H          7.0930   -2.2640   -4.5440 H       1  UNL1        0.2960
      6  C          7.5750   -1.2920   -0.6860 C.3     1  UNL1        0.0470
      7  C          6.6720   -0.3250   -0.0640 C.2     1  UNL1       -0.0470
      8  C          6.2180   -0.5120    1.2210 C.2     1  UNL1        0.0040
      9  C          6.2780    0.7820   -0.7790 C.2     1  UNL1        0.0040
     10  C          5.3580    0.4520    1.7520 C.2     1  UNL1        0.0000
     11  C          5.4280    1.7350   -0.2530 C.2     1  UNL1        0.0000
     12  C          4.9680    1.5550    1.0340 C.2     1  UNL1        0.0000
@<TRIPOS>BOND
     1     5     4    1
     2     4     2    1
     3     3     2    2
     4     2     1    1
     5     1     6    1
     6     9    11    1
     7     9     7    2
     8     6     7    1
     9    11    12    2
    10     7     8    1
    11    12    10    1
    12     8    10    2
