@<TRIPOS>MOLECULE
/home/cewinharhar/GITHUB/reincatalyze/data/processed/docking_pred/2023-Apr-26-1657_maxeplen10_maxtrainstep1000_exh32_gamma099_lrac9e-4_lrcr1e-3/81487a167534eaf1a49a57d95a0bec7d9495d7bd_ligand_2.pdbqt
 12 12 0 0 0
SMALL
GASTEIGER

@<TRIPOS>ATOM
      1  C          5.0070    1.8000    0.7290 C.3     1  UNL1        0.1270
      2  C          4.4770    1.1090    1.9280 C.2     1  UNL1        0.3030
      3  O          5.1260    0.1930    2.4900 O.2     1  UNL1       -0.2520
      4  O          3.2470    1.4580    2.4630 O.3     1  UNL1       -0.4810
      5  H          2.5190    1.8260    1.8450 H       1  UNL1        0.2960
      6  C          6.5040    1.7540    0.7810 C.3     1  UNL1        0.0470
      7  C          7.1150    1.0150   -0.3210 C.2     1  UNL1       -0.0470
      8  C          6.3840    0.1040   -1.0490 C.2     1  UNL1        0.0040
      9  C          8.4370    1.2400   -0.6300 C.2     1  UNL1        0.0040
     10  C          7.0320   -0.5650   -2.0890 C.2     1  UNL1        0.0000
     11  C          9.0760    0.5770   -1.6580 C.2     1  UNL1        0.0000
     12  C          8.3510   -0.3370   -2.3910 C.2     1  UNL1        0.0000
@<TRIPOS>BOND
     1    12    10    2
     2    12    11    1
     3    10     8    1
     4    11     9    2
     5     8     7    2
     6     9     7    1
     7     7     6    1
     8     1     6    1
     9     1     2    1
    10     5     4    1
    11     2     4    1
    12     2     3    2
