@<TRIPOS>MOLECULE
/home/cewinharhar/GITHUB/reincatalyze/data/processed/docking_pred/2023-Apr-26-1657_maxeplen10_maxtrainstep1000_exh32_gamma099_lrac9e-4_lrcr1e-3/81487a167534eaf1a49a57d95a0bec7d9495d7bd_ligand_2.pdbqt
 12 12 0 0 0
SMALL
GASTEIGER

@<TRIPOS>ATOM
      1  C          7.9370   -0.7370   -2.1590 C.3     1  UNL1        0.1270
      2  C          8.2310   -1.9320   -2.9840 C.2     1  UNL1        0.3030
      3  O          9.4010   -2.3750   -3.0950 O.2     1  UNL1       -0.2520
      4  O          7.2190   -2.5960   -3.6580 O.3     1  UNL1       -0.4810
      5  H          7.1840   -3.6190   -3.6270 H       1  UNL1        0.2960
      6  C          7.3640   -1.1950   -0.8530 C.3     1  UNL1        0.0470
      7  C          6.5200   -0.2000   -0.1930 C.2     1  UNL1       -0.0470
      8  C          6.1750    0.9670   -0.8340 C.2     1  UNL1        0.0040
      9  C          6.0690   -0.4440    1.0840 C.2     1  UNL1        0.0040
     10  C          5.3660    1.8710   -0.1430 C.2     1  UNL1        0.0000
     11  C          5.2680    0.4510    1.7650 C.2     1  UNL1        0.0000
     12  C          4.9190    1.6230    1.1300 C.2     1  UNL1        0.0000
@<TRIPOS>BOND
     1     4     5    1
     2     4     2    1
     3     3     2    2
     4     2     1    1
     5     1     6    1
     6     6     7    1
     7     8     7    2
     8     8    10    1
     9     7     9    1
    10    10    12    2
    11     9    11    2
    12    12    11    1
