@<TRIPOS>MOLECULE
/home/cewinharhar/GITHUB/reincatalyze/data/processed/docking_pred/2023-Apr-26-1657_maxeplen10_maxtrainstep1000_exh32_gamma099_lrac9e-4_lrcr1e-3/81487a167534eaf1a49a57d95a0bec7d9495d7bd_ligand_2.pdbqt
 12 12 0 0 0
SMALL
GASTEIGER

@<TRIPOS>ATOM
      1  C          8.4130   -0.7180   -2.0030 C.3     1  UNL1        0.1270
      2  C          8.3780   -1.9220   -2.8660 C.2     1  UNL1        0.3030
      3  O          7.2890   -2.4160   -3.2510 O.2     1  UNL1       -0.2520
      4  O          9.5510   -2.5390   -3.2730 O.3     1  UNL1       -0.4810
      5  H         10.2630   -2.7710   -2.5750 H       1  UNL1        0.2960
      6  C          7.0590   -0.0780   -2.0330 C.3     1  UNL1        0.0470
      7  C          6.4630    0.1150   -0.7120 C.2     1  UNL1       -0.0470
      8  C          5.8030    1.2810   -0.4020 C.2     1  UNL1        0.0040
      9  C          6.5680   -0.8880    0.2240 C.2     1  UNL1        0.0040
     10  C          5.2580    1.3960    0.8790 C.2     1  UNL1        0.0000
     11  C          6.0280   -0.7720    1.4900 C.2     1  UNL1        0.0000
     12  C          5.3660    0.3930    1.8090 C.2     1  UNL1        0.0000
@<TRIPOS>BOND
     1     4     2    1
     2     4     5    1
     3     3     2    2
     4     2     1    1
     5     6     1    1
     6     6     7    1
     7     7     8    2
     8     7     9    1
     9     8    10    1
    10     9    11    2
    11    10    12    2
    12    11    12    1
