MODEL 1
REMARK VINA RESULT:      -7.2      0.000      0.000
REMARK SMILES O=C(O)CCc1ccccc1
REMARK SMILES IDX 4 1 2 2 1 3 3 4 5 6 6 7 7 8 11 9 8 10 10 11 9 12
REMARK H PARENT 3 5
REMARK Flexibility Score: inf
ROOT
ATOM      1  C   UNL     1       8.413  -0.718  -2.003  1.00  0.00     0.127 C 
ENDROOT
BRANCH   1   2
ATOM      2  C   UNL     1       8.378  -1.922  -2.866  1.00  0.00     0.303 C 
ATOM      3  O   UNL     1       7.289  -2.416  -3.251  1.00  0.00    -0.252 OA
BRANCH   2   4
ATOM      4  O   UNL     1       9.551  -2.539  -3.273  1.00  0.00    -0.481 OA
ATOM      5  H   UNL     1      10.263  -2.771  -2.575  1.00  0.00     0.296 HD
ENDBRANCH   2   4
ENDBRANCH   1   2
BRANCH   1   6
ATOM      6  C   UNL     1       7.059  -0.078  -2.033  1.00  0.00     0.047 C 
BRANCH   6   7
ATOM      7  C   UNL     1       6.463   0.115  -0.712  1.00  0.00    -0.047 A 
ATOM      8  C   UNL     1       5.803   1.281  -0.402  1.00  0.00     0.004 A 
ATOM      9  C   UNL     1       6.568  -0.888   0.224  1.00  0.00     0.004 A 
ATOM     10  C   UNL     1       5.258   1.396   0.879  1.00  0.00     0.000 A 
ATOM     11  C   UNL     1       6.028  -0.772   1.490  1.00  0.00     0.000 A 
ATOM     12  C   UNL     1       5.366   0.393   1.809  1.00  0.00     0.000 A 
ENDBRANCH   6   7
ENDBRANCH   1   6
TORSDOF 4
ENDMDL
MODEL 2
REMARK VINA RESULT:      -7.2      0.073      1.438
REMARK SMILES O=C(O)CCc1ccccc1
REMARK SMILES IDX 4 1 2 2 1 3 3 4 5 6 6 7 7 8 11 9 8 10 10 11 9 12
REMARK H PARENT 3 5
REMARK Flexibility Score: inf
ROOT
ATOM      1  C   UNL     1       8.392  -0.621  -2.127  1.00  0.00     0.127 C 
ENDROOT
BRANCH   1   2
ATOM      2  C   UNL     1       8.367  -1.894  -2.885  1.00  0.00     0.303 C 
ATOM      3  O   UNL     1       7.283  -2.408  -3.258  1.00  0.00    -0.252 OA
BRANCH   2   4
ATOM      4  O   UNL     1       9.543  -2.554  -3.203  1.00  0.00    -0.481 OA
ATOM      5  H   UNL     1       9.814  -2.649  -4.186  1.00  0.00     0.296 HD
ENDBRANCH   2   4
ENDBRANCH   1   2
BRANCH   1   6
ATOM      6  C   UNL     1       6.998  -0.074  -2.078  1.00  0.00     0.047 C 
BRANCH   6   7
ATOM      7  C   UNL     1       6.457   0.055  -0.726  1.00  0.00    -0.047 A 
ATOM      8  C   UNL     1       6.594  -0.965   0.187  1.00  0.00     0.004 A 
ATOM      9  C   UNL     1       5.807   1.214  -0.371  1.00  0.00     0.004 A 
ATOM     10  C   UNL     1       6.053  -0.772   1.460  1.00  0.00     0.000 A 
ATOM     11  C   UNL     1       5.273   1.403   0.888  1.00  0.00     0.000 A 
ATOM     12  C   UNL     1       5.405   0.386   1.808  1.00  0.00     0.000 A 
ENDBRANCH   6   7
ENDBRANCH   1   6
TORSDOF 4
ENDMDL
MODEL 3
REMARK VINA RESULT:      -7.0      0.631      1.371
REMARK SMILES O=C(O)CCc1ccccc1
REMARK SMILES IDX 4 1 2 2 1 3 3 4 5 6 6 7 7 8 11 9 8 10 10 11 9 12
REMARK H PARENT 3 5
REMARK Flexibility Score: inf
ROOT
ATOM      1  C   UNL     1       7.937  -0.737  -2.159  1.00  0.00     0.127 C 
ENDROOT
BRANCH   1   2
ATOM      2  C   UNL     1       8.231  -1.932  -2.984  1.00  0.00     0.303 C 
ATOM      3  O   UNL     1       9.401  -2.375  -3.095  1.00  0.00    -0.252 OA
BRANCH   2   4
ATOM      4  O   UNL     1       7.219  -2.596  -3.658  1.00  0.00    -0.481 OA
ATOM      5  H   UNL     1       7.184  -3.619  -3.627  1.00  0.00     0.296 HD
ENDBRANCH   2   4
ENDBRANCH   1   2
BRANCH   1   6
ATOM      6  C   UNL     1       7.364  -1.195  -0.853  1.00  0.00     0.047 C 
BRANCH   6   7
ATOM      7  C   UNL     1       6.520  -0.200  -0.193  1.00  0.00    -0.047 A 
ATOM      8  C   UNL     1       6.175   0.967  -0.834  1.00  0.00     0.004 A 
ATOM      9  C   UNL     1       6.069  -0.444   1.084  1.00  0.00     0.004 A 
ATOM     10  C   UNL     1       5.366   1.871  -0.143  1.00  0.00     0.000 A 
ATOM     11  C   UNL     1       5.268   0.451   1.765  1.00  0.00     0.000 A 
ATOM     12  C   UNL     1       4.919   1.623   1.130  1.00  0.00     0.000 A 
ENDBRANCH   6   7
ENDBRANCH   1   6
TORSDOF 4
ENDMDL
MODEL 4
REMARK VINA RESULT:      -6.7      3.319      5.167
REMARK SMILES O=C(O)CCc1ccccc1
REMARK SMILES IDX 4 1 2 2 1 3 3 4 5 6 6 7 7 8 11 9 8 10 10 11 9 12
REMARK H PARENT 3 5
REMARK Flexibility Score: inf
ROOT
ATOM      1  C   UNL     1       5.007   1.800   0.729  1.00  0.00     0.127 C 
ENDROOT
BRANCH   1   2
ATOM      2  C   UNL     1       4.477   1.109   1.928  1.00  0.00     0.303 C 
ATOM      3  O   UNL     1       5.126   0.193   2.490  1.00  0.00    -0.252 OA
BRANCH   2   4
ATOM      4  O   UNL     1       3.247   1.458   2.463  1.00  0.00    -0.481 OA
ATOM      5  H   UNL     1       2.519   1.826   1.845  1.00  0.00     0.296 HD
ENDBRANCH   2   4
ENDBRANCH   1   2
BRANCH   1   6
ATOM      6  C   UNL     1       6.504   1.754   0.781  1.00  0.00     0.047 C 
BRANCH   6   7
ATOM      7  C   UNL     1       7.115   1.015  -0.321  1.00  0.00    -0.047 A 
ATOM      8  C   UNL     1       6.384   0.104  -1.049  1.00  0.00     0.004 A 
ATOM      9  C   UNL     1       8.437   1.240  -0.630  1.00  0.00     0.004 A 
ATOM     10  C   UNL     1       7.032  -0.565  -2.089  1.00  0.00     0.000 A 
ATOM     11  C   UNL     1       9.076   0.577  -1.658  1.00  0.00     0.000 A 
ATOM     12  C   UNL     1       8.351  -0.337  -2.391  1.00  0.00     0.000 A 
ENDBRANCH   6   7
ENDBRANCH   1   6
TORSDOF 4
ENDMDL
MODEL 5
REMARK VINA RESULT:      -6.7      3.810      4.995
REMARK SMILES O=C(O)CCc1ccccc1
REMARK SMILES IDX 4 1 2 2 1 3 3 4 5 6 6 7 7 8 11 9 8 10 10 11 9 12
REMARK H PARENT 3 5
REMARK Flexibility Score: inf
ROOT
ATOM      1  C   UNL     1       5.468   2.878  -0.009  1.00  0.00     0.127 C 
ENDROOT
BRANCH   1   2
ATOM      2  C   UNL     1       6.246   3.850   0.794  1.00  0.00     0.303 C 
ATOM      3  O   UNL     1       6.896   4.775   0.247  1.00  0.00    -0.252 OA
BRANCH   2   4
ATOM      4  O   UNL     1       6.278   3.765   2.177  1.00  0.00    -0.481 OA
ATOM      5  H   UNL     1       7.113   4.078   2.679  1.00  0.00     0.296 HD
ENDBRANCH   2   4
ENDBRANCH   1   2
BRANCH   1   6
ATOM      6  C   UNL     1       4.913   1.840   0.917  1.00  0.00     0.047 C 
BRANCH   6   7
ATOM      7  C   UNL     1       5.690   0.603   0.959  1.00  0.00    -0.047 A 
ATOM      8  C   UNL     1       5.749  -0.153   2.107  1.00  0.00     0.004 A 
ATOM      9  C   UNL     1       6.367   0.196  -0.168  1.00  0.00     0.004 A 
ATOM     10  C   UNL     1       6.510  -1.324   2.075  1.00  0.00     0.000 A 
ATOM     11  C   UNL     1       7.119  -0.961  -0.198  1.00  0.00     0.000 A 
ATOM     12  C   UNL     1       7.183  -1.723   0.948  1.00  0.00     0.000 A 
ENDBRANCH   6   7
ENDBRANCH   1   6
TORSDOF 4
ENDMDL
