@<TRIPOS>MOLECULE
/home/cewinharhar/GITHUB/reincatalyze/data/processed/docking_pred/2023-Apr-26-1657_maxeplen10_maxtrainstep1000_exh32_gamma099_lrac9e-4_lrcr1e-3/81487a167534eaf1a49a57d95a0bec7d9495d7bd_ligand_2.pdbqt
 12 12 0 0 0
SMALL
GASTEIGER

@<TRIPOS>ATOM
      1  C          5.4680    2.8780   -0.0090 C.3     1  UNL1        0.1270
      2  C          6.2460    3.8500    0.7940 C.2     1  UNL1        0.3030
      3  O          6.8960    4.7750    0.2470 O.2     1  UNL1       -0.2520
      4  O          6.2780    3.7650    2.1770 O.3     1  UNL1       -0.4810
      5  H          7.1130    4.0780    2.6790 H       1  UNL1        0.2960
      6  C          4.9130    1.8400    0.9170 C.3     1  UNL1        0.0470
      7  C          5.6900    0.6030    0.9590 C.2     1  UNL1       -0.0470
      8  C          5.7490   -0.1530    2.1070 C.2     1  UNL1        0.0040
      9  C          6.3670    0.1960   -0.1680 C.2     1  UNL1        0.0040
     10  C          6.5100   -1.3240    2.0750 C.2     1  UNL1        0.0000
     11  C          7.1190   -0.9610   -0.1980 C.2     1  UNL1        0.0000
     12  C          7.1830   -1.7230    0.9480 C.2     1  UNL1        0.0000
@<TRIPOS>BOND
     1    11     9    1
     2    11    12    2
     3     9     7    2
     4     1     2    1
     5     1     6    1
     6     3     2    2
     7     2     4    1
     8     6     7    1
     9    12    10    1
    10     7     8    1
    11    10     8    2
    12     4     5    1
