@<TRIPOS>MOLECULE
/home/cewinharhar/GITHUB/reincatalyze/data/processed/docking_pred/2023-Apr-26-1657_maxeplen10_maxtrainstep1000_exh32_gamma099_lrac9e-4_lrcr1e-3/81487a167534eaf1a49a57d95a0bec7d9495d7bd_ligand_2.pdbqt
 12 12 0 0 0
SMALL
GASTEIGER

@<TRIPOS>ATOM
      1  C          8.3920   -0.6210   -2.1270 C.3     1  UNL1        0.1270
      2  C          8.3670   -1.8940   -2.8850 C.2     1  UNL1        0.3030
      3  O          7.2830   -2.4080   -3.2580 O.2     1  UNL1       -0.2520
      4  O          9.5430   -2.5540   -3.2030 O.3     1  UNL1       -0.4810
      5  H          9.8140   -2.6490   -4.1860 H       1  UNL1        0.2960
      6  C          6.9980   -0.0740   -2.0780 C.3     1  UNL1        0.0470
      7  C          6.4570    0.0550   -0.7260 C.2     1  UNL1       -0.0470
      8  C          6.5940   -0.9650    0.1870 C.2     1  UNL1        0.0040
      9  C          5.8070    1.2140   -0.3710 C.2     1  UNL1        0.0040
     10  C          6.0530   -0.7720    1.4600 C.2     1  UNL1        0.0000
     11  C          5.2730    1.4030    0.8880 C.2     1  UNL1        0.0000
     12  C          5.4050    0.3860    1.8080 C.2     1  UNL1        0.0000
@<TRIPOS>BOND
     1     5     4    1
     2     3     2    2
     3     4     2    1
     4     2     1    1
     5     1     6    1
     6     6     7    1
     7     7     9    2
     8     7     8    1
     9     9    11    1
    10     8    10    2
    11    11    12    2
    12    10    12    1
