@<TRIPOS>MOLECULE
/home/cewinharhar/GITHUB/reincatalyze/data/processed/docking_pred/2023-Apr-26-1657_maxeplen10_maxtrainstep1000_exh32_gamma099_lrac9e-4_lrcr1e-3/82066193004a6cdbe54a2a950d109d8cafa96b54_ligand_2.pdbqt
 12 12 0 0 0
SMALL
GASTEIGER

@<TRIPOS>ATOM
      1  C          8.4220   -0.5750   -2.2040 C.3     1  UNL1        0.1270
      2  C          8.4820   -1.8730   -2.9170 C.2     1  UNL1        0.3030
      3  O          9.5740   -2.4650   -3.1010 O.2     1  UNL1       -0.2520
      4  O          7.3300   -2.4690   -3.4030 O.3     1  UNL1       -0.4810
      5  H          6.8440   -2.0460   -4.1990 H       1  UNL1        0.2960
      6  C          6.9930   -0.1270   -2.1600 C.3     1  UNL1        0.0470
      7  C          6.4650    0.0460   -0.8080 C.2     1  UNL1       -0.0470
      8  C          6.6000   -0.9490    0.1320 C.2     1  UNL1        0.0040
      9  C          5.8290    1.2210   -0.4810 C.2     1  UNL1        0.0040
     10  C          6.0730   -0.7150    1.4040 C.2     1  UNL1        0.0000
     11  C          5.3070    1.4500    0.7770 C.2     1  UNL1        0.0000
     12  C          5.4380    0.4580    1.7240 C.2     1  UNL1        0.0000
@<TRIPOS>BOND
     1     5     4    1
     2     4     2    1
     3     3     2    2
     4     2     1    1
     5     1     6    1
     6     6     7    1
     7     7     9    2
     8     7     8    1
     9     9    11    1
    10     8    10    2
    11    11    12    2
    12    10    12    1
