@<TRIPOS>MOLECULE
/home/cewinharhar/GITHUB/reincatalyze/data/processed/docking_pred/2023-Apr-26-1657_maxeplen10_maxtrainstep1000_exh32_gamma099_lrac9e-4_lrcr1e-3/82066193004a6cdbe54a2a950d109d8cafa96b54_ligand_2.pdbqt
 12 12 0 0 0
SMALL
GASTEIGER

@<TRIPOS>ATOM
      1  C          4.9950    1.7840    0.6640 C.3     1  UNL1        0.1270
      2  C          4.5000    1.1230    1.8950 C.2     1  UNL1        0.3030
      3  O          5.1780    0.2390    2.4760 O.2     1  UNL1       -0.2520
      4  O          3.2730    1.4630    2.4400 O.3     1  UNL1       -0.4810
      5  H          3.2430    2.0040    3.3090 H       1  UNL1        0.2960
      6  C          6.4910    1.8230    0.7200 C.3     1  UNL1        0.0470
      7  C          7.1460    1.0710   -0.3500 C.2     1  UNL1       -0.0470
      8  C          8.4830    1.2500   -0.6190 C.2     1  UNL1        0.0040
      9  C          6.4080    0.1750   -1.0890 C.2     1  UNL1        0.0040
     10  C          9.0420    0.4980   -1.6540 C.2     1  UNL1        0.0000
     11  C          6.9630   -0.5670   -2.1120 C.2     1  UNL1        0.0000
     12  C          8.3020   -0.3940   -2.3880 C.2     1  UNL1        0.0000
@<TRIPOS>BOND
     1    12    11    2
     2    12    10    1
     3    11     9    1
     4    10     8    2
     5     9     7    2
     6     8     7    1
     7     7     6    1
     8     1     6    1
     9     1     2    1
    10     2     4    1
    11     2     3    2
    12     4     5    1
