@<TRIPOS>MOLECULE
/home/cewinharhar/GITHUB/reincatalyze/data/processed/docking_pred/2023-Apr-26-1657_maxeplen10_maxtrainstep1000_exh32_gamma099_lrac9e-4_lrcr1e-3/82066193004a6cdbe54a2a950d109d8cafa96b54_ligand_2.pdbqt
 12 12 0 0 0
SMALL
GASTEIGER

@<TRIPOS>ATOM
      1  C          5.3960    2.9140    0.0610 C.3     1  UNL1        0.1270
      2  C          6.2180    3.8810    0.8260 C.2     1  UNL1        0.3030
      3  O          6.9150    4.7470    0.2410 O.2     1  UNL1       -0.2520
      4  O          6.2420    3.8540    2.2110 O.3     1  UNL1       -0.4810
      5  H          7.0730    4.1920    2.7040 H       1  UNL1        0.2960
      6  C          4.9020    1.8630    1.0090 C.3     1  UNL1        0.0470
      7  C          5.6900    0.6320    0.9930 C.2     1  UNL1       -0.0470
      8  C          6.3640    0.2420   -0.1410 C.2     1  UNL1        0.0040
      9  C          5.7530   -0.1390    2.1310 C.2     1  UNL1        0.0040
     10  C          7.0970   -0.9450   -0.0830 C.2     1  UNL1        0.0000
     11  C          6.4780   -1.3130    2.1860 C.2     1  UNL1        0.0000
     12  C          7.1560   -1.7100    1.0540 C.2     1  UNL1        0.0000
@<TRIPOS>BOND
     1     8    10    1
     2     8     7    2
     3    10    12    2
     4     1     2    1
     5     1     6    1
     6     3     2    2
     7     2     4    1
     8     7     6    1
     9     7     9    1
    10    12    11    1
    11     9    11    2
    12     4     5    1
