@<TRIPOS>MOLECULE
/home/cewinharhar/GITHUB/reincatalyze/data/processed/docking_pred/2023-Apr-26-1657_maxeplen10_maxtrainstep1000_exh32_gamma099_lrac9e-4_lrcr1e-3/82066193004a6cdbe54a2a950d109d8cafa96b54_ligand_2.pdbqt
 12 12 0 0 0
SMALL
GASTEIGER

@<TRIPOS>ATOM
      1  C          8.2420    0.1870   -2.2050 C.3     1  UNL1        0.1270
      2  C          9.3620    0.3300   -1.2460 C.2     1  UNL1        0.3030
      3  O          9.4510   -0.4100   -0.2350 O.2     1  UNL1       -0.2520
      4  O         10.3460    1.2860   -1.4400 O.3     1  UNL1       -0.4810
      5  H         10.3440    1.8390   -2.3020 H       1  UNL1        0.2960
      6  C          7.1360   -0.5640   -1.5290 C.3     1  UNL1        0.0470
      7  C          6.3540    0.2430   -0.5940 C.2     1  UNL1       -0.0470
      8  C          6.1340   -0.1870    0.6940 C.2     1  UNL1        0.0040
      9  C          5.8370    1.4470   -1.0160 C.2     1  UNL1        0.0040
     10  C          5.3790    0.6360    1.5320 C.2     1  UNL1        0.0000
     11  C          5.0910    2.2590   -0.1860 C.2     1  UNL1        0.0000
     12  C          4.8650    1.8350    1.1060 C.2     1  UNL1        0.0000
@<TRIPOS>BOND
     1     5     4    1
     2     1     6    1
     3     1     2    1
     4     6     7    1
     5     4     2    1
     6     2     3    2
     7     9     7    2
     8     9    11    1
     9     7     8    1
    10    11    12    2
    11     8    10    2
    12    12    10    1
