@<TRIPOS>MOLECULE
/home/cewinharhar/GITHUB/reincatalyze/data/processed/docking_pred/2023-Apr-26-1657_maxeplen10_maxtrainstep1000_exh32_gamma099_lrac9e-4_lrcr1e-3/82066193004a6cdbe54a2a950d109d8cafa96b54_ligand_2.pdbqt
 12 12 0 0 0
SMALL
GASTEIGER

@<TRIPOS>ATOM
      1  C          8.4270   -0.6310   -2.1210 C.3     1  UNL1        0.1270
      2  C          8.4720   -1.8940   -2.8960 C.2     1  UNL1        0.3030
      3  O          9.5520   -2.5090   -3.0760 O.2     1  UNL1       -0.2520
      4  O          7.3190   -2.4310   -3.4460 O.3     1  UNL1       -0.4810
      5  H          7.3830   -3.2830   -4.0090 H       1  UNL1        0.2960
      6  C          7.0130   -0.1370   -2.1080 C.3     1  UNL1        0.0470
      7  C          6.4650    0.0620   -0.7680 C.2     1  UNL1       -0.0470
      8  C          5.8240    1.2340   -0.4370 C.2     1  UNL1        0.0040
      9  C          6.5950   -0.9390    0.1660 C.2     1  UNL1        0.0040
     10  C          5.3240    1.3550    0.8620 C.2     1  UNL1        0.0000
     11  C          6.1010   -0.8180    1.4500 C.2     1  UNL1        0.0000
     12  C          5.4580    0.3530    1.7900 C.2     1  UNL1        0.0000
@<TRIPOS>BOND
     1     5     4    1
     2     4     2    1
     3     3     2    2
     4     2     1    1
     5     1     6    1
     6     6     7    1
     7     7     8    2
     8     7     9    1
     9     8    10    1
    10     9    11    2
    11    10    12    2
    12    11    12    1
