MODEL 1
REMARK VINA RESULT:      -7.3      0.000      0.000
REMARK SMILES O=C(O)CCc1ccccc1
REMARK SMILES IDX 4 1 2 2 1 3 3 4 5 6 6 7 7 8 11 9 8 10 10 11 9 12
REMARK H PARENT 3 5
REMARK Flexibility Score: inf
ROOT
ATOM      1  C   UNL     1       8.427  -0.631  -2.121  1.00  0.00     0.127 C 
ENDROOT
BRANCH   1   2
ATOM      2  C   UNL     1       8.472  -1.894  -2.896  1.00  0.00     0.303 C 
ATOM      3  O   UNL     1       9.552  -2.509  -3.076  1.00  0.00    -0.252 OA
BRANCH   2   4
ATOM      4  O   UNL     1       7.319  -2.431  -3.446  1.00  0.00    -0.481 OA
ATOM      5  H   UNL     1       7.383  -3.283  -4.009  1.00  0.00     0.296 HD
ENDBRANCH   2   4
ENDBRANCH   1   2
BRANCH   1   6
ATOM      6  C   UNL     1       7.013  -0.137  -2.108  1.00  0.00     0.047 C 
BRANCH   6   7
ATOM      7  C   UNL     1       6.465   0.062  -0.768  1.00  0.00    -0.047 A 
ATOM      8  C   UNL     1       5.824   1.234  -0.437  1.00  0.00     0.004 A 
ATOM      9  C   UNL     1       6.595  -0.939   0.166  1.00  0.00     0.004 A 
ATOM     10  C   UNL     1       5.324   1.355   0.862  1.00  0.00     0.000 A 
ATOM     11  C   UNL     1       6.101  -0.818   1.450  1.00  0.00     0.000 A 
ATOM     12  C   UNL     1       5.458   0.353   1.790  1.00  0.00     0.000 A 
ENDBRANCH   6   7
ENDBRANCH   1   6
TORSDOF 4
ENDMDL
MODEL 2
REMARK VINA RESULT:      -7.3      0.081      1.439
REMARK SMILES O=C(O)CCc1ccccc1
REMARK SMILES IDX 4 1 2 2 1 3 3 4 5 6 6 7 7 8 11 9 8 10 10 11 9 12
REMARK H PARENT 3 5
REMARK Flexibility Score: inf
ROOT
ATOM      1  C   UNL     1       8.422  -0.575  -2.204  1.00  0.00     0.127 C 
ENDROOT
BRANCH   1   2
ATOM      2  C   UNL     1       8.482  -1.873  -2.917  1.00  0.00     0.303 C 
ATOM      3  O   UNL     1       9.574  -2.465  -3.101  1.00  0.00    -0.252 OA
BRANCH   2   4
ATOM      4  O   UNL     1       7.330  -2.469  -3.403  1.00  0.00    -0.481 OA
ATOM      5  H   UNL     1       6.844  -2.046  -4.199  1.00  0.00     0.296 HD
ENDBRANCH   2   4
ENDBRANCH   1   2
BRANCH   1   6
ATOM      6  C   UNL     1       6.993  -0.127  -2.160  1.00  0.00     0.047 C 
BRANCH   6   7
ATOM      7  C   UNL     1       6.465   0.046  -0.808  1.00  0.00    -0.047 A 
ATOM      8  C   UNL     1       6.600  -0.949   0.132  1.00  0.00     0.004 A 
ATOM      9  C   UNL     1       5.829   1.221  -0.481  1.00  0.00     0.004 A 
ATOM     10  C   UNL     1       6.073  -0.715   1.404  1.00  0.00     0.000 A 
ATOM     11  C   UNL     1       5.307   1.450   0.777  1.00  0.00     0.000 A 
ATOM     12  C   UNL     1       5.438   0.458   1.724  1.00  0.00     0.000 A 
ENDBRANCH   6   7
ENDBRANCH   1   6
TORSDOF 4
ENDMDL
MODEL 3
REMARK VINA RESULT:      -6.8      3.383      5.055
REMARK SMILES O=C(O)CCc1ccccc1
REMARK SMILES IDX 4 1 2 2 1 3 3 4 5 6 6 7 7 8 11 9 8 10 10 11 9 12
REMARK H PARENT 3 5
REMARK Flexibility Score: inf
ROOT
ATOM      1  C   UNL     1       4.995   1.784   0.664  1.00  0.00     0.127 C 
ENDROOT
BRANCH   1   2
ATOM      2  C   UNL     1       4.500   1.123   1.895  1.00  0.00     0.303 C 
ATOM      3  O   UNL     1       5.178   0.239   2.476  1.00  0.00    -0.252 OA
BRANCH   2   4
ATOM      4  O   UNL     1       3.273   1.463   2.440  1.00  0.00    -0.481 OA
ATOM      5  H   UNL     1       3.243   2.004   3.309  1.00  0.00     0.296 HD
ENDBRANCH   2   4
ENDBRANCH   1   2
BRANCH   1   6
ATOM      6  C   UNL     1       6.491   1.823   0.720  1.00  0.00     0.047 C 
BRANCH   6   7
ATOM      7  C   UNL     1       7.146   1.071  -0.350  1.00  0.00    -0.047 A 
ATOM      8  C   UNL     1       8.483   1.250  -0.619  1.00  0.00     0.004 A 
ATOM      9  C   UNL     1       6.408   0.175  -1.089  1.00  0.00     0.004 A 
ATOM     10  C   UNL     1       9.042   0.498  -1.654  1.00  0.00     0.000 A 
ATOM     11  C   UNL     1       6.963  -0.567  -2.112  1.00  0.00     0.000 A 
ATOM     12  C   UNL     1       8.302  -0.394  -2.388  1.00  0.00     0.000 A 
ENDBRANCH   6   7
ENDBRANCH   1   6
TORSDOF 4
ENDMDL
MODEL 4
REMARK VINA RESULT:      -6.7      1.923      2.654
REMARK SMILES O=C(O)CCc1ccccc1
REMARK SMILES IDX 4 1 2 2 1 3 3 4 5 6 6 7 7 8 11 9 8 10 10 11 9 12
REMARK H PARENT 3 5
REMARK Flexibility Score: inf
ROOT
ATOM      1  C   UNL     1       8.242   0.187  -2.205  1.00  0.00     0.127 C 
ENDROOT
BRANCH   1   2
ATOM      2  C   UNL     1       9.362   0.330  -1.246  1.00  0.00     0.303 C 
ATOM      3  O   UNL     1       9.451  -0.410  -0.235  1.00  0.00    -0.252 OA
BRANCH   2   4
ATOM      4  O   UNL     1      10.346   1.286  -1.440  1.00  0.00    -0.481 OA
ATOM      5  H   UNL     1      10.344   1.839  -2.302  1.00  0.00     0.296 HD
ENDBRANCH   2   4
ENDBRANCH   1   2
BRANCH   1   6
ATOM      6  C   UNL     1       7.136  -0.564  -1.529  1.00  0.00     0.047 C 
BRANCH   6   7
ATOM      7  C   UNL     1       6.354   0.243  -0.594  1.00  0.00    -0.047 A 
ATOM      8  C   UNL     1       6.134  -0.187   0.694  1.00  0.00     0.004 A 
ATOM      9  C   UNL     1       5.837   1.447  -1.016  1.00  0.00     0.004 A 
ATOM     10  C   UNL     1       5.379   0.636   1.532  1.00  0.00     0.000 A 
ATOM     11  C   UNL     1       5.091   2.259  -0.186  1.00  0.00     0.000 A 
ATOM     12  C   UNL     1       4.865   1.835   1.106  1.00  0.00     0.000 A 
ENDBRANCH   6   7
ENDBRANCH   1   6
TORSDOF 4
ENDMDL
MODEL 5
REMARK VINA RESULT:      -6.7      3.826      4.943
REMARK SMILES O=C(O)CCc1ccccc1
REMARK SMILES IDX 4 1 2 2 1 3 3 4 5 6 6 7 7 8 11 9 8 10 10 11 9 12
REMARK H PARENT 3 5
REMARK Flexibility Score: inf
ROOT
ATOM      1  C   UNL     1       5.396   2.914   0.061  1.00  0.00     0.127 C 
ENDROOT
BRANCH   1   2
ATOM      2  C   UNL     1       6.218   3.881   0.826  1.00  0.00     0.303 C 
ATOM      3  O   UNL     1       6.915   4.747   0.241  1.00  0.00    -0.252 OA
BRANCH   2   4
ATOM      4  O   UNL     1       6.242   3.854   2.211  1.00  0.00    -0.481 OA
ATOM      5  H   UNL     1       7.073   4.192   2.704  1.00  0.00     0.296 HD
ENDBRANCH   2   4
ENDBRANCH   1   2
BRANCH   1   6
ATOM      6  C   UNL     1       4.902   1.863   1.009  1.00  0.00     0.047 C 
BRANCH   6   7
ATOM      7  C   UNL     1       5.690   0.632   0.993  1.00  0.00    -0.047 A 
ATOM      8  C   UNL     1       6.364   0.242  -0.141  1.00  0.00     0.004 A 
ATOM      9  C   UNL     1       5.753  -0.139   2.131  1.00  0.00     0.004 A 
ATOM     10  C   UNL     1       7.097  -0.945  -0.083  1.00  0.00     0.000 A 
ATOM     11  C   UNL     1       6.478  -1.313   2.186  1.00  0.00     0.000 A 
ATOM     12  C   UNL     1       7.156  -1.710   1.054  1.00  0.00     0.000 A 
ENDBRANCH   6   7
ENDBRANCH   1   6
TORSDOF 4
ENDMDL
