@<TRIPOS>MOLECULE
/home/cewinharhar/GITHUB/reincatalyze/data/processed/docking_pred/2023-Apr-26-1657_maxeplen10_maxtrainstep1000_exh32_gamma099_lrac9e-4_lrcr1e-3/84f6a015bafc2578e701aafee66be27aa4cb1192_ligand_2.pdbqt
 12 12 0 0 0
SMALL
GASTEIGER

@<TRIPOS>ATOM
      1  C          8.4520   -0.6390   -2.1470 C.3     1  UNL1        0.1270
      2  C          8.4910   -1.9090   -2.9120 C.2     1  UNL1        0.3030
      3  O          9.5710   -2.5190   -3.1040 O.2     1  UNL1       -0.2520
      4  O          7.3320   -2.4570   -3.4370 O.3     1  UNL1       -0.4810
      5  H          6.7910   -1.9230   -4.1230 H       1  UNL1        0.2960
      6  C          7.0380   -0.1450   -2.1270 C.3     1  UNL1        0.0470
      7  C          6.4880    0.0300   -0.7840 C.2     1  UNL1       -0.0470
      8  C          6.6100   -0.9620    0.1610 C.2     1  UNL1        0.0040
      9  C          5.8460    1.2060   -0.4700 C.2     1  UNL1        0.0040
     10  C          6.0620   -0.7250    1.4240 C.2     1  UNL1        0.0000
     11  C          5.3050    1.4380    0.7790 C.2     1  UNL1        0.0000
     12  C          5.4210    0.4490    1.7310 C.2     1  UNL1        0.0000
@<TRIPOS>BOND
     1     5     4    1
     2     4     2    1
     3     3     2    2
     4     2     1    1
     5     1     6    1
     6     6     7    1
     7     7     9    2
     8     7     8    1
     9     9    11    1
    10     8    10    2
    11    11    12    2
    12    10    12    1
