MODEL 1
REMARK VINA RESULT:      -7.4      0.000      0.000
REMARK SMILES O=C(O)CCc1ccccc1
REMARK SMILES IDX 4 1 2 2 1 3 3 4 5 6 6 7 7 8 11 9 8 10 10 11 9 12
REMARK H PARENT 3 5
REMARK Flexibility Score: inf
ROOT
ATOM      1  C   UNL     1       8.452  -0.639  -2.147  1.00  0.00     0.127 C 
ENDROOT
BRANCH   1   2
ATOM      2  C   UNL     1       8.491  -1.909  -2.912  1.00  0.00     0.303 C 
ATOM      3  O   UNL     1       9.571  -2.519  -3.104  1.00  0.00    -0.252 OA
BRANCH   2   4
ATOM      4  O   UNL     1       7.332  -2.457  -3.437  1.00  0.00    -0.481 OA
ATOM      5  H   UNL     1       6.791  -1.923  -4.123  1.00  0.00     0.296 HD
ENDBRANCH   2   4
ENDBRANCH   1   2
BRANCH   1   6
ATOM      6  C   UNL     1       7.038  -0.145  -2.127  1.00  0.00     0.047 C 
BRANCH   6   7
ATOM      7  C   UNL     1       6.488   0.030  -0.784  1.00  0.00    -0.047 A 
ATOM      8  C   UNL     1       6.610  -0.962   0.161  1.00  0.00     0.004 A 
ATOM      9  C   UNL     1       5.846   1.206  -0.470  1.00  0.00     0.004 A 
ATOM     10  C   UNL     1       6.062  -0.725   1.424  1.00  0.00     0.000 A 
ATOM     11  C   UNL     1       5.305   1.438   0.779  1.00  0.00     0.000 A 
ATOM     12  C   UNL     1       5.421   0.449   1.731  1.00  0.00     0.000 A 
ENDBRANCH   6   7
ENDBRANCH   1   6
TORSDOF 4
ENDMDL
MODEL 2
REMARK VINA RESULT:      -7.3      0.118      1.440
REMARK SMILES O=C(O)CCc1ccccc1
REMARK SMILES IDX 4 1 2 2 1 3 3 4 5 6 6 7 7 8 11 9 8 10 10 11 9 12
REMARK H PARENT 3 5
REMARK Flexibility Score: inf
ROOT
ATOM      1  C   UNL     1       8.436  -0.547  -2.257  1.00  0.00     0.127 C 
ENDROOT
BRANCH   1   2
ATOM      2  C   UNL     1       8.490  -1.863  -2.937  1.00  0.00     0.303 C 
ATOM      3  O   UNL     1       9.572  -2.487  -3.062  1.00  0.00    -0.252 OA
BRANCH   2   4
ATOM      4  O   UNL     1       7.342  -2.442  -3.455  1.00  0.00    -0.481 OA
ATOM      5  H   UNL     1       7.219  -2.489  -4.470  1.00  0.00     0.296 HD
ENDBRANCH   2   4
ENDBRANCH   1   2
BRANCH   1   6
ATOM      6  C   UNL     1       7.006  -0.103  -2.204  1.00  0.00     0.047 C 
BRANCH   6   7
ATOM      7  C   UNL     1       6.484   0.061  -0.848  1.00  0.00    -0.047 A 
ATOM      8  C   UNL     1       5.840   1.218  -0.478  1.00  0.00     0.004 A 
ATOM      9  C   UNL     1       6.643  -0.960   0.060  1.00  0.00     0.004 A 
ATOM     10  C   UNL     1       5.367   1.305   0.834  1.00  0.00     0.000 A 
ATOM     11  C   UNL     1       6.174  -0.873   1.356  1.00  0.00     0.000 A 
ATOM     12  C   UNL     1       5.528   0.284   1.735  1.00  0.00     0.000 A 
ENDBRANCH   6   7
ENDBRANCH   1   6
TORSDOF 4
ENDMDL
MODEL 3
REMARK VINA RESULT:      -7.1      0.609      1.432
REMARK SMILES O=C(O)CCc1ccccc1
REMARK SMILES IDX 4 1 2 2 1 3 3 4 5 6 6 7 7 8 11 9 8 10 10 11 9 12
REMARK H PARENT 3 5
REMARK Flexibility Score: inf
ROOT
ATOM      1  C   UNL     1       8.303  -0.893  -1.852  1.00  0.00     0.127 C 
ENDROOT
BRANCH   1   2
ATOM      2  C   UNL     1       8.343  -1.998  -2.838  1.00  0.00     0.303 C 
ATOM      3  O   UNL     1       7.289  -2.460  -3.341  1.00  0.00    -0.252 OA
BRANCH   2   4
ATOM      4  O   UNL     1       9.550  -2.553  -3.234  1.00  0.00    -0.481 OA
ATOM      5  H   UNL     1       9.642  -3.571  -3.278  1.00  0.00     0.296 HD
ENDBRANCH   2   4
ENDBRANCH   1   2
BRANCH   1   6
ATOM      6  C   UNL     1       7.561  -1.371  -0.641  1.00  0.00     0.047 C 
BRANCH   6   7
ATOM      7  C   UNL     1       6.673  -0.368  -0.054  1.00  0.00    -0.047 A 
ATOM      8  C   UNL     1       6.185  -0.522   1.223  1.00  0.00     0.004 A 
ATOM      9  C   UNL     1       6.329   0.739  -0.793  1.00  0.00     0.004 A 
ATOM     10  C   UNL     1       5.343   0.475   1.720  1.00  0.00     0.000 A 
ATOM     11  C   UNL     1       5.496   1.724  -0.301  1.00  0.00     0.000 A 
ATOM     12  C   UNL     1       5.002   1.577   0.977  1.00  0.00     0.000 A 
ENDBRANCH   6   7
ENDBRANCH   1   6
TORSDOF 4
ENDMDL
MODEL 4
REMARK VINA RESULT:      -6.8      3.386      5.077
REMARK SMILES O=C(O)CCc1ccccc1
REMARK SMILES IDX 4 1 2 2 1 3 3 4 5 6 6 7 7 8 11 9 8 10 10 11 9 12
REMARK H PARENT 3 5
REMARK Flexibility Score: inf
ROOT
ATOM      1  C   UNL     1       5.014   1.818   0.725  1.00  0.00     0.127 C 
ENDROOT
BRANCH   1   2
ATOM      2  C   UNL     1       4.488   1.118   1.921  1.00  0.00     0.303 C 
ATOM      3  O   UNL     1       5.142   0.203   2.479  1.00  0.00    -0.252 OA
BRANCH   2   4
ATOM      4  O   UNL     1       3.256   1.457   2.457  1.00  0.00    -0.481 OA
ATOM      5  H   UNL     1       2.660   2.125   1.960  1.00  0.00     0.296 HD
ENDBRANCH   2   4
ENDBRANCH   1   2
BRANCH   1   6
ATOM      6  C   UNL     1       6.511   1.771   0.773  1.00  0.00     0.047 C 
BRANCH   6   7
ATOM      7  C   UNL     1       7.118   1.026  -0.328  1.00  0.00    -0.047 A 
ATOM      8  C   UNL     1       6.378   0.130  -1.063  1.00  0.00     0.004 A 
ATOM      9  C   UNL     1       8.445   1.232  -0.627  1.00  0.00     0.004 A 
ATOM     10  C   UNL     1       7.022  -0.546  -2.102  1.00  0.00     0.000 A 
ATOM     11  C   UNL     1       9.081   0.562  -1.654  1.00  0.00     0.000 A 
ATOM     12  C   UNL     1       8.347  -0.338  -2.395  1.00  0.00     0.000 A 
ENDBRANCH   6   7
ENDBRANCH   1   6
TORSDOF 4
ENDMDL
MODEL 5
REMARK VINA RESULT:      -6.6      1.916      2.642
REMARK SMILES O=C(O)CCc1ccccc1
REMARK SMILES IDX 4 1 2 2 1 3 3 4 5 6 6 7 7 8 11 9 8 10 10 11 9 12
REMARK H PARENT 3 5
REMARK Flexibility Score: inf
ROOT
ATOM      1  C   UNL     1       8.222   0.245  -2.247  1.00  0.00     0.127 C 
ENDROOT
BRANCH   1   2
ATOM      2  C   UNL     1       9.340   0.349  -1.281  1.00  0.00     0.303 C 
ATOM      3  O   UNL     1       9.420  -0.422  -0.293  1.00  0.00    -0.252 OA
BRANCH   2   4
ATOM      4  O   UNL     1      10.332   1.303  -1.442  1.00  0.00    -0.481 OA
ATOM      5  H   UNL     1      10.610   1.582  -2.387  1.00  0.00     0.296 HD
ENDBRANCH   2   4
ENDBRANCH   1   2
BRANCH   1   6
ATOM      6  C   UNL     1       7.095  -0.489  -1.587  1.00  0.00     0.047 C 
BRANCH   6   7
ATOM      7  C   UNL     1       6.321   0.327  -0.652  1.00  0.00    -0.047 A 
ATOM      8  C   UNL     1       5.800   1.539  -1.041  1.00  0.00     0.004 A 
ATOM      9  C   UNL     1       6.115  -0.133   0.628  1.00  0.00     0.004 A 
ATOM     10  C   UNL     1       5.070   2.264  -0.097  1.00  0.00     0.000 A 
ATOM     11  C   UNL     1       5.394   0.586   1.561  1.00  0.00     0.000 A 
ATOM     12  C   UNL     1       4.869   1.801   1.179  1.00  0.00     0.000 A 
ENDBRANCH   6   7
ENDBRANCH   1   6
TORSDOF 4
ENDMDL
