@<TRIPOS>MOLECULE
/home/cewinharhar/GITHUB/reincatalyze/data/processed/docking_pred/2023-Apr-26-1657_maxeplen10_maxtrainstep1000_exh32_gamma099_lrac9e-4_lrcr1e-3/84f6a015bafc2578e701aafee66be27aa4cb1192_ligand_2.pdbqt
 12 12 0 0 0
SMALL
GASTEIGER

@<TRIPOS>ATOM
      1  C          5.0140    1.8180    0.7250 C.3     1  UNL1        0.1270
      2  C          4.4880    1.1180    1.9210 C.2     1  UNL1        0.3030
      3  O          5.1420    0.2030    2.4790 O.2     1  UNL1       -0.2520
      4  O          3.2560    1.4570    2.4570 O.3     1  UNL1       -0.4810
      5  H          2.6600    2.1250    1.9600 H       1  UNL1        0.2960
      6  C          6.5110    1.7710    0.7730 C.3     1  UNL1        0.0470
      7  C          7.1180    1.0260   -0.3280 C.2     1  UNL1       -0.0470
      8  C          6.3780    0.1300   -1.0630 C.2     1  UNL1        0.0040
      9  C          8.4450    1.2320   -0.6270 C.2     1  UNL1        0.0040
     10  C          7.0220   -0.5460   -2.1020 C.2     1  UNL1        0.0000
     11  C          9.0810    0.5620   -1.6540 C.2     1  UNL1        0.0000
     12  C          8.3470   -0.3380   -2.3950 C.2     1  UNL1        0.0000
@<TRIPOS>BOND
     1    12    10    2
     2    12    11    1
     3    10     8    1
     4    11     9    2
     5     8     7    2
     6     9     7    1
     7     7     6    1
     8     1     6    1
     9     1     2    1
    10     2     4    1
    11     2     3    2
    12     5     4    1
