@<TRIPOS>MOLECULE
/home/cewinharhar/GITHUB/reincatalyze/data/processed/docking_pred/2023-Apr-26-1657_maxeplen10_maxtrainstep1000_exh32_gamma099_lrac9e-4_lrcr1e-3/84f6a015bafc2578e701aafee66be27aa4cb1192_ligand_2.pdbqt
 12 12 0 0 0
SMALL
GASTEIGER

@<TRIPOS>ATOM
      1  C          8.4360   -0.5470   -2.2570 C.3     1  UNL1        0.1270
      2  C          8.4900   -1.8630   -2.9370 C.2     1  UNL1        0.3030
      3  O          9.5720   -2.4870   -3.0620 O.2     1  UNL1       -0.2520
      4  O          7.3420   -2.4420   -3.4550 O.3     1  UNL1       -0.4810
      5  H          7.2190   -2.4890   -4.4700 H       1  UNL1        0.2960
      6  C          7.0060   -0.1030   -2.2040 C.3     1  UNL1        0.0470
      7  C          6.4840    0.0610   -0.8480 C.2     1  UNL1       -0.0470
      8  C          5.8400    1.2180   -0.4780 C.2     1  UNL1        0.0040
      9  C          6.6430   -0.9600    0.0600 C.2     1  UNL1        0.0040
     10  C          5.3670    1.3050    0.8340 C.2     1  UNL1        0.0000
     11  C          6.1740   -0.8730    1.3560 C.2     1  UNL1        0.0000
     12  C          5.5280    0.2840    1.7350 C.2     1  UNL1        0.0000
@<TRIPOS>BOND
     1     5     4    1
     2     4     2    1
     3     3     2    2
     4     2     1    1
     5     1     6    1
     6     6     7    1
     7     7     8    2
     8     7     9    1
     9     8    10    1
    10     9    11    2
    11    10    12    2
    12    11    12    1
