@<TRIPOS>MOLECULE
/home/cewinharhar/GITHUB/reincatalyze/data/processed/docking_pred/2023-Apr-26-1657_maxeplen10_maxtrainstep1000_exh32_gamma099_lrac9e-4_lrcr1e-3/84f6a015bafc2578e701aafee66be27aa4cb1192_ligand_2.pdbqt
 12 12 0 0 0
SMALL
GASTEIGER

@<TRIPOS>ATOM
      1  C          8.3030   -0.8930   -1.8520 C.3     1  UNL1        0.1270
      2  C          8.3430   -1.9980   -2.8380 C.2     1  UNL1        0.3030
      3  O          7.2890   -2.4600   -3.3410 O.2     1  UNL1       -0.2520
      4  O          9.5500   -2.5530   -3.2340 O.3     1  UNL1       -0.4810
      5  H          9.6420   -3.5710   -3.2780 H       1  UNL1        0.2960
      6  C          7.5610   -1.3710   -0.6410 C.3     1  UNL1        0.0470
      7  C          6.6730   -0.3680   -0.0540 C.2     1  UNL1       -0.0470
      8  C          6.1850   -0.5220    1.2230 C.2     1  UNL1        0.0040
      9  C          6.3290    0.7390   -0.7930 C.2     1  UNL1        0.0040
     10  C          5.3430    0.4750    1.7200 C.2     1  UNL1        0.0000
     11  C          5.4960    1.7240   -0.3010 C.2     1  UNL1        0.0000
     12  C          5.0020    1.5770    0.9770 C.2     1  UNL1        0.0000
@<TRIPOS>BOND
     1     3     2    2
     2     5     4    1
     3     4     2    1
     4     2     1    1
     5     1     6    1
     6     9    11    1
     7     9     7    2
     8     6     7    1
     9    11    12    2
    10     7     8    1
    11    12    10    1
    12     8    10    2
