@<TRIPOS>MOLECULE
/home/cewinharhar/GITHUB/reincatalyze/data/processed/docking_pred/2023-Apr-26-1657_maxeplen10_maxtrainstep1000_exh32_gamma099_lrac9e-4_lrcr1e-3/84f6a015bafc2578e701aafee66be27aa4cb1192_ligand_2.pdbqt
 12 12 0 0 0
SMALL
GASTEIGER

@<TRIPOS>ATOM
      1  C          8.2220    0.2450   -2.2470 C.3     1  UNL1        0.1270
      2  C          9.3400    0.3490   -1.2810 C.2     1  UNL1        0.3030
      3  O          9.4200   -0.4220   -0.2930 O.2     1  UNL1       -0.2520
      4  O         10.3320    1.3030   -1.4420 O.3     1  UNL1       -0.4810
      5  H         10.6100    1.5820   -2.3870 H       1  UNL1        0.2960
      6  C          7.0950   -0.4890   -1.5870 C.3     1  UNL1        0.0470
      7  C          6.3210    0.3270   -0.6520 C.2     1  UNL1       -0.0470
      8  C          5.8000    1.5390   -1.0410 C.2     1  UNL1        0.0040
      9  C          6.1150   -0.1330    0.6280 C.2     1  UNL1        0.0040
     10  C          5.0700    2.2640   -0.0970 C.2     1  UNL1        0.0000
     11  C          5.3940    0.5860    1.5610 C.2     1  UNL1        0.0000
     12  C          4.8690    1.8010    1.1790 C.2     1  UNL1        0.0000
@<TRIPOS>BOND
     1     5     4    1
     2     1     6    1
     3     1     2    1
     4     6     7    1
     5     4     2    1
     6     2     3    2
     7     8     7    2
     8     8    10    1
     9     7     9    1
    10    10    12    2
    11     9    11    2
    12    12    11    1
