@<TRIPOS>MOLECULE
/home/cewinharhar/GITHUB/reincatalyze/data/processed/docking_pred/2023-Apr-26-1657_maxeplen10_maxtrainstep1000_exh32_gamma099_lrac9e-4_lrcr1e-3/8651a6b7cbc4b018fd9bb7015a505d05e6fdae34_ligand_2.pdbqt
 12 12 0 0 0
SMALL
GASTEIGER

@<TRIPOS>ATOM
      1  C          8.4160   -0.5630   -2.2400 C.3     1  UNL1        0.1270
      2  C          8.4730   -1.8730   -2.9310 C.2     1  UNL1        0.3030
      3  O          9.5610   -2.4770   -3.0910 O.2     1  UNL1       -0.2520
      4  O          7.3210   -2.4670   -3.4210 O.3     1  UNL1       -0.4810
      5  H          7.1740   -2.5140   -4.4330 H       1  UNL1        0.2960
      6  C          6.9840   -0.1250   -2.1780 C.3     1  UNL1        0.0470
      7  C          6.4680    0.0280   -0.8190 C.2     1  UNL1       -0.0470
      8  C          6.6090   -0.9810    0.1050 C.2     1  UNL1        0.0040
      9  C          5.8360    1.1990   -0.4680 C.2     1  UNL1        0.0040
     10  C          6.0930   -0.7650    1.3850 C.2     1  UNL1        0.0000
     11  C          5.3260    1.4110    0.7970 C.2     1  UNL1        0.0000
     12  C          5.4630    0.4040    1.7280 C.2     1  UNL1        0.0000
@<TRIPOS>BOND
     1     5     4    1
     2     4     2    1
     3     3     2    2
     4     2     1    1
     5     1     6    1
     6     6     7    1
     7     7     9    2
     8     7     8    1
     9     9    11    1
    10     8    10    2
    11    11    12    2
    12    10    12    1
