@<TRIPOS>MOLECULE
/home/cewinharhar/GITHUB/reincatalyze/data/processed/docking_pred/2023-Apr-26-1657_maxeplen10_maxtrainstep1000_exh32_gamma099_lrac9e-4_lrcr1e-3/8651a6b7cbc4b018fd9bb7015a505d05e6fdae34_ligand_2.pdbqt
 12 12 0 0 0
SMALL
GASTEIGER

@<TRIPOS>ATOM
      1  C          8.2120   -0.4690   -2.3630 C.3     1  UNL1        0.1270
      2  C          8.3590   -1.8150   -2.9670 C.2     1  UNL1        0.3030
      3  O          9.4810   -2.3710   -3.0520 O.2     1  UNL1       -0.2520
      4  O          7.2570   -2.4980   -3.4560 O.3     1  UNL1       -0.4810
      5  H          6.4060   -2.5480   -2.8890 H       1  UNL1        0.2960
      6  C          7.0790   -0.5140   -1.3840 C.3     1  UNL1        0.0470
      7  C          6.8580    0.7440   -0.6730 C.2     1  UNL1       -0.0470
      8  C          7.8920    1.3740   -0.0190 C.2     1  UNL1        0.0040
      9  C          5.5990    1.2990   -0.6640 C.2     1  UNL1        0.0040
     10  C          7.6090    2.5730    0.6380 C.2     1  UNL1        0.0000
     11  C          5.3210    2.4840   -0.0130 C.2     1  UNL1        0.0000
     12  C          6.3510    3.1210    0.6440 C.2     1  UNL1        0.0000
@<TRIPOS>BOND
     1     4     2    1
     2     4     5    1
     3     3     2    2
     4     2     1    1
     5     1     6    1
     6     6     7    1
     7     7     9    2
     8     7     8    1
     9     9    11    1
    10     8    10    2
    11    11    12    2
    12    10    12    1
