@<TRIPOS>MOLECULE
/home/cewinharhar/GITHUB/reincatalyze/data/processed/docking_pred/2023-Apr-26-1657_maxeplen10_maxtrainstep1000_exh32_gamma099_lrac9e-4_lrcr1e-3/8651a6b7cbc4b018fd9bb7015a505d05e6fdae34_ligand_2.pdbqt
 12 12 0 0 0
SMALL
GASTEIGER

@<TRIPOS>ATOM
      1  C          7.5910   -0.2860    1.0260 C.3     1  UNL1        0.1270
      2  C          6.6050   -1.0550    1.8210 C.2     1  UNL1        0.3030
      3  O          5.8010   -0.4790    2.5950 O.2     1  UNL1       -0.2520
      4  O          6.5440   -2.4370    1.7330 O.3     1  UNL1       -0.4810
      5  H          5.6480   -2.9090    1.8830 H       1  UNL1        0.2960
      6  C          7.9700    0.9380    1.8020 C.3     1  UNL1        0.0470
      7  C          9.3860    0.9990    2.1600 C.2     1  UNL1       -0.0470
      8  C          9.8480    1.9470    3.0440 C.2     1  UNL1        0.0040
      9  C         10.2590    0.0940    1.6040 C.2     1  UNL1        0.0040
     10  C         11.2130    1.9470    3.3410 C.2     1  UNL1        0.0000
     11  C         11.6080    0.0950    1.8980 C.2     1  UNL1        0.0000
     12  C         12.0790    1.0410    2.7820 C.2     1  UNL1        0.0000
@<TRIPOS>BOND
     1     1     6    1
     2     1     2    1
     3     9    11    1
     4     9     7    2
     5     4     2    1
     6     4     5    1
     7     6     7    1
     8     2     3    2
     9    11    12    2
    10     7     8    1
    11    12    10    1
    12     8    10    2
