@<TRIPOS>MOLECULE
/home/cewinharhar/GITHUB/reincatalyze/data/processed/docking_pred/2023-Apr-26-1657_maxeplen10_maxtrainstep1000_exh32_gamma099_lrac9e-4_lrcr1e-3/8651a6b7cbc4b018fd9bb7015a505d05e6fdae34_ligand_2.pdbqt
 12 12 0 0 0
SMALL
GASTEIGER

@<TRIPOS>ATOM
      1  C          4.9570    1.8420    0.7780 C.3     1  UNL1        0.1270
      2  C          4.4340    1.1150    1.9590 C.2     1  UNL1        0.3030
      3  O          5.0870    0.1840    2.4910 O.2     1  UNL1       -0.2520
      4  O          3.2050    1.4440    2.5080 O.3     1  UNL1       -0.4810
      5  H          2.9120    0.9980    3.3820 H       1  UNL1        0.2960
      6  C          6.4500    1.9020    0.8850 C.3     1  UNL1        0.0470
      7  C          7.1520    1.2230   -0.2020 C.2     1  UNL1       -0.0470
      8  C          6.4600    0.4820   -1.1310 C.2     1  UNL1        0.0040
      9  C          8.5210    1.3330   -0.2900 C.2     1  UNL1        0.0040
     10  C          7.1950   -0.1390   -2.1440 C.2     1  UNL1        0.0000
     11  C          9.2460    0.7180   -1.2910 C.2     1  UNL1        0.0000
     12  C          8.5600   -0.0270   -2.2260 C.2     1  UNL1        0.0000
@<TRIPOS>BOND
     1    12    10    2
     2    12    11    1
     3    10     8    1
     4    11     9    2
     5     8     7    2
     6     9     7    1
     7     7     6    1
     8     1     6    1
     9     1     2    1
    10     2     3    2
    11     2     4    1
    12     4     5    1
