@<TRIPOS>MOLECULE
/home/cewinharhar/GITHUB/reincatalyze/data/processed/docking_pred/2023-Apr-26-1657_maxeplen10_maxtrainstep1000_exh32_gamma099_lrac9e-4_lrcr1e-3/8651a6b7cbc4b018fd9bb7015a505d05e6fdae34_ligand_2.pdbqt
 12 12 0 0 0
SMALL
GASTEIGER

@<TRIPOS>ATOM
      1  C          8.4060   -0.6330   -2.1050 C.3     1  UNL1        0.1270
      2  C          8.3800   -1.8910   -2.8880 C.2     1  UNL1        0.3030
      3  O          7.2950   -2.4170   -3.2400 O.2     1  UNL1       -0.2520
      4  O          9.5580   -2.5250   -3.2530 O.3     1  UNL1       -0.4810
      5  H          9.6740   -2.8490   -4.2160 H       1  UNL1        0.2960
      6  C          7.0230   -0.0560   -2.0970 C.3     1  UNL1        0.0470
      7  C          6.4560    0.1100   -0.7600 C.2     1  UNL1       -0.0470
      8  C          5.8070    1.2710   -0.4100 C.2     1  UNL1        0.0040
      9  C          6.5750   -0.9140    0.1520 C.2     1  UNL1        0.0040
     10  C          5.2890    1.3600    0.8840 C.2     1  UNL1        0.0000
     11  C          6.0630   -0.8250    1.4310 C.2     1  UNL1        0.0000
     12  C          5.4120    0.3360    1.7900 C.2     1  UNL1        0.0000
@<TRIPOS>BOND
     1     5     4    1
     2     4     2    1
     3     3     2    2
     4     2     1    1
     5     1     6    1
     6     6     7    1
     7     7     8    2
     8     7     9    1
     9     8    10    1
    10     9    11    2
    11    10    12    2
    12    11    12    1
