MODEL 1
REMARK VINA RESULT:      -7.4      0.000      0.000
REMARK SMILES O=C(O)CCc1ccccc1
REMARK SMILES IDX 4 1 2 2 1 3 3 4 5 6 6 7 7 8 11 9 8 10 10 11 9 12
REMARK H PARENT 3 5
REMARK Flexibility Score: inf
ROOT
ATOM      1  C   UNL     1       8.478  -0.646  -2.137  1.00  0.00     0.127 C 
ENDROOT
BRANCH   1   2
ATOM      2  C   UNL     1       8.499  -1.913  -2.906  1.00  0.00     0.303 C 
ATOM      3  O   UNL     1       9.571  -2.538  -3.099  1.00  0.00    -0.252 OA
BRANCH   2   4
ATOM      4  O   UNL     1       7.333  -2.442  -3.434  1.00  0.00    -0.481 OA
ATOM      5  H   UNL     1       6.437  -2.224  -2.989  1.00  0.00     0.296 HD
ENDBRANCH   2   4
ENDBRANCH   1   2
BRANCH   1   6
ATOM      6  C   UNL     1       7.073  -0.125  -2.127  1.00  0.00     0.047 C 
BRANCH   6   7
ATOM      7  C   UNL     1       6.511   0.044  -0.788  1.00  0.00    -0.047 A 
ATOM      8  C   UNL     1       6.625  -0.952   0.154  1.00  0.00     0.004 A 
ATOM      9  C   UNL     1       5.865   1.218  -0.474  1.00  0.00     0.004 A 
ATOM     10  C   UNL     1       6.066  -0.722   1.412  1.00  0.00     0.000 A 
ATOM     11  C   UNL     1       5.313   1.444   0.771  1.00  0.00     0.000 A 
ATOM     12  C   UNL     1       5.422   0.450   1.720  1.00  0.00     0.000 A 
ENDBRANCH   6   7
ENDBRANCH   1   6
TORSDOF 4
ENDMDL
MODEL 2
REMARK VINA RESULT:      -7.3      0.103      1.439
REMARK SMILES O=C(O)CCc1ccccc1
REMARK SMILES IDX 4 1 2 2 1 3 3 4 5 6 6 7 7 8 11 9 8 10 10 11 9 12
REMARK H PARENT 3 5
REMARK Flexibility Score: inf
ROOT
ATOM      1  C   UNL     1       8.430  -0.595  -2.177  1.00  0.00     0.127 C 
ENDROOT
BRANCH   1   2
ATOM      2  C   UNL     1       8.474  -1.884  -2.907  1.00  0.00     0.303 C 
ATOM      3  O   UNL     1       9.559  -2.485  -3.102  1.00  0.00    -0.252 OA
BRANCH   2   4
ATOM      4  O   UNL     1       7.314  -2.462  -3.397  1.00  0.00    -0.481 OA
ATOM      5  H   UNL     1       6.786  -1.981  -4.131  1.00  0.00     0.296 HD
ENDBRANCH   2   4
ENDBRANCH   1   2
BRANCH   1   6
ATOM      6  C   UNL     1       7.008  -0.123  -2.139  1.00  0.00     0.047 C 
BRANCH   6   7
ATOM      7  C   UNL     1       6.475   0.050  -0.789  1.00  0.00    -0.047 A 
ATOM      8  C   UNL     1       5.848   1.220  -0.426  1.00  0.00     0.004 A 
ATOM      9  C   UNL     1       6.604  -0.974   0.120  1.00  0.00     0.004 A 
ATOM     10  C   UNL     1       5.362   1.315   0.880  1.00  0.00     0.000 A 
ATOM     11  C   UNL     1       6.123  -0.877   1.411  1.00  0.00     0.000 A 
ATOM     12  C   UNL     1       5.495   0.291   1.784  1.00  0.00     0.000 A 
ENDBRANCH   6   7
ENDBRANCH   1   6
TORSDOF 4
ENDMDL
MODEL 3
REMARK VINA RESULT:      -6.8      3.374      5.082
REMARK SMILES O=C(O)CCc1ccccc1
REMARK SMILES IDX 4 1 2 2 1 3 3 4 5 6 6 7 7 8 11 9 8 10 10 11 9 12
REMARK H PARENT 3 5
REMARK Flexibility Score: inf
ROOT
ATOM      1  C   UNL     1       5.009   1.735   0.684  1.00  0.00     0.127 C 
ENDROOT
BRANCH   1   2
ATOM      2  C   UNL     1       4.494   1.086   1.913  1.00  0.00     0.303 C 
ATOM      3  O   UNL     1       5.149   0.190   2.500  1.00  0.00    -0.252 OA
BRANCH   2   4
ATOM      4  O   UNL     1       3.270   1.453   2.450  1.00  0.00    -0.481 OA
ATOM      5  H   UNL     1       3.216   1.720   3.437  1.00  0.00     0.296 HD
ENDBRANCH   2   4
ENDBRANCH   1   2
BRANCH   1   6
ATOM      6  C   UNL     1       6.506   1.741   0.747  1.00  0.00     0.047 C 
BRANCH   6   7
ATOM      7  C   UNL     1       7.150   0.997  -0.334  1.00  0.00    -0.047 A 
ATOM      8  C   UNL     1       8.461   1.239  -0.671  1.00  0.00     0.004 A 
ATOM      9  C   UNL     1       6.429   0.043  -1.014  1.00  0.00     0.004 A 
ATOM     10  C   UNL     1       9.012   0.490  -1.713  1.00  0.00     0.000 A 
ATOM     11  C   UNL     1       6.975  -0.697  -2.044  1.00  0.00     0.000 A 
ATOM     12  C   UNL     1       8.288  -0.459  -2.389  1.00  0.00     0.000 A 
ENDBRANCH   6   7
ENDBRANCH   1   6
TORSDOF 4
ENDMDL
MODEL 4
REMARK VINA RESULT:      -6.7      1.927      2.292
REMARK SMILES O=C(O)CCc1ccccc1
REMARK SMILES IDX 4 1 2 2 1 3 3 4 5 6 6 7 7 8 11 9 8 10 10 11 9 12
REMARK H PARENT 3 5
REMARK Flexibility Score: inf
ROOT
ATOM      1  C   UNL     1       8.227   0.224  -2.214  1.00  0.00     0.127 C 
ENDROOT
BRANCH   1   2
ATOM      2  C   UNL     1       9.357   0.344  -1.264  1.00  0.00     0.303 C 
ATOM      3  O   UNL     1       9.445  -0.404  -0.259  1.00  0.00    -0.252 OA
BRANCH   2   4
ATOM      4  O   UNL     1      10.352   1.289  -1.459  1.00  0.00    -0.481 OA
ATOM      5  H   UNL     1      10.757   1.764  -0.648  1.00  0.00     0.296 HD
ENDBRANCH   2   4
ENDBRANCH   1   2
BRANCH   1   6
ATOM      6  C   UNL     1       7.122  -0.529  -1.539  1.00  0.00     0.047 C 
BRANCH   6   7
ATOM      7  C   UNL     1       6.343   0.274  -0.598  1.00  0.00    -0.047 A 
ATOM      8  C   UNL     1       6.128  -0.161   0.689  1.00  0.00     0.004 A 
ATOM      9  C   UNL     1       5.825   1.479  -1.013  1.00  0.00     0.004 A 
ATOM     10  C   UNL     1       5.376   0.659   1.534  1.00  0.00     0.000 A 
ATOM     11  C   UNL     1       5.082   2.288  -0.176  1.00  0.00     0.000 A 
ATOM     12  C   UNL     1       4.861   1.859   1.114  1.00  0.00     0.000 A 
ENDBRANCH   6   7
ENDBRANCH   1   6
TORSDOF 4
ENDMDL
MODEL 5
REMARK VINA RESULT:      -6.6      2.004      2.748
REMARK SMILES O=C(O)CCc1ccccc1
REMARK SMILES IDX 4 1 2 2 1 3 3 4 5 6 6 7 7 8 11 9 8 10 10 11 9 12
REMARK H PARENT 3 5
REMARK Flexibility Score: inf
ROOT
ATOM      1  C   UNL     1       7.905  -2.309   0.857  1.00  0.00     0.127 C 
ENDROOT
BRANCH   1   2
ATOM      2  C   UNL     1       8.758  -3.408   0.345  1.00  0.00     0.303 C 
ATOM      3  O   UNL     1       9.654  -3.922   1.059  1.00  0.00    -0.252 OA
BRANCH   2   4
ATOM      4  O   UNL     1       8.588  -3.899  -0.939  1.00  0.00    -0.481 OA
ATOM      5  H   UNL     1       7.883  -3.475  -1.548  1.00  0.00     0.296 HD
ENDBRANCH   2   4
ENDBRANCH   1   2
BRANCH   1   6
ATOM      6  C   UNL     1       7.497  -1.451  -0.302  1.00  0.00     0.047 C 
BRANCH   6   7
ATOM      7  C   UNL     1       6.623  -0.337   0.062  1.00  0.00    -0.047 A 
ATOM      8  C   UNL     1       6.351   0.666  -0.839  1.00  0.00     0.004 A 
ATOM      9  C   UNL     1       6.070  -0.301   1.321  1.00  0.00     0.004 A 
ATOM     10  C   UNL     1       5.507   1.699  -0.423  1.00  0.00     0.000 A 
ATOM     11  C   UNL     1       5.236   0.720   1.730  1.00  0.00     0.000 A 
ATOM     12  C   UNL     1       4.959   1.730   0.834  1.00  0.00     0.000 A 
ENDBRANCH   6   7
ENDBRANCH   1   6
TORSDOF 4
ENDMDL
