@<TRIPOS>MOLECULE
/home/cewinharhar/GITHUB/reincatalyze/data/processed/docking_pred/2023-Apr-26-1657_maxeplen10_maxtrainstep1000_exh32_gamma099_lrac9e-4_lrcr1e-3/86abca178b5bca4973d3a72a1df8ea50f2d75826_ligand_2.pdbqt
 12 12 0 0 0
SMALL
GASTEIGER

@<TRIPOS>ATOM
      1  C          7.9050   -2.3090    0.8570 C.3     1  UNL1        0.1270
      2  C          8.7580   -3.4080    0.3450 C.2     1  UNL1        0.3030
      3  O          9.6540   -3.9220    1.0590 O.2     1  UNL1       -0.2520
      4  O          8.5880   -3.8990   -0.9390 O.3     1  UNL1       -0.4810
      5  H          7.8830   -3.4750   -1.5480 H       1  UNL1        0.2960
      6  C          7.4970   -1.4510   -0.3020 C.3     1  UNL1        0.0470
      7  C          6.6230   -0.3370    0.0620 C.2     1  UNL1       -0.0470
      8  C          6.3510    0.6660   -0.8390 C.2     1  UNL1        0.0040
      9  C          6.0700   -0.3010    1.3210 C.2     1  UNL1        0.0040
     10  C          5.5070    1.6990   -0.4230 C.2     1  UNL1        0.0000
     11  C          5.2360    0.7200    1.7300 C.2     1  UNL1        0.0000
     12  C          4.9590    1.7300    0.8340 C.2     1  UNL1        0.0000
@<TRIPOS>BOND
     1     5     4    1
     2     4     2    1
     3     8    10    1
     4     8     7    2
     5    10    12    2
     6     6     7    1
     7     6     1    1
     8     7     9    1
     9     2     1    1
    10     2     3    2
    11    12    11    1
    12     9    11    2
