@<TRIPOS>MOLECULE
/home/cewinharhar/GITHUB/reincatalyze/data/processed/docking_pred/2023-Apr-26-1657_maxeplen10_maxtrainstep1000_exh32_gamma099_lrac9e-4_lrcr1e-3/86abca178b5bca4973d3a72a1df8ea50f2d75826_ligand_2.pdbqt
 12 12 0 0 0
SMALL
GASTEIGER

@<TRIPOS>ATOM
      1  C          8.4780   -0.6460   -2.1370 C.3     1  UNL1        0.1270
      2  C          8.4990   -1.9130   -2.9060 C.2     1  UNL1        0.3030
      3  O          9.5710   -2.5380   -3.0990 O.2     1  UNL1       -0.2520
      4  O          7.3330   -2.4420   -3.4340 O.3     1  UNL1       -0.4810
      5  H          6.4370   -2.2240   -2.9890 H       1  UNL1        0.2960
      6  C          7.0730   -0.1250   -2.1270 C.3     1  UNL1        0.0470
      7  C          6.5110    0.0440   -0.7880 C.2     1  UNL1       -0.0470
      8  C          6.6250   -0.9520    0.1540 C.2     1  UNL1        0.0040
      9  C          5.8650    1.2180   -0.4740 C.2     1  UNL1        0.0040
     10  C          6.0660   -0.7220    1.4120 C.2     1  UNL1        0.0000
     11  C          5.3130    1.4440    0.7710 C.2     1  UNL1        0.0000
     12  C          5.4220    0.4500    1.7200 C.2     1  UNL1        0.0000
@<TRIPOS>BOND
     1     4     5    1
     2     4     2    1
     3     3     2    2
     4     2     1    1
     5     1     6    1
     6     6     7    1
     7     7     9    2
     8     7     8    1
     9     9    11    1
    10     8    10    2
    11    11    12    2
    12    10    12    1
