@<TRIPOS>MOLECULE
/home/cewinharhar/GITHUB/reincatalyze/data/processed/docking_pred/2023-Apr-26-1657_maxeplen10_maxtrainstep1000_exh32_gamma099_lrac9e-4_lrcr1e-3/86abca178b5bca4973d3a72a1df8ea50f2d75826_ligand_2.pdbqt
 12 12 0 0 0
SMALL
GASTEIGER

@<TRIPOS>ATOM
      1  C          8.2270    0.2240   -2.2140 C.3     1  UNL1        0.1270
      2  C          9.3570    0.3440   -1.2640 C.2     1  UNL1        0.3030
      3  O          9.4450   -0.4040   -0.2590 O.2     1  UNL1       -0.2520
      4  O         10.3520    1.2890   -1.4590 O.3     1  UNL1       -0.4810
      5  H         10.7570    1.7640   -0.6480 H       1  UNL1        0.2960
      6  C          7.1220   -0.5290   -1.5390 C.3     1  UNL1        0.0470
      7  C          6.3430    0.2740   -0.5980 C.2     1  UNL1       -0.0470
      8  C          6.1280   -0.1610    0.6890 C.2     1  UNL1        0.0040
      9  C          5.8250    1.4790   -1.0130 C.2     1  UNL1        0.0040
     10  C          5.3760    0.6590    1.5340 C.2     1  UNL1        0.0000
     11  C          5.0820    2.2880   -0.1760 C.2     1  UNL1        0.0000
     12  C          4.8610    1.8590    1.1140 C.2     1  UNL1        0.0000
@<TRIPOS>BOND
     1     1     6    1
     2     1     2    1
     3     6     7    1
     4     4     2    1
     5     4     5    1
     6     2     3    2
     7     9     7    2
     8     9    11    1
     9     7     8    1
    10    11    12    2
    11     8    10    2
    12    12    10    1
