@<TRIPOS>MOLECULE
/home/cewinharhar/GITHUB/reincatalyze/data/processed/docking_pred/2023-Apr-26-1657_maxeplen10_maxtrainstep1000_exh32_gamma099_lrac9e-4_lrcr1e-3/87c24324279ed01ab1d4888e5c128f335f215516_ligand_2.pdbqt
 12 12 0 0 0
SMALL
GASTEIGER

@<TRIPOS>ATOM
      1  C          8.2620   -0.9180   -1.8720 C.3     1  UNL1        0.1270
      2  C          8.4030   -2.0180   -2.8550 C.2     1  UNL1        0.3030
      3  O          9.5260   -2.5120   -3.1230 O.2     1  UNL1       -0.2520
      4  O          7.2940   -2.5330   -3.5080 O.3     1  UNL1       -0.4810
      5  H          7.3960   -3.3750   -4.0800 H       1  UNL1        0.2960
      6  C          7.3420   -1.3760   -0.7820 C.3     1  UNL1        0.0470
      7  C          6.5380   -0.3050   -0.1940 C.2     1  UNL1       -0.0470
      8  C          6.2100    0.8120   -0.9270 C.2     1  UNL1        0.0040
      9  C          6.1060   -0.4270    1.1060 C.2     1  UNL1        0.0040
     10  C          5.4380    1.7940   -0.3030 C.2     1  UNL1        0.0000
     11  C          5.3430    0.5460    1.7230 C.2     1  UNL1        0.0000
     12  C          5.0120    1.6680    0.9950 C.2     1  UNL1        0.0000
@<TRIPOS>BOND
     1     5     4    1
     2     4     2    1
     3     3     2    2
     4     2     1    1
     5     1     6    1
     6     8    10    1
     7     8     7    2
     8     6     7    1
     9    10    12    2
    10     7     9    1
    11    12    11    1
    12     9    11    2
