@<TRIPOS>MOLECULE
/home/cewinharhar/GITHUB/reincatalyze/data/processed/docking_pred/2023-Apr-26-1657_maxeplen10_maxtrainstep1000_exh32_gamma099_lrac9e-4_lrcr1e-3/87c24324279ed01ab1d4888e5c128f335f215516_ligand_2.pdbqt
 12 12 0 0 0
SMALL
GASTEIGER

@<TRIPOS>ATOM
      1  C          5.0210    1.7960    0.7310 C.3     1  UNL1        0.1270
      2  C          4.4820    1.1080    1.9280 C.2     1  UNL1        0.3030
      3  O          5.1240    0.1890    2.4940 O.2     1  UNL1       -0.2520
      4  O          3.2510    1.4610    2.4560 O.3     1  UNL1       -0.4810
      5  H          3.0430    2.4490    2.6250 H       1  UNL1        0.2960
      6  C          6.5170    1.7330    0.7850 C.3     1  UNL1        0.0470
      7  C          7.1210    0.9930   -0.3220 C.2     1  UNL1       -0.0470
      8  C          6.3900    0.0710   -1.0330 C.2     1  UNL1        0.0040
      9  C          8.4360    1.2310   -0.6490 C.2     1  UNL1        0.0040
     10  C          7.0320   -0.5980   -2.0780 C.2     1  UNL1        0.0000
     11  C          9.0690    0.5690   -1.6820 C.2     1  UNL1        0.0000
     12  C          8.3440   -0.3580   -2.4000 C.2     1  UNL1        0.0000
@<TRIPOS>BOND
     1    12    10    2
     2    12    11    1
     3    10     8    1
     4    11     9    2
     5     8     7    2
     6     9     7    1
     7     7     6    1
     8     1     6    1
     9     1     2    1
    10     2     4    1
    11     2     3    2
    12     4     5    1
