@<TRIPOS>MOLECULE
/home/cewinharhar/GITHUB/reincatalyze/data/processed/docking_pred/2023-Apr-26-1657_maxeplen10_maxtrainstep1000_exh32_gamma099_lrac9e-4_lrcr1e-3/87c24324279ed01ab1d4888e5c128f335f215516_ligand_2.pdbqt
 12 12 0 0 0
SMALL
GASTEIGER

@<TRIPOS>ATOM
      1  C          8.4330   -0.6220   -2.1320 C.3     1  UNL1        0.1270
      2  C          8.3860   -1.8920   -2.8950 C.2     1  UNL1        0.3030
      3  O          7.2920   -2.4090   -3.2300 O.2     1  UNL1       -0.2520
      4  O          9.5520   -2.5440   -3.2590 O.3     1  UNL1       -0.4810
      5  H          9.5250   -3.2320   -4.0170 H       1  UNL1        0.2960
      6  C          7.0540   -0.0340   -2.1100 C.3     1  UNL1        0.0470
      7  C          6.4860    0.1000   -0.7700 C.2     1  UNL1       -0.0470
      8  C          6.6250   -0.9080    0.1570 C.2     1  UNL1        0.0040
      9  C          5.8100    1.2510   -0.4400 C.2     1  UNL1        0.0040
     10  C          6.0570   -0.7110    1.4180 C.2     1  UNL1        0.0000
     11  C          5.2490    1.4440    0.8080 C.2     1  UNL1        0.0000
     12  C          5.3820    0.4390    1.7410 C.2     1  UNL1        0.0000
@<TRIPOS>BOND
     1     5     4    1
     2     4     2    1
     3     3     2    2
     4     2     1    1
     5     1     6    1
     6     6     7    1
     7     7     9    2
     8     7     8    1
     9     9    11    1
    10     8    10    2
    11    11    12    2
    12    10    12    1
