@<TRIPOS>MOLECULE
/home/cewinharhar/GITHUB/reincatalyze/data/processed/docking_pred/2023-Apr-26-1657_maxeplen10_maxtrainstep1000_exh32_gamma099_lrac9e-4_lrcr1e-3/87c24324279ed01ab1d4888e5c128f335f215516_ligand_2.pdbqt
 12 12 0 0 0
SMALL
GASTEIGER

@<TRIPOS>ATOM
      1  C          8.4150   -0.6440   -2.0750 C.3     1  UNL1        0.1270
      2  C          8.3800   -1.8910   -2.8750 C.2     1  UNL1        0.3030
      3  O          7.2910   -2.4030   -3.2350 O.2     1  UNL1       -0.2520
      4  O          9.5520   -2.5280   -3.2480 O.3     1  UNL1       -0.4810
      5  H         10.2880   -1.9900   -3.7150 H       1  UNL1        0.2960
      6  C          7.0420   -0.0430   -2.0800 C.3     1  UNL1        0.0470
      7  C          6.4670    0.1360   -0.7480 C.2     1  UNL1       -0.0470
      8  C          5.8180    1.3020   -0.4120 C.2     1  UNL1        0.0040
      9  C          6.5780   -0.8790    0.1740 C.2     1  UNL1        0.0040
     10  C          5.2920    1.4030    0.8770 C.2     1  UNL1        0.0000
     11  C          6.0580   -0.7770    1.4480 C.2     1  UNL1        0.0000
     12  C          5.4070    0.3880    1.7930 C.2     1  UNL1        0.0000
@<TRIPOS>BOND
     1     5     4    1
     2     4     2    1
     3     3     2    2
     4     2     1    1
     5     6     1    1
     6     6     7    1
     7     7     8    2
     8     7     9    1
     9     8    10    1
    10     9    11    2
    11    10    12    2
    12    11    12    1
