MODEL 1
REMARK VINA RESULT:      -7.3      0.000      0.000
REMARK SMILES O=C(O)CCc1ccccc1
REMARK SMILES IDX 4 1 2 2 1 3 3 4 5 6 6 7 7 8 11 9 8 10 10 11 9 12
REMARK H PARENT 3 5
REMARK Flexibility Score: inf
ROOT
ATOM      1  C   UNL     1       8.433  -0.622  -2.132  1.00  0.00     0.127 C 
ENDROOT
BRANCH   1   2
ATOM      2  C   UNL     1       8.386  -1.892  -2.895  1.00  0.00     0.303 C 
ATOM      3  O   UNL     1       7.292  -2.409  -3.230  1.00  0.00    -0.252 OA
BRANCH   2   4
ATOM      4  O   UNL     1       9.552  -2.544  -3.259  1.00  0.00    -0.481 OA
ATOM      5  H   UNL     1       9.525  -3.232  -4.017  1.00  0.00     0.296 HD
ENDBRANCH   2   4
ENDBRANCH   1   2
BRANCH   1   6
ATOM      6  C   UNL     1       7.054  -0.034  -2.110  1.00  0.00     0.047 C 
BRANCH   6   7
ATOM      7  C   UNL     1       6.486   0.100  -0.770  1.00  0.00    -0.047 A 
ATOM      8  C   UNL     1       6.625  -0.908   0.157  1.00  0.00     0.004 A 
ATOM      9  C   UNL     1       5.810   1.251  -0.440  1.00  0.00     0.004 A 
ATOM     10  C   UNL     1       6.057  -0.711   1.418  1.00  0.00     0.000 A 
ATOM     11  C   UNL     1       5.249   1.444   0.808  1.00  0.00     0.000 A 
ATOM     12  C   UNL     1       5.382   0.439   1.741  1.00  0.00     0.000 A 
ENDBRANCH   6   7
ENDBRANCH   1   6
TORSDOF 4
ENDMDL
MODEL 2
REMARK VINA RESULT:      -7.3      0.056      1.437
REMARK SMILES O=C(O)CCc1ccccc1
REMARK SMILES IDX 4 1 2 2 1 3 3 4 5 6 6 7 7 8 11 9 8 10 10 11 9 12
REMARK H PARENT 3 5
REMARK Flexibility Score: inf
ROOT
ATOM      1  C   UNL     1       8.415  -0.644  -2.075  1.00  0.00     0.127 C 
ENDROOT
BRANCH   1   2
ATOM      2  C   UNL     1       8.380  -1.891  -2.875  1.00  0.00     0.303 C 
ATOM      3  O   UNL     1       7.291  -2.403  -3.235  1.00  0.00    -0.252 OA
BRANCH   2   4
ATOM      4  O   UNL     1       9.552  -2.528  -3.248  1.00  0.00    -0.481 OA
ATOM      5  H   UNL     1      10.288  -1.990  -3.715  1.00  0.00     0.296 HD
ENDBRANCH   2   4
ENDBRANCH   1   2
BRANCH   1   6
ATOM      6  C   UNL     1       7.042  -0.043  -2.080  1.00  0.00     0.047 C 
BRANCH   6   7
ATOM      7  C   UNL     1       6.467   0.136  -0.748  1.00  0.00    -0.047 A 
ATOM      8  C   UNL     1       5.818   1.302  -0.412  1.00  0.00     0.004 A 
ATOM      9  C   UNL     1       6.578  -0.879   0.174  1.00  0.00     0.004 A 
ATOM     10  C   UNL     1       5.292   1.403   0.877  1.00  0.00     0.000 A 
ATOM     11  C   UNL     1       6.058  -0.777   1.448  1.00  0.00     0.000 A 
ATOM     12  C   UNL     1       5.407   0.388   1.793  1.00  0.00     0.000 A 
ENDBRANCH   6   7
ENDBRANCH   1   6
TORSDOF 4
ENDMDL
MODEL 3
REMARK VINA RESULT:      -7.2      0.632      1.849
REMARK SMILES O=C(O)CCc1ccccc1
REMARK SMILES IDX 4 1 2 2 1 3 3 4 5 6 6 7 7 8 11 9 8 10 10 11 9 12
REMARK H PARENT 3 5
REMARK Flexibility Score: inf
ROOT
ATOM      1  C   UNL     1       8.262  -0.918  -1.872  1.00  0.00     0.127 C 
ENDROOT
BRANCH   1   2
ATOM      2  C   UNL     1       8.403  -2.018  -2.855  1.00  0.00     0.303 C 
ATOM      3  O   UNL     1       9.526  -2.512  -3.123  1.00  0.00    -0.252 OA
BRANCH   2   4
ATOM      4  O   UNL     1       7.294  -2.533  -3.508  1.00  0.00    -0.481 OA
ATOM      5  H   UNL     1       7.396  -3.375  -4.080  1.00  0.00     0.296 HD
ENDBRANCH   2   4
ENDBRANCH   1   2
BRANCH   1   6
ATOM      6  C   UNL     1       7.342  -1.376  -0.782  1.00  0.00     0.047 C 
BRANCH   6   7
ATOM      7  C   UNL     1       6.538  -0.305  -0.194  1.00  0.00    -0.047 A 
ATOM      8  C   UNL     1       6.210   0.812  -0.927  1.00  0.00     0.004 A 
ATOM      9  C   UNL     1       6.106  -0.427   1.106  1.00  0.00     0.004 A 
ATOM     10  C   UNL     1       5.438   1.794  -0.303  1.00  0.00     0.000 A 
ATOM     11  C   UNL     1       5.343   0.546   1.723  1.00  0.00     0.000 A 
ATOM     12  C   UNL     1       5.012   1.668   0.995  1.00  0.00     0.000 A 
ENDBRANCH   6   7
ENDBRANCH   1   6
TORSDOF 4
ENDMDL
MODEL 4
REMARK VINA RESULT:      -6.8      3.304      5.131
REMARK SMILES O=C(O)CCc1ccccc1
REMARK SMILES IDX 4 1 2 2 1 3 3 4 5 6 6 7 7 8 11 9 8 10 10 11 9 12
REMARK H PARENT 3 5
REMARK Flexibility Score: inf
ROOT
ATOM      1  C   UNL     1       5.021   1.796   0.731  1.00  0.00     0.127 C 
ENDROOT
BRANCH   1   2
ATOM      2  C   UNL     1       4.482   1.108   1.928  1.00  0.00     0.303 C 
ATOM      3  O   UNL     1       5.124   0.189   2.494  1.00  0.00    -0.252 OA
BRANCH   2   4
ATOM      4  O   UNL     1       3.251   1.461   2.456  1.00  0.00    -0.481 OA
ATOM      5  H   UNL     1       3.043   2.449   2.625  1.00  0.00     0.296 HD
ENDBRANCH   2   4
ENDBRANCH   1   2
BRANCH   1   6
ATOM      6  C   UNL     1       6.517   1.733   0.785  1.00  0.00     0.047 C 
BRANCH   6   7
ATOM      7  C   UNL     1       7.121   0.993  -0.322  1.00  0.00    -0.047 A 
ATOM      8  C   UNL     1       6.390   0.071  -1.033  1.00  0.00     0.004 A 
ATOM      9  C   UNL     1       8.436   1.231  -0.649  1.00  0.00     0.004 A 
ATOM     10  C   UNL     1       7.032  -0.598  -2.078  1.00  0.00     0.000 A 
ATOM     11  C   UNL     1       9.069   0.569  -1.682  1.00  0.00     0.000 A 
ATOM     12  C   UNL     1       8.344  -0.358  -2.400  1.00  0.00     0.000 A 
ENDBRANCH   6   7
ENDBRANCH   1   6
TORSDOF 4
ENDMDL
MODEL 5
REMARK VINA RESULT:      -6.7      1.927      2.228
REMARK SMILES O=C(O)CCc1ccccc1
REMARK SMILES IDX 4 1 2 2 1 3 3 4 5 6 6 7 7 8 11 9 8 10 10 11 9 12
REMARK H PARENT 3 5
REMARK Flexibility Score: inf
ROOT
ATOM      1  C   UNL     1       8.245   0.187  -2.176  1.00  0.00     0.127 C 
ENDROOT
BRANCH   1   2
ATOM      2  C   UNL     1       9.379   0.340  -1.234  1.00  0.00     0.303 C 
ATOM      3  O   UNL     1       9.480  -0.385  -0.214  1.00  0.00    -0.252 OA
BRANCH   2   4
ATOM      4  O   UNL     1      10.361   1.292  -1.455  1.00  0.00    -0.481 OA
ATOM      5  H   UNL     1      11.217   1.268  -0.894  1.00  0.00     0.296 HD
ENDBRANCH   2   4
ENDBRANCH   1   2
BRANCH   1   6
ATOM      6  C   UNL     1       7.157  -0.576  -1.483  1.00  0.00     0.047 C 
BRANCH   6   7
ATOM      7  C   UNL     1       6.366   0.230  -0.554  1.00  0.00    -0.047 A 
ATOM      8  C   UNL     1       6.142  -0.199   0.734  1.00  0.00     0.004 A 
ATOM      9  C   UNL     1       5.846   1.429  -0.981  1.00  0.00     0.004 A 
ATOM     10  C   UNL     1       5.379   0.622   1.567  1.00  0.00     0.000 A 
ATOM     11  C   UNL     1       5.090   2.240  -0.156  1.00  0.00     0.000 A 
ATOM     12  C   UNL     1       4.861   1.817   1.135  1.00  0.00     0.000 A 
ENDBRANCH   6   7
ENDBRANCH   1   6
TORSDOF 4
ENDMDL
