@<TRIPOS>MOLECULE
/home/cewinharhar/GITHUB/reincatalyze/data/processed/docking_pred/2023-Apr-26-1657_maxeplen10_maxtrainstep1000_exh32_gamma099_lrac9e-4_lrcr1e-3/87c24324279ed01ab1d4888e5c128f335f215516_ligand_2.pdbqt
 12 12 0 0 0
SMALL
GASTEIGER

@<TRIPOS>ATOM
      1  C          8.2450    0.1870   -2.1760 C.3     1  UNL1        0.1270
      2  C          9.3790    0.3400   -1.2340 C.2     1  UNL1        0.3030
      3  O          9.4800   -0.3850   -0.2140 O.2     1  UNL1       -0.2520
      4  O         10.3610    1.2920   -1.4550 O.3     1  UNL1       -0.4810
      5  H         11.2170    1.2680   -0.8940 H       1  UNL1        0.2960
      6  C          7.1570   -0.5760   -1.4830 C.3     1  UNL1        0.0470
      7  C          6.3660    0.2300   -0.5540 C.2     1  UNL1       -0.0470
      8  C          6.1420   -0.1990    0.7340 C.2     1  UNL1        0.0040
      9  C          5.8460    1.4290   -0.9810 C.2     1  UNL1        0.0040
     10  C          5.3790    0.6220    1.5670 C.2     1  UNL1        0.0000
     11  C          5.0900    2.2400   -0.1560 C.2     1  UNL1        0.0000
     12  C          4.8610    1.8170    1.1350 C.2     1  UNL1        0.0000
@<TRIPOS>BOND
     1     1     6    1
     2     1     2    1
     3     6     7    1
     4     4     2    1
     5     4     5    1
     6     2     3    2
     7     9     7    2
     8     9    11    1
     9     7     8    1
    10    11    12    2
    11     8    10    2
    12    12    10    1
