@<TRIPOS>MOLECULE
/home/cewinharhar/GITHUB/reincatalyze/data/processed/docking_pred/2023-Apr-26-1657_maxeplen10_maxtrainstep1000_exh32_gamma099_lrac9e-4_lrcr1e-3/88c4e0f8a026884e113c16f062f94e0c253125d7_ligand_2.pdbqt
 12 12 0 0 0
SMALL
GASTEIGER

@<TRIPOS>ATOM
      1  C          8.1740   -1.5460    1.0720 C.3     1  UNL1        0.1270
      2  C          8.4720   -2.7680    0.2890 C.2     1  UNL1        0.3030
      3  O          9.0970   -3.7310    0.7980 O.2     1  UNL1       -0.2520
      4  O          8.0700   -2.8800   -1.0320 O.3     1  UNL1       -0.4810
      5  H          7.2690   -3.4750   -1.2630 H       1  UNL1        0.2960
      6  C          6.6870   -1.4350    1.2230 C.3     1  UNL1        0.0470
      7  C          6.1360   -0.1650    0.7530 C.2     1  UNL1       -0.0470
      8  C          5.3860    0.6280    1.5890 C.2     1  UNL1        0.0040
      9  C          6.3760    0.2330   -0.5420 C.2     1  UNL1        0.0040
     10  C          4.8910    1.8280    1.0730 C.2     1  UNL1        0.0000
     11  C          5.8860    1.4190   -1.0500 C.2     1  UNL1        0.0000
     12  C          5.1330    2.2200   -0.2190 C.2     1  UNL1        0.0000
@<TRIPOS>BOND
     1     5     4    1
     2    11     9    1
     3    11    12    2
     4     4     2    1
     5     9     7    2
     6    12    10    1
     7     2     3    2
     8     2     1    1
     9     7     6    1
    10     7     8    1
    11     1     6    1
    12    10     8    2
