@<TRIPOS>MOLECULE
/home/cewinharhar/GITHUB/reincatalyze/data/processed/docking_pred/2023-Apr-26-1657_maxeplen10_maxtrainstep1000_exh32_gamma099_lrac9e-4_lrcr1e-3/88c4e0f8a026884e113c16f062f94e0c253125d7_ligand_2.pdbqt
 12 12 0 0 0
SMALL
GASTEIGER

@<TRIPOS>ATOM
      1  C          5.3180    2.8730    0.0750 C.3     1  UNL1        0.1270
      2  C          6.1790    3.7780    0.8730 C.2     1  UNL1        0.3030
      3  O          6.2570    3.6690    2.1220 O.2     1  UNL1       -0.2520
      4  O          6.9230    4.7730    0.2600 O.3     1  UNL1       -0.4810
      5  H          7.9380    4.6660    0.1870 H       1  UNL1        0.2960
      6  C          5.2280    1.5590    0.7890 C.3     1  UNL1        0.0470
      7  C          6.0370    0.4990    0.1890 C.2     1  UNL1       -0.0470
      8  C          6.4850   -0.5580    0.9450 C.2     1  UNL1        0.0040
      9  C          6.3470    0.5680   -1.1500 C.2     1  UNL1        0.0040
     10  C          7.2520   -1.5340    0.3060 C.2     1  UNL1        0.0000
     11  C          7.1060   -0.3970   -1.7810 C.2     1  UNL1        0.0000
     12  C          7.5590   -1.4600   -1.0300 C.2     1  UNL1        0.0000
@<TRIPOS>BOND
     1    11     9    1
     2    11    12    2
     3     9     7    2
     4    12    10    1
     5     1     6    1
     6     1     2    1
     7     5     4    1
     8     7     6    1
     9     7     8    1
    10     4     2    1
    11    10     8    2
    12     2     3    2
