@<TRIPOS>MOLECULE
/home/cewinharhar/GITHUB/reincatalyze/data/processed/docking_pred/2023-Apr-26-1657_maxeplen10_maxtrainstep1000_exh32_gamma099_lrac9e-4_lrcr1e-3/88c4e0f8a026884e113c16f062f94e0c253125d7_ligand_2.pdbqt
 12 12 0 0 0
SMALL
GASTEIGER

@<TRIPOS>ATOM
      1  C          8.3990   -0.6440   -2.0890 C.3     1  UNL1        0.1270
      2  C          8.3700   -1.8980   -2.8790 C.2     1  UNL1        0.3030
      3  O          7.2850   -2.4070   -3.2520 O.2     1  UNL1       -0.2520
      4  O          9.5450   -2.5440   -3.2280 O.3     1  UNL1       -0.4810
      5  H          9.7150   -3.4940   -2.8870 H       1  UNL1        0.2960
      6  C          7.0180   -0.0640   -2.0760 C.3     1  UNL1        0.0470
      7  C          6.4550    0.1030   -0.7380 C.2     1  UNL1       -0.0470
      8  C          5.8010    1.2620   -0.3890 C.2     1  UNL1        0.0040
      9  C          6.5850   -0.9160    0.1770 C.2     1  UNL1        0.0040
     10  C          5.2880    1.3520    0.9070 C.2     1  UNL1        0.0000
     11  C          6.0770   -0.8250    1.4580 C.2     1  UNL1        0.0000
     12  C          5.4210    0.3320    1.8150 C.2     1  UNL1        0.0000
@<TRIPOS>BOND
     1     3     2    2
     2     4     5    1
     3     4     2    1
     4     2     1    1
     5     1     6    1
     6     6     7    1
     7     7     8    2
     8     7     9    1
     9     8    10    1
    10     9    11    2
    11    10    12    2
    12    11    12    1
