@<TRIPOS>MOLECULE
/home/cewinharhar/GITHUB/reincatalyze/data/processed/docking_pred/2023-Apr-26-1657_maxeplen10_maxtrainstep1000_exh32_gamma099_lrac9e-4_lrcr1e-3/88c4e0f8a026884e113c16f062f94e0c253125d7_ligand_2.pdbqt
 12 12 0 0 0
SMALL
GASTEIGER

@<TRIPOS>ATOM
      1  C          8.5170   -0.6410   -2.1210 C.3     1  UNL1        0.1270
      2  C          8.5280   -1.9080   -2.8880 C.2     1  UNL1        0.3030
      3  O          9.5960   -2.5400   -3.0870 O.2     1  UNL1       -0.2520
      4  O          7.3570   -2.4330   -3.4100 O.3     1  UNL1       -0.4810
      5  H          6.5630   -2.6050   -2.7850 H       1  UNL1        0.2960
      6  C          7.1190   -0.1010   -2.1240 C.3     1  UNL1        0.0470
      7  C          6.5370    0.0490   -0.7910 C.2     1  UNL1       -0.0470
      8  C          6.6630   -0.9480    0.1480 C.2     1  UNL1        0.0040
      9  C          5.8600    1.2060   -0.4810 C.2     1  UNL1        0.0040
     10  C          6.0830   -0.7360    1.4000 C.2     1  UNL1        0.0000
     11  C          5.2880    1.4140    0.7580 C.2     1  UNL1        0.0000
     12  C          5.4080    0.4190    1.7040 C.2     1  UNL1        0.0000
@<TRIPOS>BOND
     1     4     2    1
     2     4     5    1
     3     3     2    2
     4     2     1    1
     5     6     1    1
     6     6     7    1
     7     7     9    2
     8     7     8    1
     9     9    11    1
    10     8    10    2
    11    11    12    2
    12    10    12    1
