MODEL 1
REMARK VINA RESULT:      -7.3      0.000      0.000
REMARK SMILES O=C(O)CCc1ccccc1
REMARK SMILES IDX 4 1 2 2 1 3 3 4 5 6 6 7 7 8 11 9 8 10 10 11 9 12
REMARK H PARENT 3 5
REMARK Flexibility Score: inf
ROOT
ATOM      1  C   UNL     1       8.517  -0.641  -2.121  1.00  0.00     0.127 C 
ENDROOT
BRANCH   1   2
ATOM      2  C   UNL     1       8.528  -1.908  -2.888  1.00  0.00     0.303 C 
ATOM      3  O   UNL     1       9.596  -2.540  -3.087  1.00  0.00    -0.252 OA
BRANCH   2   4
ATOM      4  O   UNL     1       7.357  -2.433  -3.410  1.00  0.00    -0.481 OA
ATOM      5  H   UNL     1       6.563  -2.605  -2.785  1.00  0.00     0.296 HD
ENDBRANCH   2   4
ENDBRANCH   1   2
BRANCH   1   6
ATOM      6  C   UNL     1       7.119  -0.101  -2.124  1.00  0.00     0.047 C 
BRANCH   6   7
ATOM      7  C   UNL     1       6.537   0.049  -0.791  1.00  0.00    -0.047 A 
ATOM      8  C   UNL     1       6.663  -0.948   0.148  1.00  0.00     0.004 A 
ATOM      9  C   UNL     1       5.860   1.206  -0.481  1.00  0.00     0.004 A 
ATOM     10  C   UNL     1       6.083  -0.736   1.400  1.00  0.00     0.000 A 
ATOM     11  C   UNL     1       5.288   1.414   0.758  1.00  0.00     0.000 A 
ATOM     12  C   UNL     1       5.408   0.419   1.704  1.00  0.00     0.000 A 
ENDBRANCH   6   7
ENDBRANCH   1   6
TORSDOF 4
ENDMDL
MODEL 2
REMARK VINA RESULT:      -7.3      0.135      1.733
REMARK SMILES O=C(O)CCc1ccccc1
REMARK SMILES IDX 4 1 2 2 1 3 3 4 5 6 6 7 7 8 11 9 8 10 10 11 9 12
REMARK H PARENT 3 5
REMARK Flexibility Score: inf
ROOT
ATOM      1  C   UNL     1       8.399  -0.644  -2.089  1.00  0.00     0.127 C 
ENDROOT
BRANCH   1   2
ATOM      2  C   UNL     1       8.370  -1.898  -2.879  1.00  0.00     0.303 C 
ATOM      3  O   UNL     1       7.285  -2.407  -3.252  1.00  0.00    -0.252 OA
BRANCH   2   4
ATOM      4  O   UNL     1       9.545  -2.544  -3.228  1.00  0.00    -0.481 OA
ATOM      5  H   UNL     1       9.715  -3.494  -2.887  1.00  0.00     0.296 HD
ENDBRANCH   2   4
ENDBRANCH   1   2
BRANCH   1   6
ATOM      6  C   UNL     1       7.018  -0.064  -2.076  1.00  0.00     0.047 C 
BRANCH   6   7
ATOM      7  C   UNL     1       6.455   0.103  -0.738  1.00  0.00    -0.047 A 
ATOM      8  C   UNL     1       5.801   1.262  -0.389  1.00  0.00     0.004 A 
ATOM      9  C   UNL     1       6.585  -0.916   0.177  1.00  0.00     0.004 A 
ATOM     10  C   UNL     1       5.288   1.352   0.907  1.00  0.00     0.000 A 
ATOM     11  C   UNL     1       6.077  -0.825   1.458  1.00  0.00     0.000 A 
ATOM     12  C   UNL     1       5.421   0.332   1.815  1.00  0.00     0.000 A 
ENDBRANCH   6   7
ENDBRANCH   1   6
TORSDOF 4
ENDMDL
MODEL 3
REMARK VINA RESULT:      -6.7      3.373      5.074
REMARK SMILES O=C(O)CCc1ccccc1
REMARK SMILES IDX 4 1 2 2 1 3 3 4 5 6 6 7 7 8 11 9 8 10 10 11 9 12
REMARK H PARENT 3 5
REMARK Flexibility Score: inf
ROOT
ATOM      1  C   UNL     1       4.995   1.819   0.717  1.00  0.00     0.127 C 
ENDROOT
BRANCH   1   2
ATOM      2  C   UNL     1       4.488   1.118   1.920  1.00  0.00     0.303 C 
ATOM      3  O   UNL     1       5.156   0.211   2.475  1.00  0.00    -0.252 OA
BRANCH   2   4
ATOM      4  O   UNL     1       3.257   1.445   2.466  1.00  0.00    -0.481 OA
ATOM      5  H   UNL     1       2.728   0.730   2.973  1.00  0.00     0.296 HD
ENDBRANCH   2   4
ENDBRANCH   1   2
BRANCH   1   6
ATOM      6  C   UNL     1       6.493   1.799   0.758  1.00  0.00     0.047 C 
BRANCH   6   7
ATOM      7  C   UNL     1       7.107   1.047  -0.335  1.00  0.00    -0.047 A 
ATOM      8  C   UNL     1       6.363   0.171  -1.092  1.00  0.00     0.004 A 
ATOM      9  C   UNL     1       8.444   1.226  -0.605  1.00  0.00     0.004 A 
ATOM     10  C   UNL     1       7.015  -0.512  -2.120  1.00  0.00     0.000 A 
ATOM     11  C   UNL     1       9.087   0.549  -1.622  1.00  0.00     0.000 A 
ATOM     12  C   UNL     1       8.349  -0.331  -2.384  1.00  0.00     0.000 A 
ENDBRANCH   6   7
ENDBRANCH   1   6
TORSDOF 4
ENDMDL
MODEL 4
REMARK VINA RESULT:      -6.6      3.682      4.971
REMARK SMILES O=C(O)CCc1ccccc1
REMARK SMILES IDX 4 1 2 2 1 3 3 4 5 6 6 7 7 8 11 9 8 10 10 11 9 12
REMARK H PARENT 3 5
REMARK Flexibility Score: inf
ROOT
ATOM      1  C   UNL     1       5.318   2.873   0.075  1.00  0.00     0.127 C 
ENDROOT
BRANCH   1   2
ATOM      2  C   UNL     1       6.179   3.778   0.873  1.00  0.00     0.303 C 
ATOM      3  O   UNL     1       6.257   3.669   2.122  1.00  0.00    -0.252 OA
BRANCH   2   4
ATOM      4  O   UNL     1       6.923   4.773   0.260  1.00  0.00    -0.481 OA
ATOM      5  H   UNL     1       7.938   4.666   0.187  1.00  0.00     0.296 HD
ENDBRANCH   2   4
ENDBRANCH   1   2
BRANCH   1   6
ATOM      6  C   UNL     1       5.228   1.559   0.789  1.00  0.00     0.047 C 
BRANCH   6   7
ATOM      7  C   UNL     1       6.037   0.499   0.189  1.00  0.00    -0.047 A 
ATOM      8  C   UNL     1       6.485  -0.558   0.945  1.00  0.00     0.004 A 
ATOM      9  C   UNL     1       6.347   0.568  -1.150  1.00  0.00     0.004 A 
ATOM     10  C   UNL     1       7.252  -1.534   0.306  1.00  0.00     0.000 A 
ATOM     11  C   UNL     1       7.106  -0.397  -1.781  1.00  0.00     0.000 A 
ATOM     12  C   UNL     1       7.559  -1.460  -1.030  1.00  0.00     0.000 A 
ENDBRANCH   6   7
ENDBRANCH   1   6
TORSDOF 4
ENDMDL
MODEL 5
REMARK VINA RESULT:      -6.6      1.855      2.813
REMARK SMILES O=C(O)CCc1ccccc1
REMARK SMILES IDX 4 1 2 2 1 3 3 4 5 6 6 7 7 8 11 9 8 10 10 11 9 12
REMARK H PARENT 3 5
REMARK Flexibility Score: inf
ROOT
ATOM      1  C   UNL     1       8.174  -1.546   1.072  1.00  0.00     0.127 C 
ENDROOT
BRANCH   1   2
ATOM      2  C   UNL     1       8.472  -2.768   0.289  1.00  0.00     0.303 C 
ATOM      3  O   UNL     1       9.097  -3.731   0.798  1.00  0.00    -0.252 OA
BRANCH   2   4
ATOM      4  O   UNL     1       8.070  -2.880  -1.032  1.00  0.00    -0.481 OA
ATOM      5  H   UNL     1       7.269  -3.475  -1.263  1.00  0.00     0.296 HD
ENDBRANCH   2   4
ENDBRANCH   1   2
BRANCH   1   6
ATOM      6  C   UNL     1       6.687  -1.435   1.223  1.00  0.00     0.047 C 
BRANCH   6   7
ATOM      7  C   UNL     1       6.136  -0.165   0.753  1.00  0.00    -0.047 A 
ATOM      8  C   UNL     1       5.386   0.628   1.589  1.00  0.00     0.004 A 
ATOM      9  C   UNL     1       6.376   0.233  -0.542  1.00  0.00     0.004 A 
ATOM     10  C   UNL     1       4.891   1.828   1.073  1.00  0.00     0.000 A 
ATOM     11  C   UNL     1       5.886   1.419  -1.050  1.00  0.00     0.000 A 
ATOM     12  C   UNL     1       5.133   2.220  -0.219  1.00  0.00     0.000 A 
ENDBRANCH   6   7
ENDBRANCH   1   6
TORSDOF 4
ENDMDL
