@<TRIPOS>MOLECULE
/home/cewinharhar/GITHUB/reincatalyze/data/processed/docking_pred/2023-Apr-26-1657_maxeplen10_maxtrainstep1000_exh32_gamma099_lrac9e-4_lrcr1e-3/88c4e0f8a026884e113c16f062f94e0c253125d7_ligand_2.pdbqt
 12 12 0 0 0
SMALL
GASTEIGER

@<TRIPOS>ATOM
      1  C          4.9950    1.8190    0.7170 C.3     1  UNL1        0.1270
      2  C          4.4880    1.1180    1.9200 C.2     1  UNL1        0.3030
      3  O          5.1560    0.2110    2.4750 O.2     1  UNL1       -0.2520
      4  O          3.2570    1.4450    2.4660 O.3     1  UNL1       -0.4810
      5  H          2.7280    0.7300    2.9730 H       1  UNL1        0.2960
      6  C          6.4930    1.7990    0.7580 C.3     1  UNL1        0.0470
      7  C          7.1070    1.0470   -0.3350 C.2     1  UNL1       -0.0470
      8  C          6.3630    0.1710   -1.0920 C.2     1  UNL1        0.0040
      9  C          8.4440    1.2260   -0.6050 C.2     1  UNL1        0.0040
     10  C          7.0150   -0.5120   -2.1200 C.2     1  UNL1        0.0000
     11  C          9.0870    0.5490   -1.6220 C.2     1  UNL1        0.0000
     12  C          8.3490   -0.3310   -2.3840 C.2     1  UNL1        0.0000
@<TRIPOS>BOND
     1    12    10    2
     2    12    11    1
     3    10     8    1
     4    11     9    2
     5     8     7    2
     6     9     7    1
     7     7     6    1
     8     1     6    1
     9     1     2    1
    10     2     4    1
    11     2     3    2
    12     4     5    1
