@<TRIPOS>MOLECULE
/home/cewinharhar/GITHUB/reincatalyze/data/processed/docking_pred/2023-Apr-26-1657_maxeplen10_maxtrainstep1000_exh32_gamma099_lrac9e-4_lrcr1e-3/895ea28dab147140afd805a2e235fc395d2e1c3a_ligand_2.pdbqt
 12 12 0 0 0
SMALL
GASTEIGER

@<TRIPOS>ATOM
      1  C          5.0170    1.8040    0.7170 C.3     1  UNL1        0.1270
      2  C          4.4860    1.1150    1.9180 C.2     1  UNL1        0.3030
      3  O          5.1330    0.2000    2.4830 O.2     1  UNL1       -0.2520
      4  O          3.2560    1.4650    2.4510 O.3     1  UNL1       -0.4810
      5  H          3.1980    1.7520    3.4320 H       1  UNL1        0.2960
      6  C          6.5140    1.7540    0.7700 C.3     1  UNL1        0.0470
      7  C          7.1230    1.0050   -0.3280 C.2     1  UNL1       -0.0470
      8  C          6.3900    0.0870   -1.0440 C.2     1  UNL1        0.0040
      9  C          8.4430    1.2290   -0.6420 C.2     1  UNL1        0.0040
     10  C          7.0370   -0.5910   -2.0800 C.2     1  UNL1        0.0000
     11  C          9.0800    0.5580   -1.6660 C.2     1  UNL1        0.0000
     12  C          8.3540   -0.3640   -2.3890 C.2     1  UNL1        0.0000
@<TRIPOS>BOND
     1    12    10    2
     2    12    11    1
     3    10     8    1
     4    11     9    2
     5     8     7    2
     6     9     7    1
     7     7     6    1
     8     1     6    1
     9     1     2    1
    10     2     4    1
    11     2     3    2
    12     4     5    1
