@<TRIPOS>MOLECULE
/home/cewinharhar/GITHUB/reincatalyze/data/processed/docking_pred/2023-Apr-26-1657_maxeplen10_maxtrainstep1000_exh32_gamma099_lrac9e-4_lrcr1e-3/895ea28dab147140afd805a2e235fc395d2e1c3a_ligand_2.pdbqt
 12 12 0 0 0
SMALL
GASTEIGER

@<TRIPOS>ATOM
      1  C          8.4280   -0.5790   -2.1950 C.3     1  UNL1        0.1270
      2  C          8.4750   -1.8740   -2.9140 C.2     1  UNL1        0.3030
      3  O          9.5580   -2.4870   -3.0810 O.2     1  UNL1       -0.2520
      4  O          7.3200   -2.4450   -3.4240 O.3     1  UNL1       -0.4810
      5  H          7.2150   -2.5440   -4.4370 H       1  UNL1        0.2960
      6  C          7.0000   -0.1290   -2.1290 C.3     1  UNL1        0.0470
      7  C          6.4830    0.0110   -0.7690 C.2     1  UNL1       -0.0470
      8  C          6.6080   -1.0140    0.1400 C.2     1  UNL1        0.0040
      9  C          5.8670    1.1850   -0.4020 C.2     1  UNL1        0.0040
     10  C          6.0920   -0.8110    1.4220 C.2     1  UNL1        0.0000
     11  C          5.3560    1.3840    0.8650 C.2     1  UNL1        0.0000
     12  C          5.4770    0.3620    1.7810 C.2     1  UNL1        0.0000
@<TRIPOS>BOND
     1     5     4    1
     2     4     2    1
     3     3     2    2
     4     2     1    1
     5     1     6    1
     6     6     7    1
     7     7     9    2
     8     7     8    1
     9     9    11    1
    10     8    10    2
    11    11    12    2
    12    10    12    1
