@<TRIPOS>MOLECULE
/home/cewinharhar/GITHUB/reincatalyze/data/processed/docking_pred/2023-Apr-26-1657_maxeplen10_maxtrainstep1000_exh32_gamma099_lrac9e-4_lrcr1e-3/895ea28dab147140afd805a2e235fc395d2e1c3a_ligand_2.pdbqt
 12 12 0 0 0
SMALL
GASTEIGER

@<TRIPOS>ATOM
      1  C          8.4480   -0.6370   -2.1310 C.3     1  UNL1        0.1270
      2  C          8.4790   -1.9010   -2.9030 C.2     1  UNL1        0.3030
      3  O          9.5530   -2.5270   -3.0830 O.2     1  UNL1       -0.2520
      4  O          7.3210   -2.4290   -3.4490 O.3     1  UNL1       -0.4810
      5  H          7.2170   -3.4450   -3.5170 H       1  UNL1        0.2960
      6  C          7.0390   -0.1270   -2.1210 C.3     1  UNL1        0.0470
      7  C          6.4870    0.0690   -0.7810 C.2     1  UNL1       -0.0470
      8  C          5.8400    1.2370   -0.4510 C.2     1  UNL1        0.0040
      9  C          6.6190   -0.9330    0.1520 C.2     1  UNL1        0.0040
     10  C          5.3370    1.3550    0.8470 C.2     1  UNL1        0.0000
     11  C          6.1220   -0.8140    1.4350 C.2     1  UNL1        0.0000
     12  C          5.4730    0.3530    1.7740 C.2     1  UNL1        0.0000
@<TRIPOS>BOND
     1     5     4    1
     2     4     2    1
     3     3     2    2
     4     2     1    1
     5     1     6    1
     6     6     7    1
     7     7     8    2
     8     7     9    1
     9     8    10    1
    10     9    11    2
    11    10    12    2
    12    11    12    1
