@<TRIPOS>MOLECULE
/home/cewinharhar/GITHUB/reincatalyze/data/processed/docking_pred/2023-Apr-26-1657_maxeplen10_maxtrainstep1000_exh32_gamma099_lrac9e-4_lrcr1e-3/895ea28dab147140afd805a2e235fc395d2e1c3a_ligand_2.pdbqt
 12 12 0 0 0
SMALL
GASTEIGER

@<TRIPOS>ATOM
      1  C          8.3230    0.4400   -2.0580 C.3     1  UNL1        0.1270
      2  C          9.4720    0.4300   -1.1210 C.2     1  UNL1        0.3030
      3  O          9.5160   -0.3700   -0.1540 O.2     1  UNL1       -0.2520
      4  O         10.5310    1.3070   -1.2880 O.3     1  UNL1       -0.4810
      5  H         11.4850    0.9380   -1.3330 H       1  UNL1        0.2960
      6  C          7.2450   -0.4310   -1.4890 C.3     1  UNL1        0.0470
      7  C          6.4190    0.2280   -0.4790 C.2     1  UNL1       -0.0470
      8  C          6.2330   -0.3420    0.7590 C.2     1  UNL1        0.0040
      9  C          5.8270    1.4330   -0.7780 C.2     1  UNL1        0.0040
     10  C          5.4330    0.3440    1.6760 C.2     1  UNL1        0.0000
     11  C          5.0360    2.1100    0.1290 C.2     1  UNL1        0.0000
     12  C          4.8440    1.5450    1.3720 C.2     1  UNL1        0.0000
@<TRIPOS>BOND
     1     1     6    1
     2     1     2    1
     3     6     7    1
     4     5     4    1
     5     4     2    1
     6     2     3    2
     7     9     7    2
     8     9    11    1
     9     7     8    1
    10    11    12    2
    11     8    10    2
    12    12    10    1
