MODEL 1
REMARK VINA RESULT:      -7.3      0.000      0.000
REMARK SMILES O=C(O)CCc1ccccc1
REMARK SMILES IDX 4 1 2 2 1 3 3 4 5 6 6 7 7 8 11 9 8 10 10 11 9 12
REMARK H PARENT 3 5
REMARK Flexibility Score: inf
ROOT
ATOM      1  C   UNL     1       8.448  -0.637  -2.131  1.00  0.00     0.127 C 
ENDROOT
BRANCH   1   2
ATOM      2  C   UNL     1       8.479  -1.901  -2.903  1.00  0.00     0.303 C 
ATOM      3  O   UNL     1       9.553  -2.527  -3.083  1.00  0.00    -0.252 OA
BRANCH   2   4
ATOM      4  O   UNL     1       7.321  -2.429  -3.449  1.00  0.00    -0.481 OA
ATOM      5  H   UNL     1       7.217  -3.445  -3.517  1.00  0.00     0.296 HD
ENDBRANCH   2   4
ENDBRANCH   1   2
BRANCH   1   6
ATOM      6  C   UNL     1       7.039  -0.127  -2.121  1.00  0.00     0.047 C 
BRANCH   6   7
ATOM      7  C   UNL     1       6.487   0.069  -0.781  1.00  0.00    -0.047 A 
ATOM      8  C   UNL     1       5.840   1.237  -0.451  1.00  0.00     0.004 A 
ATOM      9  C   UNL     1       6.619  -0.933   0.152  1.00  0.00     0.004 A 
ATOM     10  C   UNL     1       5.337   1.355   0.847  1.00  0.00     0.000 A 
ATOM     11  C   UNL     1       6.122  -0.814   1.435  1.00  0.00     0.000 A 
ATOM     12  C   UNL     1       5.473   0.353   1.774  1.00  0.00     0.000 A 
ENDBRANCH   6   7
ENDBRANCH   1   6
TORSDOF 4
ENDMDL
MODEL 2
REMARK VINA RESULT:      -7.3      0.054      1.437
REMARK SMILES O=C(O)CCc1ccccc1
REMARK SMILES IDX 4 1 2 2 1 3 3 4 5 6 6 7 7 8 11 9 8 10 10 11 9 12
REMARK H PARENT 3 5
REMARK Flexibility Score: inf
ROOT
ATOM      1  C   UNL     1       8.428  -0.579  -2.195  1.00  0.00     0.127 C 
ENDROOT
BRANCH   1   2
ATOM      2  C   UNL     1       8.475  -1.874  -2.914  1.00  0.00     0.303 C 
ATOM      3  O   UNL     1       9.558  -2.487  -3.081  1.00  0.00    -0.252 OA
BRANCH   2   4
ATOM      4  O   UNL     1       7.320  -2.445  -3.424  1.00  0.00    -0.481 OA
ATOM      5  H   UNL     1       7.215  -2.544  -4.437  1.00  0.00     0.296 HD
ENDBRANCH   2   4
ENDBRANCH   1   2
BRANCH   1   6
ATOM      6  C   UNL     1       7.000  -0.129  -2.129  1.00  0.00     0.047 C 
BRANCH   6   7
ATOM      7  C   UNL     1       6.483   0.011  -0.769  1.00  0.00    -0.047 A 
ATOM      8  C   UNL     1       6.608  -1.014   0.140  1.00  0.00     0.004 A 
ATOM      9  C   UNL     1       5.867   1.185  -0.402  1.00  0.00     0.004 A 
ATOM     10  C   UNL     1       6.092  -0.811   1.422  1.00  0.00     0.000 A 
ATOM     11  C   UNL     1       5.356   1.384   0.865  1.00  0.00     0.000 A 
ATOM     12  C   UNL     1       5.477   0.362   1.781  1.00  0.00     0.000 A 
ENDBRANCH   6   7
ENDBRANCH   1   6
TORSDOF 4
ENDMDL
MODEL 3
REMARK VINA RESULT:      -7.1      0.587      1.603
REMARK SMILES O=C(O)CCc1ccccc1
REMARK SMILES IDX 4 1 2 2 1 3 3 4 5 6 6 7 7 8 11 9 8 10 10 11 9 12
REMARK H PARENT 3 5
REMARK Flexibility Score: inf
ROOT
ATOM      1  C   UNL     1       8.155  -0.838  -2.001  1.00  0.00     0.127 C 
ENDROOT
BRANCH   1   2
ATOM      2  C   UNL     1       8.302  -2.024  -2.876  1.00  0.00     0.303 C 
ATOM      3  O   UNL     1       9.407  -2.606  -3.005  1.00  0.00    -0.252 OA
BRANCH   2   4
ATOM      4  O   UNL     1       7.218  -2.526  -3.580  1.00  0.00    -0.481 OA
ATOM      5  H   UNL     1       7.364  -3.288  -4.248  1.00  0.00     0.296 HD
ENDBRANCH   2   4
ENDBRANCH   1   2
BRANCH   1   6
ATOM      6  C   UNL     1       7.601  -1.290  -0.684  1.00  0.00     0.047 C 
BRANCH   6   7
ATOM      7  C   UNL     1       6.686  -0.333  -0.064  1.00  0.00    -0.047 A 
ATOM      8  C   UNL     1       6.221  -0.533   1.215  1.00  0.00     0.004 A 
ATOM      9  C   UNL     1       6.294   0.777  -0.774  1.00  0.00     0.004 A 
ATOM     10  C   UNL     1       5.350   0.422   1.745  1.00  0.00     0.000 A 
ATOM     11  C   UNL     1       5.433   1.721  -0.249  1.00  0.00     0.000 A 
ATOM     12  C   UNL     1       4.961   1.528   1.031  1.00  0.00     0.000 A 
ENDBRANCH   6   7
ENDBRANCH   1   6
TORSDOF 4
ENDMDL
MODEL 4
REMARK VINA RESULT:      -6.7      3.384      5.085
REMARK SMILES O=C(O)CCc1ccccc1
REMARK SMILES IDX 4 1 2 2 1 3 3 4 5 6 6 7 7 8 11 9 8 10 10 11 9 12
REMARK H PARENT 3 5
REMARK Flexibility Score: inf
ROOT
ATOM      1  C   UNL     1       5.017   1.804   0.717  1.00  0.00     0.127 C 
ENDROOT
BRANCH   1   2
ATOM      2  C   UNL     1       4.486   1.115   1.918  1.00  0.00     0.303 C 
ATOM      3  O   UNL     1       5.133   0.200   2.483  1.00  0.00    -0.252 OA
BRANCH   2   4
ATOM      4  O   UNL     1       3.256   1.465   2.451  1.00  0.00    -0.481 OA
ATOM      5  H   UNL     1       3.198   1.752   3.432  1.00  0.00     0.296 HD
ENDBRANCH   2   4
ENDBRANCH   1   2
BRANCH   1   6
ATOM      6  C   UNL     1       6.514   1.754   0.770  1.00  0.00     0.047 C 
BRANCH   6   7
ATOM      7  C   UNL     1       7.123   1.005  -0.328  1.00  0.00    -0.047 A 
ATOM      8  C   UNL     1       6.390   0.087  -1.044  1.00  0.00     0.004 A 
ATOM      9  C   UNL     1       8.443   1.229  -0.642  1.00  0.00     0.004 A 
ATOM     10  C   UNL     1       7.037  -0.591  -2.080  1.00  0.00     0.000 A 
ATOM     11  C   UNL     1       9.080   0.558  -1.666  1.00  0.00     0.000 A 
ATOM     12  C   UNL     1       8.354  -0.364  -2.389  1.00  0.00     0.000 A 
ENDBRANCH   6   7
ENDBRANCH   1   6
TORSDOF 4
ENDMDL
MODEL 5
REMARK VINA RESULT:      -6.6      1.976      2.696
REMARK SMILES O=C(O)CCc1ccccc1
REMARK SMILES IDX 4 1 2 2 1 3 3 4 5 6 6 7 7 8 11 9 8 10 10 11 9 12
REMARK H PARENT 3 5
REMARK Flexibility Score: inf
ROOT
ATOM      1  C   UNL     1       8.323   0.440  -2.058  1.00  0.00     0.127 C 
ENDROOT
BRANCH   1   2
ATOM      2  C   UNL     1       9.472   0.430  -1.121  1.00  0.00     0.303 C 
ATOM      3  O   UNL     1       9.516  -0.370  -0.154  1.00  0.00    -0.252 OA
BRANCH   2   4
ATOM      4  O   UNL     1      10.531   1.307  -1.288  1.00  0.00    -0.481 OA
ATOM      5  H   UNL     1      11.485   0.938  -1.333  1.00  0.00     0.296 HD
ENDBRANCH   2   4
ENDBRANCH   1   2
BRANCH   1   6
ATOM      6  C   UNL     1       7.245  -0.431  -1.489  1.00  0.00     0.047 C 
BRANCH   6   7
ATOM      7  C   UNL     1       6.419   0.228  -0.479  1.00  0.00    -0.047 A 
ATOM      8  C   UNL     1       6.233  -0.342   0.759  1.00  0.00     0.004 A 
ATOM      9  C   UNL     1       5.827   1.433  -0.778  1.00  0.00     0.004 A 
ATOM     10  C   UNL     1       5.433   0.344   1.676  1.00  0.00     0.000 A 
ATOM     11  C   UNL     1       5.036   2.110   0.129  1.00  0.00     0.000 A 
ATOM     12  C   UNL     1       4.844   1.545   1.372  1.00  0.00     0.000 A 
ENDBRANCH   6   7
ENDBRANCH   1   6
TORSDOF 4
ENDMDL
