@<TRIPOS>MOLECULE
/home/cewinharhar/GITHUB/reincatalyze/data/processed/docking_pred/2023-Apr-26-1657_maxeplen10_maxtrainstep1000_exh32_gamma099_lrac9e-4_lrcr1e-3/895ea28dab147140afd805a2e235fc395d2e1c3a_ligand_2.pdbqt
 12 12 0 0 0
SMALL
GASTEIGER

@<TRIPOS>ATOM
      1  C          8.1550   -0.8380   -2.0010 C.3     1  UNL1        0.1270
      2  C          8.3020   -2.0240   -2.8760 C.2     1  UNL1        0.3030
      3  O          9.4070   -2.6060   -3.0050 O.2     1  UNL1       -0.2520
      4  O          7.2180   -2.5260   -3.5800 O.3     1  UNL1       -0.4810
      5  H          7.3640   -3.2880   -4.2480 H       1  UNL1        0.2960
      6  C          7.6010   -1.2900   -0.6840 C.3     1  UNL1        0.0470
      7  C          6.6860   -0.3330   -0.0640 C.2     1  UNL1       -0.0470
      8  C          6.2210   -0.5330    1.2150 C.2     1  UNL1        0.0040
      9  C          6.2940    0.7770   -0.7740 C.2     1  UNL1        0.0040
     10  C          5.3500    0.4220    1.7450 C.2     1  UNL1        0.0000
     11  C          5.4330    1.7210   -0.2490 C.2     1  UNL1        0.0000
     12  C          4.9610    1.5280    1.0310 C.2     1  UNL1        0.0000
@<TRIPOS>BOND
     1     5     4    1
     2     4     2    1
     3     3     2    2
     4     2     1    1
     5     1     6    1
     6     9    11    1
     7     9     7    2
     8     6     7    1
     9    11    12    2
    10     7     8    1
    11    12    10    1
    12     8    10    2
