@<TRIPOS>MOLECULE
/home/cewinharhar/GITHUB/reincatalyze/data/processed/docking_pred/2023-Apr-26-1657_maxeplen10_maxtrainstep1000_exh32_gamma099_lrac9e-4_lrcr1e-3/8a11bcf53d23875e79cb17a52aa7b3de0dc85e7d_ligand_2.pdbqt
 12 12 0 0 0
SMALL
GASTEIGER

@<TRIPOS>ATOM
      1  C          4.9860    1.7770    0.6850 C.3     1  UNL1        0.1270
      2  C          4.4830    1.1150    1.9120 C.2     1  UNL1        0.3030
      3  O          5.1530    0.2240    2.4910 O.2     1  UNL1       -0.2520
      4  O          3.2570    1.4620    2.4540 O.3     1  UNL1       -0.4810
      5  H          2.4340    1.5050    1.8460 H       1  UNL1        0.2960
      6  C          6.4840    1.7860    0.7360 C.3     1  UNL1        0.0470
      7  C          7.1200    1.0350   -0.3450 C.2     1  UNL1       -0.0470
      8  C          6.3990    0.1340   -1.0940 C.2     1  UNL1        0.0040
      9  C          8.4540    1.2380   -0.6100 C.2     1  UNL1        0.0040
     10  C          7.0710   -0.5480   -2.1110 C.2     1  UNL1        0.0000
     11  C          9.1170    0.5630   -1.6150 C.2     1  UNL1        0.0000
     12  C          8.4020   -0.3420   -2.3700 C.2     1  UNL1        0.0000
@<TRIPOS>BOND
     1    12    10    2
     2    12    11    1
     3    10     8    1
     4    11     9    2
     5     8     7    2
     6     9     7    1
     7     7     6    1
     8     1     6    1
     9     1     2    1
    10     5     4    1
    11     2     4    1
    12     2     3    2
