MODEL 1
REMARK VINA RESULT:      -7.3      0.000      0.000
REMARK SMILES O=C(O)CCc1ccccc1
REMARK SMILES IDX 4 1 2 2 1 3 3 4 5 6 6 7 7 8 11 9 8 10 10 11 9 12
REMARK H PARENT 3 5
REMARK Flexibility Score: inf
ROOT
ATOM      1  C   UNL     1       8.439  -0.587  -2.198  1.00  0.00     0.127 C 
ENDROOT
BRANCH   1   2
ATOM      2  C   UNL     1       8.489  -1.881  -2.920  1.00  0.00     0.303 C 
ATOM      3  O   UNL     1       9.574  -2.490  -3.089  1.00  0.00    -0.252 OA
BRANCH   2   4
ATOM      4  O   UNL     1       7.336  -2.454  -3.430  1.00  0.00    -0.481 OA
ATOM      5  H   UNL     1       7.022  -2.197  -4.370  1.00  0.00     0.296 HD
ENDBRANCH   2   4
ENDBRANCH   1   2
BRANCH   1   6
ATOM      6  C   UNL     1       7.013  -0.130  -2.152  1.00  0.00     0.047 C 
BRANCH   6   7
ATOM      7  C   UNL     1       6.483   0.029  -0.798  1.00  0.00    -0.047 A 
ATOM      8  C   UNL     1       6.612  -0.979   0.130  1.00  0.00     0.004 A 
ATOM      9  C   UNL     1       5.851   1.202  -0.458  1.00  0.00     0.004 A 
ATOM     10  C   UNL     1       6.083  -0.758   1.403  1.00  0.00     0.000 A 
ATOM     11  C   UNL     1       5.329   1.418   0.802  1.00  0.00     0.000 A 
ATOM     12  C   UNL     1       5.453   0.414   1.737  1.00  0.00     0.000 A 
ENDBRANCH   6   7
ENDBRANCH   1   6
TORSDOF 4
ENDMDL
MODEL 2
REMARK VINA RESULT:      -7.3      0.058      1.437
REMARK SMILES O=C(O)CCc1ccccc1
REMARK SMILES IDX 4 1 2 2 1 3 3 4 5 6 6 7 7 8 11 9 8 10 10 11 9 12
REMARK H PARENT 3 5
REMARK Flexibility Score: inf
ROOT
ATOM      1  C   UNL     1       8.421  -0.604  -2.180  1.00  0.00     0.127 C 
ENDROOT
BRANCH   1   2
ATOM      2  C   UNL     1       8.466  -1.888  -2.919  1.00  0.00     0.303 C 
ATOM      3  O   UNL     1       9.547  -2.504  -3.088  1.00  0.00    -0.252 OA
BRANCH   2   4
ATOM      4  O   UNL     1       7.312  -2.444  -3.447  1.00  0.00    -0.481 OA
ATOM      5  H   UNL     1       6.530  -1.833  -3.697  1.00  0.00     0.296 HD
ENDBRANCH   2   4
ENDBRANCH   1   2
BRANCH   1   6
ATOM      6  C   UNL     1       7.000  -0.130  -2.146  1.00  0.00     0.047 C 
BRANCH   6   7
ATOM      7  C   UNL     1       6.467   0.057  -0.798  1.00  0.00    -0.047 A 
ATOM      8  C   UNL     1       5.843   1.231  -0.444  1.00  0.00     0.004 A 
ATOM      9  C   UNL     1       6.595  -0.959   0.121  1.00  0.00     0.004 A 
ATOM     10  C   UNL     1       5.358   1.339   0.861  1.00  0.00     0.000 A 
ATOM     11  C   UNL     1       6.115  -0.850   1.411  1.00  0.00     0.000 A 
ATOM     12  C   UNL     1       5.489   0.323   1.773  1.00  0.00     0.000 A 
ENDBRANCH   6   7
ENDBRANCH   1   6
TORSDOF 4
ENDMDL
MODEL 3
REMARK VINA RESULT:      -7.2      0.698      1.603
REMARK SMILES O=C(O)CCc1ccccc1
REMARK SMILES IDX 4 1 2 2 1 3 3 4 5 6 6 7 7 8 11 9 8 10 10 11 9 12
REMARK H PARENT 3 5
REMARK Flexibility Score: inf
ROOT
ATOM      1  C   UNL     1       8.377  -1.027  -1.700  1.00  0.00     0.127 C 
ENDROOT
BRANCH   1   2
ATOM      2  C   UNL     1       8.479  -2.031  -2.785  1.00  0.00     0.303 C 
ATOM      3  O   UNL     1       9.591  -2.493  -3.142  1.00  0.00    -0.252 OA
BRANCH   2   4
ATOM      4  O   UNL     1       7.346  -2.488  -3.439  1.00  0.00    -0.481 OA
ATOM      5  H   UNL     1       7.160  -2.175  -4.396  1.00  0.00     0.296 HD
ENDBRANCH   2   4
ENDBRANCH   1   2
BRANCH   1   6
ATOM      6  C   UNL     1       7.262  -1.435  -0.785  1.00  0.00     0.047 C 
BRANCH   6   7
ATOM      7  C   UNL     1       6.509  -0.312  -0.230  1.00  0.00    -0.047 A 
ATOM      8  C   UNL     1       6.203   0.782  -1.005  1.00  0.00     0.004 A 
ATOM      9  C   UNL     1       6.102  -0.361   1.084  1.00  0.00     0.004 A 
ATOM     10  C   UNL     1       5.480   1.817  -0.409  1.00  0.00     0.000 A 
ATOM     11  C   UNL     1       5.387   0.664   1.672  1.00  0.00     0.000 A 
ATOM     12  C   UNL     1       5.078   1.764   0.902  1.00  0.00     0.000 A 
ENDBRANCH   6   7
ENDBRANCH   1   6
TORSDOF 4
ENDMDL
MODEL 4
REMARK VINA RESULT:      -6.8      3.389      5.070
REMARK SMILES O=C(O)CCc1ccccc1
REMARK SMILES IDX 4 1 2 2 1 3 3 4 5 6 6 7 7 8 11 9 8 10 10 11 9 12
REMARK H PARENT 3 5
REMARK Flexibility Score: inf
ROOT
ATOM      1  C   UNL     1       4.986   1.777   0.685  1.00  0.00     0.127 C 
ENDROOT
BRANCH   1   2
ATOM      2  C   UNL     1       4.483   1.115   1.912  1.00  0.00     0.303 C 
ATOM      3  O   UNL     1       5.153   0.224   2.491  1.00  0.00    -0.252 OA
BRANCH   2   4
ATOM      4  O   UNL     1       3.257   1.462   2.454  1.00  0.00    -0.481 OA
ATOM      5  H   UNL     1       2.434   1.505   1.846  1.00  0.00     0.296 HD
ENDBRANCH   2   4
ENDBRANCH   1   2
BRANCH   1   6
ATOM      6  C   UNL     1       6.484   1.786   0.736  1.00  0.00     0.047 C 
BRANCH   6   7
ATOM      7  C   UNL     1       7.120   1.035  -0.345  1.00  0.00    -0.047 A 
ATOM      8  C   UNL     1       6.399   0.134  -1.094  1.00  0.00     0.004 A 
ATOM      9  C   UNL     1       8.454   1.238  -0.610  1.00  0.00     0.004 A 
ATOM     10  C   UNL     1       7.071  -0.548  -2.111  1.00  0.00     0.000 A 
ATOM     11  C   UNL     1       9.117   0.563  -1.615  1.00  0.00     0.000 A 
ATOM     12  C   UNL     1       8.402  -0.342  -2.370  1.00  0.00     0.000 A 
ENDBRANCH   6   7
ENDBRANCH   1   6
TORSDOF 4
ENDMDL
MODEL 5
REMARK VINA RESULT:      -6.7      3.836      4.998
REMARK SMILES O=C(O)CCc1ccccc1
REMARK SMILES IDX 4 1 2 2 1 3 3 4 5 6 6 7 7 8 11 9 8 10 10 11 9 12
REMARK H PARENT 3 5
REMARK Flexibility Score: inf
ROOT
ATOM      1  C   UNL     1       5.421   2.901   0.010  1.00  0.00     0.127 C 
ENDROOT
BRANCH   1   2
ATOM      2  C   UNL     1       6.222   3.866   0.800  1.00  0.00     0.303 C 
ATOM      3  O   UNL     1       6.883   4.775   0.239  1.00  0.00    -0.252 OA
BRANCH   2   4
ATOM      4  O   UNL     1       6.264   3.790   2.183  1.00  0.00    -0.481 OA
ATOM      5  H   UNL     1       5.404   3.592   2.700  1.00  0.00     0.296 HD
ENDBRANCH   2   4
ENDBRANCH   1   2
BRANCH   1   6
ATOM      6  C   UNL     1       4.911   1.842   0.939  1.00  0.00     0.047 C 
BRANCH   6   7
ATOM      7  C   UNL     1       5.704   0.614   0.933  1.00  0.00    -0.047 A 
ATOM      8  C   UNL     1       6.379   0.218  -0.198  1.00  0.00     0.004 A 
ATOM      9  C   UNL     1       5.771  -0.148   2.077  1.00  0.00     0.004 A 
ATOM     10  C   UNL     1       7.118  -0.966  -0.131  1.00  0.00     0.000 A 
ATOM     11  C   UNL     1       6.502  -1.318   2.141  1.00  0.00     0.000 A 
ATOM     12  C   UNL     1       7.181  -1.721   1.012  1.00  0.00     0.000 A 
ENDBRANCH   6   7
ENDBRANCH   1   6
TORSDOF 4
ENDMDL
