@<TRIPOS>MOLECULE
/home/cewinharhar/GITHUB/reincatalyze/data/processed/docking_pred/2023-Apr-26-1657_maxeplen10_maxtrainstep1000_exh32_gamma099_lrac9e-4_lrcr1e-3/8a11bcf53d23875e79cb17a52aa7b3de0dc85e7d_ligand_2.pdbqt
 12 12 0 0 0
SMALL
GASTEIGER

@<TRIPOS>ATOM
      1  C          8.3770   -1.0270   -1.7000 C.3     1  UNL1        0.1270
      2  C          8.4790   -2.0310   -2.7850 C.2     1  UNL1        0.3030
      3  O          9.5910   -2.4930   -3.1420 O.2     1  UNL1       -0.2520
      4  O          7.3460   -2.4880   -3.4390 O.3     1  UNL1       -0.4810
      5  H          7.1600   -2.1750   -4.3960 H       1  UNL1        0.2960
      6  C          7.2620   -1.4350   -0.7850 C.3     1  UNL1        0.0470
      7  C          6.5090   -0.3120   -0.2300 C.2     1  UNL1       -0.0470
      8  C          6.2030    0.7820   -1.0050 C.2     1  UNL1        0.0040
      9  C          6.1020   -0.3610    1.0840 C.2     1  UNL1        0.0040
     10  C          5.4800    1.8170   -0.4090 C.2     1  UNL1        0.0000
     11  C          5.3870    0.6640    1.6720 C.2     1  UNL1        0.0000
     12  C          5.0780    1.7640    0.9020 C.2     1  UNL1        0.0000
@<TRIPOS>BOND
     1     5     4    1
     2     4     2    1
     3     3     2    2
     4     2     1    1
     5     1     6    1
     6     8    10    1
     7     8     7    2
     8     6     7    1
     9    10    12    2
    10     7     9    1
    11    12    11    1
    12     9    11    2
