@<TRIPOS>MOLECULE
/home/cewinharhar/GITHUB/reincatalyze/data/processed/docking_pred/2023-Apr-26-1657_maxeplen10_maxtrainstep1000_exh32_gamma099_lrac9e-4_lrcr1e-3/8a11bcf53d23875e79cb17a52aa7b3de0dc85e7d_ligand_2.pdbqt
 12 12 0 0 0
SMALL
GASTEIGER

@<TRIPOS>ATOM
      1  C          5.4210    2.9010    0.0100 C.3     1  UNL1        0.1270
      2  C          6.2220    3.8660    0.8000 C.2     1  UNL1        0.3030
      3  O          6.8830    4.7750    0.2390 O.2     1  UNL1       -0.2520
      4  O          6.2640    3.7900    2.1830 O.3     1  UNL1       -0.4810
      5  H          5.4040    3.5920    2.7000 H       1  UNL1        0.2960
      6  C          4.9110    1.8420    0.9390 C.3     1  UNL1        0.0470
      7  C          5.7040    0.6140    0.9330 C.2     1  UNL1       -0.0470
      8  C          6.3790    0.2180   -0.1980 C.2     1  UNL1        0.0040
      9  C          5.7710   -0.1480    2.0770 C.2     1  UNL1        0.0040
     10  C          7.1180   -0.9660   -0.1310 C.2     1  UNL1        0.0000
     11  C          6.5020   -1.3180    2.1410 C.2     1  UNL1        0.0000
     12  C          7.1810   -1.7210    1.0120 C.2     1  UNL1        0.0000
@<TRIPOS>BOND
     1     8    10    1
     2     8     7    2
     3    10    12    2
     4     1     2    1
     5     1     6    1
     6     3     2    2
     7     2     4    1
     8     7     6    1
     9     7     9    1
    10    12    11    1
    11     9    11    2
    12     4     5    1
