@<TRIPOS>MOLECULE
/home/cewinharhar/GITHUB/reincatalyze/data/processed/docking_pred/2023-Apr-26-1657_maxeplen10_maxtrainstep1000_exh32_gamma099_lrac9e-4_lrcr1e-3/8a11bcf53d23875e79cb17a52aa7b3de0dc85e7d_ligand_2.pdbqt
 12 12 0 0 0
SMALL
GASTEIGER

@<TRIPOS>ATOM
      1  C          8.4210   -0.6040   -2.1800 C.3     1  UNL1        0.1270
      2  C          8.4660   -1.8880   -2.9190 C.2     1  UNL1        0.3030
      3  O          9.5470   -2.5040   -3.0880 O.2     1  UNL1       -0.2520
      4  O          7.3120   -2.4440   -3.4470 O.3     1  UNL1       -0.4810
      5  H          6.5300   -1.8330   -3.6970 H       1  UNL1        0.2960
      6  C          7.0000   -0.1300   -2.1460 C.3     1  UNL1        0.0470
      7  C          6.4670    0.0570   -0.7980 C.2     1  UNL1       -0.0470
      8  C          5.8430    1.2310   -0.4440 C.2     1  UNL1        0.0040
      9  C          6.5950   -0.9590    0.1210 C.2     1  UNL1        0.0040
     10  C          5.3580    1.3390    0.8610 C.2     1  UNL1        0.0000
     11  C          6.1150   -0.8500    1.4110 C.2     1  UNL1        0.0000
     12  C          5.4890    0.3230    1.7730 C.2     1  UNL1        0.0000
@<TRIPOS>BOND
     1     5     4    1
     2     4     2    1
     3     3     2    2
     4     2     1    1
     5     1     6    1
     6     6     7    1
     7     7     8    2
     8     7     9    1
     9     8    10    1
    10     9    11    2
    11    10    12    2
    12    11    12    1
