@<TRIPOS>MOLECULE
/home/cewinharhar/GITHUB/reincatalyze/data/processed/docking_pred/2023-Apr-26-1657_maxeplen10_maxtrainstep1000_exh32_gamma099_lrac9e-4_lrcr1e-3/8c75984685002de52dc1feb6518b36ce8b766619_ligand_2.pdbqt
 12 12 0 0 0
SMALL
GASTEIGER

@<TRIPOS>ATOM
      1  C          8.4380   -0.6220   -2.1600 C.3     1  UNL1        0.1270
      2  C          8.4790   -1.9000   -2.9090 C.2     1  UNL1        0.3030
      3  O          9.5600   -2.5120   -3.0940 O.2     1  UNL1       -0.2520
      4  O          7.3210   -2.4560   -3.4280 O.3     1  UNL1       -0.4810
      5  H          6.9110   -3.2760   -2.9730 H       1  UNL1        0.2960
      6  C          7.0210   -0.1370   -2.1330 C.3     1  UNL1        0.0470
      7  C          6.4770    0.0380   -0.7880 C.2     1  UNL1       -0.0470
      8  C          6.6010   -0.9550    0.1550 C.2     1  UNL1        0.0040
      9  C          5.8390    1.2150   -0.4700 C.2     1  UNL1        0.0040
     10  C          6.0580   -0.7190    1.4210 C.2     1  UNL1        0.0000
     11  C          5.3030    1.4470    0.7810 C.2     1  UNL1        0.0000
     12  C          5.4210    0.4560    1.7320 C.2     1  UNL1        0.0000
@<TRIPOS>BOND
     1     4     5    1
     2     4     2    1
     3     3     2    2
     4     2     1    1
     5     1     6    1
     6     6     7    1
     7     7     9    2
     8     7     8    1
     9     9    11    1
    10     8    10    2
    11    11    12    2
    12    10    12    1
