@<TRIPOS>MOLECULE
/home/cewinharhar/GITHUB/reincatalyze/data/processed/docking_pred/2023-Apr-26-1657_maxeplen10_maxtrainstep1000_exh32_gamma099_lrac9e-4_lrcr1e-3/8c75984685002de52dc1feb6518b36ce8b766619_ligand_2.pdbqt
 12 12 0 0 0
SMALL
GASTEIGER

@<TRIPOS>ATOM
      1  C          8.3720   -0.7560   -1.9930 C.3     1  UNL1        0.1270
      2  C          8.3510   -1.9600   -2.8570 C.2     1  UNL1        0.3030
      3  O          7.2710   -2.4230   -3.3020 O.2     1  UNL1       -0.2520
      4  O          9.5260   -2.6090   -3.1990 O.3     1  UNL1       -0.4810
      5  H          9.9770   -3.2230   -2.5140 H       1  UNL1        0.2960
      6  C          7.8610   -1.1410   -0.6380 C.3     1  UNL1        0.0470
      7  C          6.8690   -0.2160   -0.0920 C.2     1  UNL1       -0.0470
      8  C          6.4240    0.8550   -0.8320 C.2     1  UNL1        0.0040
      9  C          6.3790   -0.4280    1.1760 C.2     1  UNL1        0.0040
     10  C          5.4750    1.6970   -0.2480 C.2     1  UNL1        0.0000
     11  C          5.4410    0.4050    1.7520 C.2     1  UNL1        0.0000
     12  C          4.9910    1.4810    1.0180 C.2     1  UNL1        0.0000
@<TRIPOS>BOND
     1     3     2    2
     2     4     2    1
     3     4     5    1
     4     2     1    1
     5     1     6    1
     6     8    10    1
     7     8     7    2
     8     6     7    1
     9    10    12    2
    10     7     9    1
    11    12    11    1
    12     9    11    2
