@<TRIPOS>MOLECULE
/home/cewinharhar/GITHUB/reincatalyze/data/processed/docking_pred/2023-Apr-26-1657_maxeplen10_maxtrainstep1000_exh32_gamma099_lrac9e-4_lrcr1e-3/8c75984685002de52dc1feb6518b36ce8b766619_ligand_2.pdbqt
 12 12 0 0 0
SMALL
GASTEIGER

@<TRIPOS>ATOM
      1  C          5.0310    1.7320    0.6500 C.3     1  UNL1        0.1270
      2  C          4.5400    1.0930    1.8940 C.2     1  UNL1        0.3030
      3  O          5.2220    0.2260    2.4930 O.2     1  UNL1       -0.2520
      4  O          3.3100    1.4380    2.4300 O.3     1  UNL1       -0.4810
      5  H          2.8570    2.3050    2.1290 H       1  UNL1        0.2960
      6  C          6.5280    1.7640    0.6970 C.3     1  UNL1        0.0470
      7  C          7.1740    1.0070   -0.3740 C.2     1  UNL1       -0.0470
      8  C          8.5100    1.1790   -0.6500 C.2     1  UNL1        0.0040
      9  C          6.4280    0.1140   -1.1080 C.2     1  UNL1        0.0040
     10  C          9.0610    0.4220   -1.6870 C.2     1  UNL1        0.0000
     11  C          6.9740   -0.6340   -2.1330 C.2     1  UNL1        0.0000
     12  C          8.3120   -0.4670   -2.4160 C.2     1  UNL1        0.0000
@<TRIPOS>BOND
     1    12    11    2
     2    12    10    1
     3    11     9    1
     4    10     8    2
     5     9     7    2
     6     8     7    1
     7     7     6    1
     8     1     6    1
     9     1     2    1
    10     2     4    1
    11     2     3    2
    12     5     4    1
