MODEL 1
REMARK VINA RESULT:      -7.4      0.000      0.000
REMARK SMILES O=C(O)CCc1ccccc1
REMARK SMILES IDX 4 1 2 2 1 3 3 4 5 6 6 7 7 8 11 9 8 10 10 11 9 12
REMARK H PARENT 3 5
REMARK Flexibility Score: inf
ROOT
ATOM      1  C   UNL     1       8.438  -0.622  -2.160  1.00  0.00     0.127 C 
ENDROOT
BRANCH   1   2
ATOM      2  C   UNL     1       8.479  -1.900  -2.909  1.00  0.00     0.303 C 
ATOM      3  O   UNL     1       9.560  -2.512  -3.094  1.00  0.00    -0.252 OA
BRANCH   2   4
ATOM      4  O   UNL     1       7.321  -2.456  -3.428  1.00  0.00    -0.481 OA
ATOM      5  H   UNL     1       6.911  -3.276  -2.973  1.00  0.00     0.296 HD
ENDBRANCH   2   4
ENDBRANCH   1   2
BRANCH   1   6
ATOM      6  C   UNL     1       7.021  -0.137  -2.133  1.00  0.00     0.047 C 
BRANCH   6   7
ATOM      7  C   UNL     1       6.477   0.038  -0.788  1.00  0.00    -0.047 A 
ATOM      8  C   UNL     1       6.601  -0.955   0.155  1.00  0.00     0.004 A 
ATOM      9  C   UNL     1       5.839   1.215  -0.470  1.00  0.00     0.004 A 
ATOM     10  C   UNL     1       6.058  -0.719   1.421  1.00  0.00     0.000 A 
ATOM     11  C   UNL     1       5.303   1.447   0.781  1.00  0.00     0.000 A 
ATOM     12  C   UNL     1       5.421   0.456   1.732  1.00  0.00     0.000 A 
ENDBRANCH   6   7
ENDBRANCH   1   6
TORSDOF 4
ENDMDL
MODEL 2
REMARK VINA RESULT:      -7.3      0.095      1.439
REMARK SMILES O=C(O)CCc1ccccc1
REMARK SMILES IDX 4 1 2 2 1 3 3 4 5 6 6 7 7 8 11 9 8 10 10 11 9 12
REMARK H PARENT 3 5
REMARK Flexibility Score: inf
ROOT
ATOM      1  C   UNL     1       8.436  -0.604  -2.158  1.00  0.00     0.127 C 
ENDROOT
BRANCH   1   2
ATOM      2  C   UNL     1       8.484  -1.884  -2.902  1.00  0.00     0.303 C 
ATOM      3  O   UNL     1       9.569  -2.490  -3.087  1.00  0.00    -0.252 OA
BRANCH   2   4
ATOM      4  O   UNL     1       7.328  -2.450  -3.417  1.00  0.00    -0.481 OA
ATOM      5  H   UNL     1       6.635  -1.848  -3.870  1.00  0.00     0.296 HD
ENDBRANCH   2   4
ENDBRANCH   1   2
BRANCH   1   6
ATOM      6  C   UNL     1       7.015  -0.131  -2.125  1.00  0.00     0.047 C 
BRANCH   6   7
ATOM      7  C   UNL     1       6.478   0.047  -0.777  1.00  0.00    -0.047 A 
ATOM      8  C   UNL     1       5.858   1.221  -0.416  1.00  0.00     0.004 A 
ATOM      9  C   UNL     1       6.597  -0.977   0.134  1.00  0.00     0.004 A 
ATOM     10  C   UNL     1       5.369   1.321   0.888  1.00  0.00     0.000 A 
ATOM     11  C   UNL     1       6.113  -0.876   1.423  1.00  0.00     0.000 A 
ATOM     12  C   UNL     1       5.491   0.296   1.793  1.00  0.00     0.000 A 
ENDBRANCH   6   7
ENDBRANCH   1   6
TORSDOF 4
ENDMDL
MODEL 3
REMARK VINA RESULT:      -7.2      0.604      1.039
REMARK SMILES O=C(O)CCc1ccccc1
REMARK SMILES IDX 4 1 2 2 1 3 3 4 5 6 6 7 7 8 11 9 8 10 10 11 9 12
REMARK H PARENT 3 5
REMARK Flexibility Score: inf
ROOT
ATOM      1  C   UNL     1       8.263  -0.847  -1.927  1.00  0.00     0.127 C 
ENDROOT
BRANCH   1   2
ATOM      2  C   UNL     1       8.402  -1.973  -2.880  1.00  0.00     0.303 C 
ATOM      3  O   UNL     1       9.521  -2.495  -3.112  1.00  0.00    -0.252 OA
BRANCH   2   4
ATOM      4  O   UNL     1       7.298  -2.482  -3.543  1.00  0.00    -0.481 OA
ATOM      5  H   UNL     1       6.904  -1.963  -4.333  1.00  0.00     0.296 HD
ENDBRANCH   2   4
ENDBRANCH   1   2
BRANCH   1   6
ATOM      6  C   UNL     1       7.525  -1.340  -0.720  1.00  0.00     0.047 C 
BRANCH   6   7
ATOM      7  C   UNL     1       6.649  -0.341  -0.109  1.00  0.00    -0.047 A 
ATOM      8  C   UNL     1       6.175  -0.510   1.171  1.00  0.00     0.004 A 
ATOM      9  C   UNL     1       6.302   0.778  -0.830  1.00  0.00     0.004 A 
ATOM     10  C   UNL     1       5.343   0.484   1.690  1.00  0.00     0.000 A 
ATOM     11  C   UNL     1       5.480   1.760  -0.315  1.00  0.00     0.000 A 
ATOM     12  C   UNL     1       5.000   1.598   0.966  1.00  0.00     0.000 A 
ENDBRANCH   6   7
ENDBRANCH   1   6
TORSDOF 4
ENDMDL
MODEL 4
REMARK VINA RESULT:      -7.0      0.641      1.851
REMARK SMILES O=C(O)CCc1ccccc1
REMARK SMILES IDX 4 1 2 2 1 3 3 4 5 6 6 7 7 8 11 9 8 10 10 11 9 12
REMARK H PARENT 3 5
REMARK Flexibility Score: inf
ROOT
ATOM      1  C   UNL     1       8.372  -0.756  -1.993  1.00  0.00     0.127 C 
ENDROOT
BRANCH   1   2
ATOM      2  C   UNL     1       8.351  -1.960  -2.857  1.00  0.00     0.303 C 
ATOM      3  O   UNL     1       7.271  -2.423  -3.302  1.00  0.00    -0.252 OA
BRANCH   2   4
ATOM      4  O   UNL     1       9.526  -2.609  -3.199  1.00  0.00    -0.481 OA
ATOM      5  H   UNL     1       9.977  -3.223  -2.514  1.00  0.00     0.296 HD
ENDBRANCH   2   4
ENDBRANCH   1   2
BRANCH   1   6
ATOM      6  C   UNL     1       7.861  -1.141  -0.638  1.00  0.00     0.047 C 
BRANCH   6   7
ATOM      7  C   UNL     1       6.869  -0.216  -0.092  1.00  0.00    -0.047 A 
ATOM      8  C   UNL     1       6.424   0.855  -0.832  1.00  0.00     0.004 A 
ATOM      9  C   UNL     1       6.379  -0.428   1.176  1.00  0.00     0.004 A 
ATOM     10  C   UNL     1       5.475   1.697  -0.248  1.00  0.00     0.000 A 
ATOM     11  C   UNL     1       5.441   0.405   1.752  1.00  0.00     0.000 A 
ATOM     12  C   UNL     1       4.991   1.481   1.018  1.00  0.00     0.000 A 
ENDBRANCH   6   7
ENDBRANCH   1   6
TORSDOF 4
ENDMDL
MODEL 5
REMARK VINA RESULT:      -6.8      3.364      5.063
REMARK SMILES O=C(O)CCc1ccccc1
REMARK SMILES IDX 4 1 2 2 1 3 3 4 5 6 6 7 7 8 11 9 8 10 10 11 9 12
REMARK H PARENT 3 5
REMARK Flexibility Score: inf
ROOT
ATOM      1  C   UNL     1       5.031   1.732   0.650  1.00  0.00     0.127 C 
ENDROOT
BRANCH   1   2
ATOM      2  C   UNL     1       4.540   1.093   1.894  1.00  0.00     0.303 C 
ATOM      3  O   UNL     1       5.222   0.226   2.493  1.00  0.00    -0.252 OA
BRANCH   2   4
ATOM      4  O   UNL     1       3.310   1.438   2.430  1.00  0.00    -0.481 OA
ATOM      5  H   UNL     1       2.857   2.305   2.129  1.00  0.00     0.296 HD
ENDBRANCH   2   4
ENDBRANCH   1   2
BRANCH   1   6
ATOM      6  C   UNL     1       6.528   1.764   0.697  1.00  0.00     0.047 C 
BRANCH   6   7
ATOM      7  C   UNL     1       7.174   1.007  -0.374  1.00  0.00    -0.047 A 
ATOM      8  C   UNL     1       8.510   1.179  -0.650  1.00  0.00     0.004 A 
ATOM      9  C   UNL     1       6.428   0.114  -1.108  1.00  0.00     0.004 A 
ATOM     10  C   UNL     1       9.061   0.422  -1.687  1.00  0.00     0.000 A 
ATOM     11  C   UNL     1       6.974  -0.634  -2.133  1.00  0.00     0.000 A 
ATOM     12  C   UNL     1       8.312  -0.467  -2.416  1.00  0.00     0.000 A 
ENDBRANCH   6   7
ENDBRANCH   1   6
TORSDOF 4
ENDMDL
