@<TRIPOS>MOLECULE
/home/cewinharhar/GITHUB/reincatalyze/data/processed/docking_pred/2023-Apr-26-1657_maxeplen10_maxtrainstep1000_exh32_gamma099_lrac9e-4_lrcr1e-3/8c75984685002de52dc1feb6518b36ce8b766619_ligand_2.pdbqt
 12 12 0 0 0
SMALL
GASTEIGER

@<TRIPOS>ATOM
      1  C          8.2630   -0.8470   -1.9270 C.3     1  UNL1        0.1270
      2  C          8.4020   -1.9730   -2.8800 C.2     1  UNL1        0.3030
      3  O          9.5210   -2.4950   -3.1120 O.2     1  UNL1       -0.2520
      4  O          7.2980   -2.4820   -3.5430 O.3     1  UNL1       -0.4810
      5  H          6.9040   -1.9630   -4.3330 H       1  UNL1        0.2960
      6  C          7.5250   -1.3400   -0.7200 C.3     1  UNL1        0.0470
      7  C          6.6490   -0.3410   -0.1090 C.2     1  UNL1       -0.0470
      8  C          6.1750   -0.5100    1.1710 C.2     1  UNL1        0.0040
      9  C          6.3020    0.7780   -0.8300 C.2     1  UNL1        0.0040
     10  C          5.3430    0.4840    1.6900 C.2     1  UNL1        0.0000
     11  C          5.4800    1.7600   -0.3150 C.2     1  UNL1        0.0000
     12  C          5.0000    1.5980    0.9660 C.2     1  UNL1        0.0000
@<TRIPOS>BOND
     1     5     4    1
     2     4     2    1
     3     3     2    2
     4     2     1    1
     5     1     6    1
     6     9    11    1
     7     9     7    2
     8     6     7    1
     9    11    12    2
    10     7     8    1
    11    12    10    1
    12     8    10    2
