MODEL 1
REMARK VINA RESULT:      -7.4      0.000      0.000
REMARK SMILES O=C(O)CCc1ccccc1
REMARK SMILES IDX 4 1 2 2 1 3 3 4 5 6 6 7 7 8 11 9 8 10 10 11 9 12
REMARK H PARENT 3 5
REMARK Flexibility Score: inf
ROOT
ATOM      1  C   UNL     1       8.406  -0.548  -2.245  1.00  0.00     0.127 C 
ENDROOT
BRANCH   1   2
ATOM      2  C   UNL     1       8.466  -1.860  -2.930  1.00  0.00     0.303 C 
ATOM      3  O   UNL     1       9.557  -2.460  -3.095  1.00  0.00    -0.252 OA
BRANCH   2   4
ATOM      4  O   UNL     1       7.314  -2.463  -3.410  1.00  0.00    -0.481 OA
ATOM      5  H   UNL     1       7.349  -3.440  -3.712  1.00  0.00     0.296 HD
ENDBRANCH   2   4
ENDBRANCH   1   2
BRANCH   1   6
ATOM      6  C   UNL     1       6.974  -0.114  -2.180  1.00  0.00     0.047 C 
BRANCH   6   7
ATOM      7  C   UNL     1       6.461   0.043  -0.820  1.00  0.00    -0.047 A 
ATOM      8  C   UNL     1       6.597  -0.966   0.104  1.00  0.00     0.004 A 
ATOM      9  C   UNL     1       5.838   1.219  -0.470  1.00  0.00     0.004 A 
ATOM     10  C   UNL     1       6.084  -0.746   1.385  1.00  0.00     0.000 A 
ATOM     11  C   UNL     1       5.331   1.434   0.796  1.00  0.00     0.000 A 
ATOM     12  C   UNL     1       5.463   0.428   1.728  1.00  0.00     0.000 A 
ENDBRANCH   6   7
ENDBRANCH   1   6
TORSDOF 4
ENDMDL
MODEL 2
REMARK VINA RESULT:      -7.3      0.133      1.733
REMARK SMILES O=C(O)CCc1ccccc1
REMARK SMILES IDX 4 1 2 2 1 3 3 4 5 6 6 7 7 8 11 9 8 10 10 11 9 12
REMARK H PARENT 3 5
REMARK Flexibility Score: inf
ROOT
ATOM      1  C   UNL     1       8.402  -0.647  -2.089  1.00  0.00     0.127 C 
ENDROOT
BRANCH   1   2
ATOM      2  C   UNL     1       8.372  -1.899  -2.881  1.00  0.00     0.303 C 
ATOM      3  O   UNL     1       7.286  -2.410  -3.250  1.00  0.00    -0.252 OA
BRANCH   2   4
ATOM      4  O   UNL     1       9.547  -2.542  -3.236  1.00  0.00    -0.481 OA
ATOM      5  H   UNL     1       9.866  -2.501  -4.208  1.00  0.00     0.296 HD
ENDBRANCH   2   4
ENDBRANCH   1   2
BRANCH   1   6
ATOM      6  C   UNL     1       7.022  -0.063  -2.079  1.00  0.00     0.047 C 
BRANCH   6   7
ATOM      7  C   UNL     1       6.456   0.102  -0.741  1.00  0.00    -0.047 A 
ATOM      8  C   UNL     1       5.798   1.259  -0.393  1.00  0.00     0.004 A 
ATOM      9  C   UNL     1       6.586  -0.917   0.174  1.00  0.00     0.004 A 
ATOM     10  C   UNL     1       5.282   1.348   0.902  1.00  0.00     0.000 A 
ATOM     11  C   UNL     1       6.076  -0.828   1.454  1.00  0.00     0.000 A 
ATOM     12  C   UNL     1       5.416   0.328   1.810  1.00  0.00     0.000 A 
ENDBRANCH   6   7
ENDBRANCH   1   6
TORSDOF 4
ENDMDL
MODEL 3
REMARK VINA RESULT:      -7.3      0.639      1.589
REMARK SMILES O=C(O)CCc1ccccc1
REMARK SMILES IDX 4 1 2 2 1 3 3 4 5 6 6 7 7 8 11 9 8 10 10 11 9 12
REMARK H PARENT 3 5
REMARK Flexibility Score: inf
ROOT
ATOM      1  C   UNL     1       8.238  -0.821  -1.936  1.00  0.00     0.127 C 
ENDROOT
BRANCH   1   2
ATOM      2  C   UNL     1       8.402  -1.942  -2.891  1.00  0.00     0.303 C 
ATOM      3  O   UNL     1       9.534  -2.430  -3.134  1.00  0.00    -0.252 OA
BRANCH   2   4
ATOM      4  O   UNL     1       7.307  -2.485  -3.543  1.00  0.00    -0.481 OA
ATOM      5  H   UNL     1       6.374  -2.373  -3.135  1.00  0.00     0.296 HD
ENDBRANCH   2   4
ENDBRANCH   1   2
BRANCH   1   6
ATOM      6  C   UNL     1       7.363  -1.284  -0.811  1.00  0.00     0.047 C 
BRANCH   6   7
ATOM      7  C   UNL     1       6.549  -0.225  -0.217  1.00  0.00    -0.047 A 
ATOM      8  C   UNL     1       6.166   0.868  -0.959  1.00  0.00     0.004 A 
ATOM      9  C   UNL     1       6.165  -0.333   1.100  1.00  0.00     0.004 A 
ATOM     10  C   UNL     1       5.388   1.840  -0.326  1.00  0.00     0.000 A 
ATOM     11  C   UNL     1       5.397   0.630   1.724  1.00  0.00     0.000 A 
ATOM     12  C   UNL     1       5.009   1.728   0.988  1.00  0.00     0.000 A 
ENDBRANCH   6   7
ENDBRANCH   1   6
TORSDOF 4
ENDMDL
MODEL 4
REMARK VINA RESULT:      -6.8      3.359      5.050
REMARK SMILES O=C(O)CCc1ccccc1
REMARK SMILES IDX 4 1 2 2 1 3 3 4 5 6 6 7 7 8 11 9 8 10 10 11 9 12
REMARK H PARENT 3 5
REMARK Flexibility Score: inf
ROOT
ATOM      1  C   UNL     1       5.019   1.745   0.636  1.00  0.00     0.127 C 
ENDROOT
BRANCH   1   2
ATOM      2  C   UNL     1       4.536   1.108   1.884  1.00  0.00     0.303 C 
ATOM      3  O   UNL     1       5.224   0.244   2.482  1.00  0.00    -0.252 OA
BRANCH   2   4
ATOM      4  O   UNL     1       3.308   1.450   2.427  1.00  0.00    -0.481 OA
ATOM      5  H   UNL     1       2.480   1.463   1.824  1.00  0.00     0.296 HD
ENDBRANCH   2   4
ENDBRANCH   1   2
BRANCH   1   6
ATOM      6  C   UNL     1       6.516   1.788   0.678  1.00  0.00     0.047 C 
BRANCH   6   7
ATOM      7  C   UNL     1       7.163   1.020  -0.384  1.00  0.00    -0.047 A 
ATOM      8  C   UNL     1       8.502   1.183  -0.654  1.00  0.00     0.004 A 
ATOM      9  C   UNL     1       6.417   0.124  -1.114  1.00  0.00     0.004 A 
ATOM     10  C   UNL     1       9.054   0.415  -1.682  1.00  0.00     0.000 A 
ATOM     11  C   UNL     1       6.964  -0.634  -2.130  1.00  0.00     0.000 A 
ATOM     12  C   UNL     1       8.305  -0.476  -2.408  1.00  0.00     0.000 A 
ENDBRANCH   6   7
ENDBRANCH   1   6
TORSDOF 4
ENDMDL
MODEL 5
REMARK VINA RESULT:      -6.7      1.938      2.645
REMARK SMILES O=C(O)CCc1ccccc1
REMARK SMILES IDX 4 1 2 2 1 3 3 4 5 6 6 7 7 8 11 9 8 10 10 11 9 12
REMARK H PARENT 3 5
REMARK Flexibility Score: inf
ROOT
ATOM      1  C   UNL     1       8.267   0.232  -2.149  1.00  0.00     0.127 C 
ENDROOT
BRANCH   1   2
ATOM      2  C   UNL     1       9.399   0.369  -1.203  1.00  0.00     0.303 C 
ATOM      3  O   UNL     1       9.498  -0.373  -0.194  1.00  0.00    -0.252 OA
BRANCH   2   4
ATOM      4  O   UNL     1      10.384   1.322  -1.406  1.00  0.00    -0.481 OA
ATOM      5  H   UNL     1      10.212   2.289  -1.117  1.00  0.00     0.296 HD
ENDBRANCH   2   4
ENDBRANCH   1   2
BRANCH   1   6
ATOM      6  C   UNL     1       7.181  -0.548  -1.473  1.00  0.00     0.047 C 
BRANCH   6   7
ATOM      7  C   UNL     1       6.377   0.237  -0.539  1.00  0.00    -0.047 A 
ATOM      8  C   UNL     1       5.850   1.452  -0.913  1.00  0.00     0.004 A 
ATOM      9  C   UNL     1       6.147  -0.252   0.726  1.00  0.00     0.004 A 
ATOM     10  C   UNL     1       5.091   2.148   0.031  1.00  0.00     0.000 A 
ATOM     11  C   UNL     1       5.397   0.437   1.658  1.00  0.00     0.000 A 
ATOM     12  C   UNL     1       4.867   1.655   1.291  1.00  0.00     0.000 A 
ENDBRANCH   6   7
ENDBRANCH   1   6
TORSDOF 4
ENDMDL
