@<TRIPOS>MOLECULE
/home/cewinharhar/GITHUB/reincatalyze/data/processed/docking_pred/2023-Apr-26-1657_maxeplen10_maxtrainstep1000_exh32_gamma099_lrac9e-4_lrcr1e-3/8f258178c278a1f8efc989ef7d8625b520fa90c8_ligand_2.pdbqt
 12 12 0 0 0
SMALL
GASTEIGER

@<TRIPOS>ATOM
      1  C          8.4060   -0.5480   -2.2450 C.3     1  UNL1        0.1270
      2  C          8.4660   -1.8600   -2.9300 C.2     1  UNL1        0.3030
      3  O          9.5570   -2.4600   -3.0950 O.2     1  UNL1       -0.2520
      4  O          7.3140   -2.4630   -3.4100 O.3     1  UNL1       -0.4810
      5  H          7.3490   -3.4400   -3.7120 H       1  UNL1        0.2960
      6  C          6.9740   -0.1140   -2.1800 C.3     1  UNL1        0.0470
      7  C          6.4610    0.0430   -0.8200 C.2     1  UNL1       -0.0470
      8  C          6.5970   -0.9660    0.1040 C.2     1  UNL1        0.0040
      9  C          5.8380    1.2190   -0.4700 C.2     1  UNL1        0.0040
     10  C          6.0840   -0.7460    1.3850 C.2     1  UNL1        0.0000
     11  C          5.3310    1.4340    0.7960 C.2     1  UNL1        0.0000
     12  C          5.4630    0.4280    1.7280 C.2     1  UNL1        0.0000
@<TRIPOS>BOND
     1     5     4    1
     2     4     2    1
     3     3     2    2
     4     2     1    1
     5     1     6    1
     6     6     7    1
     7     7     9    2
     8     7     8    1
     9     9    11    1
    10     8    10    2
    11    11    12    2
    12    10    12    1
