@<TRIPOS>MOLECULE
/home/cewinharhar/GITHUB/reincatalyze/data/processed/docking_pred/2023-Apr-26-1657_maxeplen10_maxtrainstep1000_exh32_gamma099_lrac9e-4_lrcr1e-3/8f258178c278a1f8efc989ef7d8625b520fa90c8_ligand_2.pdbqt
 12 12 0 0 0
SMALL
GASTEIGER

@<TRIPOS>ATOM
      1  C          5.0190    1.7450    0.6360 C.3     1  UNL1        0.1270
      2  C          4.5360    1.1080    1.8840 C.2     1  UNL1        0.3030
      3  O          5.2240    0.2440    2.4820 O.2     1  UNL1       -0.2520
      4  O          3.3080    1.4500    2.4270 O.3     1  UNL1       -0.4810
      5  H          2.4800    1.4630    1.8240 H       1  UNL1        0.2960
      6  C          6.5160    1.7880    0.6780 C.3     1  UNL1        0.0470
      7  C          7.1630    1.0200   -0.3840 C.2     1  UNL1       -0.0470
      8  C          8.5020    1.1830   -0.6540 C.2     1  UNL1        0.0040
      9  C          6.4170    0.1240   -1.1140 C.2     1  UNL1        0.0040
     10  C          9.0540    0.4150   -1.6820 C.2     1  UNL1        0.0000
     11  C          6.9640   -0.6340   -2.1300 C.2     1  UNL1        0.0000
     12  C          8.3050   -0.4760   -2.4080 C.2     1  UNL1        0.0000
@<TRIPOS>BOND
     1    12    11    2
     2    12    10    1
     3    11     9    1
     4    10     8    2
     5     9     7    2
     6     8     7    1
     7     7     6    1
     8     1     6    1
     9     1     2    1
    10     5     4    1
    11     2     4    1
    12     2     3    2
