@<TRIPOS>MOLECULE
/home/cewinharhar/GITHUB/reincatalyze/data/processed/docking_pred/2023-Apr-26-1657_maxeplen10_maxtrainstep1000_exh32_gamma099_lrac9e-4_lrcr1e-3/8f258178c278a1f8efc989ef7d8625b520fa90c8_ligand_2.pdbqt
 12 12 0 0 0
SMALL
GASTEIGER

@<TRIPOS>ATOM
      1  C          8.2380   -0.8210   -1.9360 C.3     1  UNL1        0.1270
      2  C          8.4020   -1.9420   -2.8910 C.2     1  UNL1        0.3030
      3  O          9.5340   -2.4300   -3.1340 O.2     1  UNL1       -0.2520
      4  O          7.3070   -2.4850   -3.5430 O.3     1  UNL1       -0.4810
      5  H          6.3740   -2.3730   -3.1350 H       1  UNL1        0.2960
      6  C          7.3630   -1.2840   -0.8110 C.3     1  UNL1        0.0470
      7  C          6.5490   -0.2250   -0.2170 C.2     1  UNL1       -0.0470
      8  C          6.1660    0.8680   -0.9590 C.2     1  UNL1        0.0040
      9  C          6.1650   -0.3330    1.1000 C.2     1  UNL1        0.0040
     10  C          5.3880    1.8400   -0.3260 C.2     1  UNL1        0.0000
     11  C          5.3970    0.6300    1.7240 C.2     1  UNL1        0.0000
     12  C          5.0090    1.7280    0.9880 C.2     1  UNL1        0.0000
@<TRIPOS>BOND
     1     4     5    1
     2     4     2    1
     3     3     2    2
     4     2     1    1
     5     1     6    1
     6     8    10    1
     7     8     7    2
     8     6     7    1
     9    10    12    2
    10     7     9    1
    11    12    11    1
    12     9    11    2
