@<TRIPOS>MOLECULE
/home/cewinharhar/GITHUB/reincatalyze/data/processed/docking_pred/2023-Apr-26-1657_maxeplen10_maxtrainstep1000_exh32_gamma099_lrac9e-4_lrcr1e-3/8f258178c278a1f8efc989ef7d8625b520fa90c8_ligand_2.pdbqt
 12 12 0 0 0
SMALL
GASTEIGER

@<TRIPOS>ATOM
      1  C          8.2670    0.2320   -2.1490 C.3     1  UNL1        0.1270
      2  C          9.3990    0.3690   -1.2030 C.2     1  UNL1        0.3030
      3  O          9.4980   -0.3730   -0.1940 O.2     1  UNL1       -0.2520
      4  O         10.3840    1.3220   -1.4060 O.3     1  UNL1       -0.4810
      5  H         10.2120    2.2890   -1.1170 H       1  UNL1        0.2960
      6  C          7.1810   -0.5480   -1.4730 C.3     1  UNL1        0.0470
      7  C          6.3770    0.2370   -0.5390 C.2     1  UNL1       -0.0470
      8  C          5.8500    1.4520   -0.9130 C.2     1  UNL1        0.0040
      9  C          6.1470   -0.2520    0.7260 C.2     1  UNL1        0.0040
     10  C          5.0910    2.1480    0.0310 C.2     1  UNL1        0.0000
     11  C          5.3970    0.4370    1.6580 C.2     1  UNL1        0.0000
     12  C          4.8670    1.6550    1.2910 C.2     1  UNL1        0.0000
@<TRIPOS>BOND
     1     1     6    1
     2     1     2    1
     3     6     7    1
     4     4     2    1
     5     4     5    1
     6     2     3    2
     7     8     7    2
     8     8    10    1
     9     7     9    1
    10    10    12    2
    11     9    11    2
    12    12    11    1
