@<TRIPOS>MOLECULE
/home/cewinharhar/GITHUB/reincatalyze/data/processed/docking_pred/2023-Apr-26-1657_maxeplen10_maxtrainstep1000_exh32_gamma099_lrac9e-4_lrcr1e-3/8f3f3cc121b2e0b9b67c9595347d7d2b0dd21437_ligand_2.pdbqt
 12 12 0 0 0
SMALL
GASTEIGER

@<TRIPOS>ATOM
      1  C          8.4490   -0.6100   -2.1620 C.3     1  UNL1        0.1270
      2  C          8.4890   -1.8880   -2.9110 C.2     1  UNL1        0.3030
      3  O          9.5710   -2.4990   -3.0980 O.2     1  UNL1       -0.2520
      4  O          7.3310   -2.4460   -3.4270 O.3     1  UNL1       -0.4810
      5  H          7.0360   -2.1990   -4.3760 H       1  UNL1        0.2960
      6  C          7.0300   -0.1280   -2.1310 C.3     1  UNL1        0.0470
      7  C          6.4860    0.0340   -0.7840 C.2     1  UNL1       -0.0470
      8  C          6.6200   -0.9640    0.1530 C.2     1  UNL1        0.0040
      9  C          5.8370    1.2020   -0.4580 C.2     1  UNL1        0.0040
     10  C          6.0770   -0.7410    1.4200 C.2     1  UNL1        0.0000
     11  C          5.3000    1.4210    0.7950 C.2     1  UNL1        0.0000
     12  C          5.4290    0.4260    1.7400 C.2     1  UNL1        0.0000
@<TRIPOS>BOND
     1     5     4    1
     2     4     2    1
     3     3     2    2
     4     2     1    1
     5     1     6    1
     6     6     7    1
     7     7     9    2
     8     7     8    1
     9     9    11    1
    10     8    10    2
    11    11    12    2
    12    10    12    1
