@<TRIPOS>MOLECULE
/home/cewinharhar/GITHUB/reincatalyze/data/processed/docking_pred/2023-Apr-26-1657_maxeplen10_maxtrainstep1000_exh32_gamma099_lrac9e-4_lrcr1e-3/8f3f3cc121b2e0b9b67c9595347d7d2b0dd21437_ligand_2.pdbqt
 12 12 0 0 0
SMALL
GASTEIGER

@<TRIPOS>ATOM
      1  C          8.1700    0.2180   -2.0960 C.3     1  UNL1        0.1270
      2  C          9.3470    0.3530   -1.2070 C.2     1  UNL1        0.3030
      3  O          9.4870   -0.3810   -0.1970 O.2     1  UNL1       -0.2520
      4  O         10.3290    1.2950   -1.4660 O.3     1  UNL1       -0.4810
      5  H         10.3480    2.1610   -0.9210 H       1  UNL1        0.2960
      6  C          7.1410   -0.6140   -1.3930 C.3     1  UNL1        0.0470
      7  C          6.3550    0.1230   -0.4040 C.2     1  UNL1       -0.0470
      8  C          5.8180    1.3520   -0.7070 C.2     1  UNL1        0.0040
      9  C          6.1550   -0.4290    0.8400 C.2     1  UNL1        0.0040
     10  C          5.0780    1.9990    0.2860 C.2     1  UNL1        0.0000
     11  C          5.4230    0.2120    1.8200 C.2     1  UNL1        0.0000
     12  C          4.8820    1.4440    1.5250 C.2     1  UNL1        0.0000
@<TRIPOS>BOND
     1     1     6    1
     2     1     2    1
     3     4     2    1
     4     4     5    1
     5     6     7    1
     6     2     3    2
     7     8     7    2
     8     8    10    1
     9     7     9    1
    10    10    12    2
    11     9    11    2
    12    12    11    1
