@<TRIPOS>MOLECULE
/home/cewinharhar/GITHUB/reincatalyze/data/processed/docking_pred/2023-Apr-26-1657_maxeplen10_maxtrainstep1000_exh32_gamma099_lrac9e-4_lrcr1e-3/8f3f3cc121b2e0b9b67c9595347d7d2b0dd21437_ligand_2.pdbqt
 12 12 0 0 0
SMALL
GASTEIGER

@<TRIPOS>ATOM
      1  C          8.4390   -0.6150   -2.1400 C.3     1  UNL1        0.1270
      2  C          8.4780   -1.8830   -2.9060 C.2     1  UNL1        0.3030
      3  O          9.5590   -2.4900   -3.1040 O.2     1  UNL1       -0.2520
      4  O          7.3180   -2.4340   -3.4250 O.3     1  UNL1       -0.4810
      5  H          6.7520   -1.8860   -4.0790 H       1  UNL1        0.2960
      6  C          7.0260   -0.1160   -2.1270 C.3     1  UNL1        0.0470
      7  C          6.4740    0.0720   -0.7860 C.2     1  UNL1       -0.0470
      8  C          5.8340    1.2410   -0.4470 C.2     1  UNL1        0.0040
      9  C          6.5990   -0.9390    0.1390 C.2     1  UNL1        0.0040
     10  C          5.3300    1.3510    0.8520 C.2     1  UNL1        0.0000
     11  C          6.1010   -0.8280    1.4220 C.2     1  UNL1        0.0000
     12  C          5.4590    0.3400    1.7700 C.2     1  UNL1        0.0000
@<TRIPOS>BOND
     1     5     4    1
     2     4     2    1
     3     3     2    2
     4     2     1    1
     5     1     6    1
     6     6     7    1
     7     7     8    2
     8     7     9    1
     9     8    10    1
    10     9    11    2
    11    10    12    2
    12    11    12    1
