@<TRIPOS>MOLECULE
/home/cewinharhar/GITHUB/reincatalyze/data/processed/docking_pred/2023-Apr-26-1657_maxeplen10_maxtrainstep1000_exh32_gamma099_lrac9e-4_lrcr1e-3/8f3f3cc121b2e0b9b67c9595347d7d2b0dd21437_ligand_2.pdbqt
 12 12 0 0 0
SMALL
GASTEIGER

@<TRIPOS>ATOM
      1  C          5.0190    1.7700    0.6570 C.3     1  UNL1        0.1270
      2  C          4.5110    1.1120    1.8840 C.2     1  UNL1        0.3030
      3  O          5.1720    0.2160    2.4640 O.2     1  UNL1       -0.2520
      4  O          3.2860    1.4690    2.4260 O.3     1  UNL1       -0.4810
      5  H          2.7270    2.1920    1.9650 H       1  UNL1        0.2960
      6  C          6.5160    1.7890    0.7190 C.3     1  UNL1        0.0470
      7  C          7.1650    1.0400   -0.3560 C.2     1  UNL1       -0.0470
      8  C          8.4920    1.2450   -0.6550 C.2     1  UNL1        0.0040
      9  C          6.4320    0.1210   -1.0710 C.2     1  UNL1        0.0040
     10  C          9.0460    0.4940   -1.6940 C.2     1  UNL1        0.0000
     11  C          6.9810   -0.6200   -2.0980 C.2     1  UNL1        0.0000
     12  C          8.3100   -0.4210   -2.4040 C.2     1  UNL1        0.0000
@<TRIPOS>BOND
     1    12    11    2
     2    12    10    1
     3    11     9    1
     4    10     8    2
     5     9     7    2
     6     8     7    1
     7     7     6    1
     8     1     6    1
     9     1     2    1
    10     2     4    1
    11     2     3    2
    12     5     4    1
