@<TRIPOS>MOLECULE
/home/cewinharhar/GITHUB/reincatalyze/data/processed/docking_pred/2023-Apr-26-1657_maxeplen10_maxtrainstep1000_exh32_gamma099_lrac9e-4_lrcr1e-3/8f3f3cc121b2e0b9b67c9595347d7d2b0dd21437_ligand_2.pdbqt
 12 12 0 0 0
SMALL
GASTEIGER

@<TRIPOS>ATOM
      1  C          7.2620   -1.3060   -2.2630 C.3     1  UNL1        0.1270
      2  C          8.7180   -1.4040   -2.5250 C.2     1  UNL1        0.3030
      3  O          9.5170   -0.5380   -2.0910 O.2     1  UNL1       -0.2520
      4  O          9.2370   -2.4590   -3.2580 O.3     1  UNL1       -0.4810
      5  H          8.9790   -2.5590   -4.2440 H       1  UNL1        0.2960
      6  C          6.9380    0.1200   -1.9370 C.3     1  UNL1        0.0470
      7  C          6.3290    0.3060   -0.6210 C.2     1  UNL1       -0.0470
      8  C          6.4620   -0.6520    0.3570 C.2     1  UNL1        0.0040
      9  C          5.6170    1.4560   -0.3670 C.2     1  UNL1        0.0040
     10  C          5.8540   -0.4080    1.5910 C.2     1  UNL1        0.0000
     11  C          5.0170    1.6950    0.8530 C.2     1  UNL1        0.0000
     12  C          5.1450    0.7400    1.8380 C.2     1  UNL1        0.0000
@<TRIPOS>BOND
     1     5     4    1
     2     4     2    1
     3     2     1    1
     4     2     3    2
     5     1     6    1
     6     6     7    1
     7     7     9    2
     8     7     8    1
     9     9    11    1
    10     8    10    2
    11    11    12    2
    12    10    12    1
