@<TRIPOS>MOLECULE
/home/cewinharhar/GITHUB/reincatalyze/data/processed/docking_pred/2023-Apr-26-1657_maxeplen10_maxtrainstep1000_exh32_gamma099_lrac9e-4_lrcr1e-3/8f7c925e970cb887b69f6e81c5db99fda922d0ae_ligand_2.pdbqt
 12 12 0 0 0
SMALL
GASTEIGER

@<TRIPOS>ATOM
      1  C          8.4340   -0.5860   -2.1910 C.3     1  UNL1        0.1270
      2  C          8.4790   -1.8800   -2.9110 C.2     1  UNL1        0.3030
      3  O          9.5620   -2.4900   -3.0880 O.2     1  UNL1       -0.2520
      4  O          7.3210   -2.4540   -3.4130 O.3     1  UNL1       -0.4810
      5  H          7.0080   -2.2070   -4.3550 H       1  UNL1        0.2960
      6  C          7.0140   -0.1100   -2.1640 C.3     1  UNL1        0.0470
      7  C          6.4800    0.0920   -0.8180 C.2     1  UNL1       -0.0470
      8  C          5.8690    1.2750   -0.4740 C.2     1  UNL1        0.0040
      9  C          6.5920   -0.9200    0.1080 C.2     1  UNL1        0.0040
     10  C          5.3810    1.3980    0.8290 C.2     1  UNL1        0.0000
     11  C          6.1100   -0.7960    1.3960 C.2     1  UNL1        0.0000
     12  C          5.4970    0.3870    1.7480 C.2     1  UNL1        0.0000
@<TRIPOS>BOND
     1     5     4    1
     2     4     2    1
     3     3     2    2
     4     2     1    1
     5     1     6    1
     6     6     7    1
     7     7     8    2
     8     7     9    1
     9     8    10    1
    10     9    11    2
    11    10    12    2
    12    11    12    1
