@<TRIPOS>MOLECULE
/home/cewinharhar/GITHUB/reincatalyze/data/processed/docking_pred/2023-Apr-26-1657_maxeplen10_maxtrainstep1000_exh32_gamma099_lrac9e-4_lrcr1e-3/8f7c925e970cb887b69f6e81c5db99fda922d0ae_ligand_2.pdbqt
 12 12 0 0 0
SMALL
GASTEIGER

@<TRIPOS>ATOM
      1  C          5.4450    2.8960   -0.0130 C.3     1  UNL1        0.1270
      2  C          6.2510    3.8450    0.7920 C.2     1  UNL1        0.3030
      3  O          6.9310    4.7480    0.2450 O.2     1  UNL1       -0.2520
      4  O          6.2750    3.7610    2.1750 O.3     1  UNL1       -0.4810
      5  H          6.7590    2.9770    2.6200 H       1  UNL1        0.2960
      6  C          4.9180    1.8330    0.9020 C.3     1  UNL1        0.0470
      7  C          5.7200    0.6110    0.9170 C.2     1  UNL1       -0.0470
      8  C          6.4120    0.2100   -0.2020 C.2     1  UNL1        0.0040
      9  C          5.7800   -0.1390    2.0690 C.2     1  UNL1        0.0040
     10  C          7.1580   -0.9680   -0.1150 C.2     1  UNL1        0.0000
     11  C          6.5180   -1.3030    2.1530 C.2     1  UNL1        0.0000
     12  C          7.2130   -1.7120    1.0360 C.2     1  UNL1        0.0000
@<TRIPOS>BOND
     1     8    10    1
     2     8     7    2
     3    10    12    2
     4     1     2    1
     5     1     6    1
     6     3     2    2
     7     2     4    1
     8     6     7    1
     9     7     9    1
    10    12    11    1
    11     9    11    2
    12     4     5    1
