MODEL 1
REMARK VINA RESULT:      -7.4      0.000      0.000
REMARK SMILES O=C(O)CCc1ccccc1
REMARK SMILES IDX 4 1 2 2 1 3 3 4 5 6 6 7 7 8 11 9 8 10 10 11 9 12
REMARK H PARENT 3 5
REMARK Flexibility Score: inf
ROOT
ATOM      1  C   UNL     1       8.483  -0.613  -2.141  1.00  0.00     0.127 C 
ENDROOT
BRANCH   1   2
ATOM      2  C   UNL     1       8.505  -1.889  -2.894  1.00  0.00     0.303 C 
ATOM      3  O   UNL     1       9.582  -2.494  -3.117  1.00  0.00    -0.252 OA
BRANCH   2   4
ATOM      4  O   UNL     1       7.333  -2.449  -3.376  1.00  0.00    -0.481 OA
ATOM      5  H   UNL     1       7.217  -3.466  -3.351  1.00  0.00     0.296 HD
ENDBRANCH   2   4
ENDBRANCH   1   2
BRANCH   1   6
ATOM      6  C   UNL     1       7.078  -0.092  -2.138  1.00  0.00     0.047 C 
BRANCH   6   7
ATOM      7  C   UNL     1       6.508   0.074  -0.802  1.00  0.00    -0.047 A 
ATOM      8  C   UNL     1       6.651  -0.909   0.150  1.00  0.00     0.004 A 
ATOM      9  C   UNL     1       5.823   1.229  -0.503  1.00  0.00     0.004 A 
ATOM     10  C   UNL     1       6.081  -0.683   1.405  1.00  0.00     0.000 A 
ATOM     11  C   UNL     1       5.260   1.450   0.739  1.00  0.00     0.000 A 
ATOM     12  C   UNL     1       5.399   0.471   1.698  1.00  0.00     0.000 A 
ENDBRANCH   6   7
ENDBRANCH   1   6
TORSDOF 4
ENDMDL
MODEL 2
REMARK VINA RESULT:      -7.3      0.088      1.438
REMARK SMILES O=C(O)CCc1ccccc1
REMARK SMILES IDX 4 1 2 2 1 3 3 4 5 6 6 7 7 8 11 9 8 10 10 11 9 12
REMARK H PARENT 3 5
REMARK Flexibility Score: inf
ROOT
ATOM      1  C   UNL     1       8.434  -0.586  -2.191  1.00  0.00     0.127 C 
ENDROOT
BRANCH   1   2
ATOM      2  C   UNL     1       8.479  -1.880  -2.911  1.00  0.00     0.303 C 
ATOM      3  O   UNL     1       9.562  -2.490  -3.088  1.00  0.00    -0.252 OA
BRANCH   2   4
ATOM      4  O   UNL     1       7.321  -2.454  -3.413  1.00  0.00    -0.481 OA
ATOM      5  H   UNL     1       7.008  -2.207  -4.355  1.00  0.00     0.296 HD
ENDBRANCH   2   4
ENDBRANCH   1   2
BRANCH   1   6
ATOM      6  C   UNL     1       7.014  -0.110  -2.164  1.00  0.00     0.047 C 
BRANCH   6   7
ATOM      7  C   UNL     1       6.480   0.092  -0.818  1.00  0.00    -0.047 A 
ATOM      8  C   UNL     1       5.869   1.275  -0.474  1.00  0.00     0.004 A 
ATOM      9  C   UNL     1       6.592  -0.920   0.108  1.00  0.00     0.004 A 
ATOM     10  C   UNL     1       5.381   1.398   0.829  1.00  0.00     0.000 A 
ATOM     11  C   UNL     1       6.110  -0.796   1.396  1.00  0.00     0.000 A 
ATOM     12  C   UNL     1       5.497   0.387   1.748  1.00  0.00     0.000 A 
ENDBRANCH   6   7
ENDBRANCH   1   6
TORSDOF 4
ENDMDL
MODEL 3
REMARK VINA RESULT:      -6.8      3.355      5.065
REMARK SMILES O=C(O)CCc1ccccc1
REMARK SMILES IDX 4 1 2 2 1 3 3 4 5 6 6 7 7 8 11 9 8 10 10 11 9 12
REMARK H PARENT 3 5
REMARK Flexibility Score: inf
ROOT
ATOM      1  C   UNL     1       5.013   1.789   0.699  1.00  0.00     0.127 C 
ENDROOT
BRANCH   1   2
ATOM      2  C   UNL     1       4.500   1.110   1.912  1.00  0.00     0.303 C 
ATOM      3  O   UNL     1       5.162   0.208   2.482  1.00  0.00    -0.252 OA
BRANCH   2   4
ATOM      4  O   UNL     1       3.271   1.453   2.451  1.00  0.00    -0.481 OA
ATOM      5  H   UNL     1       2.744   2.231   2.044  1.00  0.00     0.296 HD
ENDBRANCH   2   4
ENDBRANCH   1   2
BRANCH   1   6
ATOM      6  C   UNL     1       6.511   1.763   0.742  1.00  0.00     0.047 C 
BRANCH   6   7
ATOM      7  C   UNL     1       7.124   1.013  -0.353  1.00  0.00    -0.047 A 
ATOM      8  C   UNL     1       6.383   0.130  -1.102  1.00  0.00     0.004 A 
ATOM      9  C   UNL     1       8.458   1.202  -0.630  1.00  0.00     0.004 A 
ATOM     10  C   UNL     1       7.034  -0.551  -2.134  1.00  0.00     0.000 A 
ATOM     11  C   UNL     1       9.101   0.528  -1.650  1.00  0.00     0.000 A 
ATOM     12  C   UNL     1       8.365  -0.359  -2.405  1.00  0.00     0.000 A 
ENDBRANCH   6   7
ENDBRANCH   1   6
TORSDOF 4
ENDMDL
MODEL 4
REMARK VINA RESULT:      -6.7      3.819      4.986
REMARK SMILES O=C(O)CCc1ccccc1
REMARK SMILES IDX 4 1 2 2 1 3 3 4 5 6 6 7 7 8 11 9 8 10 10 11 9 12
REMARK H PARENT 3 5
REMARK Flexibility Score: inf
ROOT
ATOM      1  C   UNL     1       5.445   2.896  -0.013  1.00  0.00     0.127 C 
ENDROOT
BRANCH   1   2
ATOM      2  C   UNL     1       6.251   3.845   0.792  1.00  0.00     0.303 C 
ATOM      3  O   UNL     1       6.931   4.748   0.245  1.00  0.00    -0.252 OA
BRANCH   2   4
ATOM      4  O   UNL     1       6.275   3.761   2.175  1.00  0.00    -0.481 OA
ATOM      5  H   UNL     1       6.759   2.977   2.620  1.00  0.00     0.296 HD
ENDBRANCH   2   4
ENDBRANCH   1   2
BRANCH   1   6
ATOM      6  C   UNL     1       4.918   1.833   0.902  1.00  0.00     0.047 C 
BRANCH   6   7
ATOM      7  C   UNL     1       5.720   0.611   0.917  1.00  0.00    -0.047 A 
ATOM      8  C   UNL     1       6.412   0.210  -0.202  1.00  0.00     0.004 A 
ATOM      9  C   UNL     1       5.780  -0.139   2.069  1.00  0.00     0.004 A 
ATOM     10  C   UNL     1       7.158  -0.968  -0.115  1.00  0.00     0.000 A 
ATOM     11  C   UNL     1       6.518  -1.303   2.153  1.00  0.00     0.000 A 
ATOM     12  C   UNL     1       7.213  -1.712   1.036  1.00  0.00     0.000 A 
ENDBRANCH   6   7
ENDBRANCH   1   6
TORSDOF 4
ENDMDL
MODEL 5
REMARK VINA RESULT:      -6.7      1.928      2.299
REMARK SMILES O=C(O)CCc1ccccc1
REMARK SMILES IDX 4 1 2 2 1 3 3 4 5 6 6 7 7 8 11 9 8 10 10 11 9 12
REMARK H PARENT 3 5
REMARK Flexibility Score: inf
ROOT
ATOM      1  C   UNL     1       8.253   0.307  -2.158  1.00  0.00     0.127 C 
ENDROOT
BRANCH   1   2
ATOM      2  C   UNL     1       9.376   0.361  -1.194  1.00  0.00     0.303 C 
ATOM      3  O   UNL     1       9.437  -0.429  -0.220  1.00  0.00    -0.252 OA
BRANCH   2   4
ATOM      4  O   UNL     1      10.394   1.290  -1.341  1.00  0.00    -0.481 OA
ATOM      5  H   UNL     1      10.493   2.039  -0.651  1.00  0.00     0.296 HD
ENDBRANCH   2   4
ENDBRANCH   1   2
BRANCH   1   6
ATOM      6  C   UNL     1       7.131  -0.463  -1.531  1.00  0.00     0.047 C 
BRANCH   6   7
ATOM      7  C   UNL     1       6.339   0.310  -0.577  1.00  0.00    -0.047 A 
ATOM      8  C   UNL     1       6.132  -0.152   0.702  1.00  0.00     0.004 A 
ATOM      9  C   UNL     1       5.800   1.513  -0.970  1.00  0.00     0.004 A 
ATOM     10  C   UNL     1       5.366   0.640   1.561  1.00  0.00     0.000 A 
ATOM     11  C   UNL     1       5.043   2.294  -0.120  1.00  0.00     0.000 A 
ATOM     12  C   UNL     1       4.830   1.839   1.163  1.00  0.00     0.000 A 
ENDBRANCH   6   7
ENDBRANCH   1   6
TORSDOF 4
ENDMDL
