@<TRIPOS>MOLECULE
/home/cewinharhar/GITHUB/reincatalyze/data/processed/docking_pred/2023-Apr-26-1657_maxeplen10_maxtrainstep1000_exh32_gamma099_lrac9e-4_lrcr1e-3/8f7c925e970cb887b69f6e81c5db99fda922d0ae_ligand_2.pdbqt
 12 12 0 0 0
SMALL
GASTEIGER

@<TRIPOS>ATOM
      1  C          8.2530    0.3070   -2.1580 C.3     1  UNL1        0.1270
      2  C          9.3760    0.3610   -1.1940 C.2     1  UNL1        0.3030
      3  O          9.4370   -0.4290   -0.2200 O.2     1  UNL1       -0.2520
      4  O         10.3940    1.2900   -1.3410 O.3     1  UNL1       -0.4810
      5  H         10.4930    2.0390   -0.6510 H       1  UNL1        0.2960
      6  C          7.1310   -0.4630   -1.5310 C.3     1  UNL1        0.0470
      7  C          6.3390    0.3100   -0.5770 C.2     1  UNL1       -0.0470
      8  C          6.1320   -0.1520    0.7020 C.2     1  UNL1        0.0040
      9  C          5.8000    1.5130   -0.9700 C.2     1  UNL1        0.0040
     10  C          5.3660    0.6400    1.5610 C.2     1  UNL1        0.0000
     11  C          5.0430    2.2940   -0.1200 C.2     1  UNL1        0.0000
     12  C          4.8300    1.8390    1.1630 C.2     1  UNL1        0.0000
@<TRIPOS>BOND
     1     1     6    1
     2     1     2    1
     3     6     7    1
     4     4     2    1
     5     4     5    1
     6     2     3    2
     7     9     7    2
     8     9    11    1
     9     7     8    1
    10    11    12    2
    11     8    10    2
    12    12    10    1
