@<TRIPOS>MOLECULE
/home/cewinharhar/GITHUB/reincatalyze/data/processed/docking_pred/2023-Apr-26-1657_maxeplen10_maxtrainstep1000_exh32_gamma099_lrac9e-4_lrcr1e-3/8f7c925e970cb887b69f6e81c5db99fda922d0ae_ligand_2.pdbqt
 12 12 0 0 0
SMALL
GASTEIGER

@<TRIPOS>ATOM
      1  C          8.4830   -0.6130   -2.1410 C.3     1  UNL1        0.1270
      2  C          8.5050   -1.8890   -2.8940 C.2     1  UNL1        0.3030
      3  O          9.5820   -2.4940   -3.1170 O.2     1  UNL1       -0.2520
      4  O          7.3330   -2.4490   -3.3760 O.3     1  UNL1       -0.4810
      5  H          7.2170   -3.4660   -3.3510 H       1  UNL1        0.2960
      6  C          7.0780   -0.0920   -2.1380 C.3     1  UNL1        0.0470
      7  C          6.5080    0.0740   -0.8020 C.2     1  UNL1       -0.0470
      8  C          6.6510   -0.9090    0.1500 C.2     1  UNL1        0.0040
      9  C          5.8230    1.2290   -0.5030 C.2     1  UNL1        0.0040
     10  C          6.0810   -0.6830    1.4050 C.2     1  UNL1        0.0000
     11  C          5.2600    1.4500    0.7390 C.2     1  UNL1        0.0000
     12  C          5.3990    0.4710    1.6980 C.2     1  UNL1        0.0000
@<TRIPOS>BOND
     1     4     5    1
     2     4     2    1
     3     3     2    2
     4     2     1    1
     5     1     6    1
     6     6     7    1
     7     7     9    2
     8     7     8    1
     9     9    11    1
    10     8    10    2
    11    11    12    2
    12    10    12    1
