@<TRIPOS>MOLECULE
/home/cewinharhar/GITHUB/reincatalyze/data/processed/docking_pred/2023-Apr-26-1657_maxeplen10_maxtrainstep1000_exh32_gamma099_lrac9e-4_lrcr1e-3/8f7e92428ebbeefdf44ae8ea1c0956f20f305f25_ligand_2.pdbqt
 12 12 0 0 0
SMALL
GASTEIGER

@<TRIPOS>ATOM
      1  C          4.9920    1.7970    0.6770 C.3     1  UNL1        0.1270
      2  C          4.4900    1.1220    1.8970 C.2     1  UNL1        0.3030
      3  O          5.1580    0.2230    2.4650 O.2     1  UNL1       -0.2520
      4  O          3.2650    1.4660    2.4460 O.3     1  UNL1       -0.4810
      5  H          2.4490    1.5560    1.8330 H       1  UNL1        0.2960
      6  C          6.4890    1.8010    0.7230 C.3     1  UNL1        0.0470
      7  C          7.1200    1.0470   -0.3580 C.2     1  UNL1       -0.0470
      8  C          6.3850    0.1760   -1.1300 C.2     1  UNL1        0.0040
      9  C          8.4630    1.2180   -0.6020 C.2     1  UNL1        0.0040
     10  C          7.0530   -0.5100   -2.1460 C.2     1  UNL1        0.0000
     11  C          9.1210    0.5380   -1.6070 C.2     1  UNL1        0.0000
     12  C          8.3930   -0.3370   -2.3840 C.2     1  UNL1        0.0000
@<TRIPOS>BOND
     1    12    10    2
     2    12    11    1
     3    10     8    1
     4    11     9    2
     5     8     7    2
     6     9     7    1
     7     7     6    1
     8     1     6    1
     9     1     2    1
    10     5     4    1
    11     2     4    1
    12     2     3    2
