@<TRIPOS>MOLECULE
/home/cewinharhar/GITHUB/reincatalyze/data/processed/docking_pred/2023-Apr-26-1657_maxeplen10_maxtrainstep1000_exh32_gamma099_lrac9e-4_lrcr1e-3/8f7e92428ebbeefdf44ae8ea1c0956f20f305f25_ligand_2.pdbqt
 12 12 0 0 0
SMALL
GASTEIGER

@<TRIPOS>ATOM
      1  C          5.4950    2.8690   -0.0390 C.3     1  UNL1        0.1270
      2  C          6.2100    3.8910    0.7610 C.2     1  UNL1        0.3030
      3  O          6.9120    4.7750    0.2090 O.2     1  UNL1       -0.2520
      4  O          6.1240    3.8980    2.1440 O.3     1  UNL1       -0.4810
      5  H          6.8030    3.3620    2.6900 H       1  UNL1        0.2960
      6  C          4.9630    1.8270    0.8970 C.3     1  UNL1        0.0470
      7  C          5.7560    0.5990    0.9320 C.2     1  UNL1       -0.0470
      8  C          6.5260    0.2280   -0.1450 C.2     1  UNL1        0.0040
      9  C          5.7270   -0.1870    2.0610 C.2     1  UNL1        0.0040
     10  C          7.2590   -0.9570   -0.0410 C.2     1  UNL1        0.0000
     11  C          6.4510   -1.3570    2.1630 C.2     1  UNL1        0.0000
     12  C          7.2250   -1.7370    1.0880 C.2     1  UNL1        0.0000
@<TRIPOS>BOND
     1     8    10    1
     2     8     7    2
     3    10    12    2
     4     1     2    1
     5     1     6    1
     6     3     2    2
     7     2     4    1
     8     6     7    1
     9     7     9    1
    10    12    11    1
    11     9    11    2
    12     4     5    1
