@<TRIPOS>MOLECULE
/home/cewinharhar/GITHUB/reincatalyze/data/processed/docking_pred/2023-Apr-26-1657_maxeplen10_maxtrainstep1000_exh32_gamma099_lrac9e-4_lrcr1e-3/8f7e92428ebbeefdf44ae8ea1c0956f20f305f25_ligand_2.pdbqt
 12 12 0 0 0
SMALL
GASTEIGER

@<TRIPOS>ATOM
      1  C          8.2430    0.2600   -2.1350 C.3     1  UNL1        0.1270
      2  C          9.3900    0.3720   -1.2030 C.2     1  UNL1        0.3030
      3  O          9.4910   -0.3800   -0.2020 O.2     1  UNL1       -0.2520
      4  O         10.3860    1.3120   -1.4120 O.3     1  UNL1       -0.4810
      5  H         11.2290    1.2870   -0.8310 H       1  UNL1        0.2960
      6  C          7.1720   -0.5470   -1.4680 C.3     1  UNL1        0.0470
      7  C          6.3710    0.2070   -0.5050 C.2     1  UNL1       -0.0470
      8  C          6.1640   -0.2730    0.7670 C.2     1  UNL1        0.0040
      9  C          5.8240    1.4110   -0.8840 C.2     1  UNL1        0.0040
     10  C          5.3900    0.5010    1.6350 C.2     1  UNL1        0.0000
     11  C          5.0580    2.1750   -0.0260 C.2     1  UNL1        0.0000
     12  C          4.8460    1.7010    1.2510 C.2     1  UNL1        0.0000
@<TRIPOS>BOND
     1     1     6    1
     2     1     2    1
     3     6     7    1
     4     4     2    1
     5     4     5    1
     6     2     3    2
     7     9     7    2
     8     9    11    1
     9     7     8    1
    10    11    12    2
    11     8    10    2
    12    12    10    1
