MODEL 1
REMARK VINA RESULT:      -7.4      0.000      0.000
REMARK SMILES O=C(O)CCc1ccccc1
REMARK SMILES IDX 4 1 2 2 1 3 3 4 5 6 6 7 7 8 11 9 8 10 10 11 9 12
REMARK H PARENT 3 5
REMARK Flexibility Score: inf
ROOT
ATOM      1  C   UNL     1       8.443  -0.639  -2.104  1.00  0.00     0.127 C 
ENDROOT
BRANCH   1   2
ATOM      2  C   UNL     1       8.467  -1.901  -2.882  1.00  0.00     0.303 C 
ATOM      3  O   UNL     1       9.539  -2.526  -3.074  1.00  0.00    -0.252 OA
BRANCH   2   4
ATOM      4  O   UNL     1       7.304  -2.425  -3.420  1.00  0.00    -0.481 OA
ATOM      5  H   UNL     1       7.353  -3.277  -3.985  1.00  0.00     0.296 HD
ENDBRANCH   2   4
ENDBRANCH   1   2
BRANCH   1   6
ATOM      6  C   UNL     1       7.037  -0.123  -2.089  1.00  0.00     0.047 C 
BRANCH   6   7
ATOM      7  C   UNL     1       6.481   0.050  -0.747  1.00  0.00    -0.047 A 
ATOM      8  C   UNL     1       5.845   1.217  -0.394  1.00  0.00     0.004 A 
ATOM      9  C   UNL     1       6.599  -0.974   0.165  1.00  0.00     0.004 A 
ATOM     10  C   UNL     1       5.338   1.312   0.904  1.00  0.00     0.000 A 
ATOM     11  C   UNL     1       6.097  -0.878   1.447  1.00  0.00     0.000 A 
ATOM     12  C   UNL     1       5.459   0.288   1.809  1.00  0.00     0.000 A 
ENDBRANCH   6   7
ENDBRANCH   1   6
TORSDOF 4
ENDMDL
MODEL 2
REMARK VINA RESULT:      -7.3      0.103      1.440
REMARK SMILES O=C(O)CCc1ccccc1
REMARK SMILES IDX 4 1 2 2 1 3 3 4 5 6 6 7 7 8 11 9 8 10 10 11 9 12
REMARK H PARENT 3 5
REMARK Flexibility Score: inf
ROOT
ATOM      1  C   UNL     1       8.439  -0.581  -2.204  1.00  0.00     0.127 C 
ENDROOT
BRANCH   1   2
ATOM      2  C   UNL     1       8.481  -1.876  -2.922  1.00  0.00     0.303 C 
ATOM      3  O   UNL     1       9.565  -2.485  -3.103  1.00  0.00    -0.252 OA
BRANCH   2   4
ATOM      4  O   UNL     1       7.322  -2.453  -3.415  1.00  0.00    -0.481 OA
ATOM      5  H   UNL     1       7.292  -2.763  -4.390  1.00  0.00     0.296 HD
ENDBRANCH   2   4
ENDBRANCH   1   2
BRANCH   1   6
ATOM      6  C   UNL     1       7.016  -0.113  -2.159  1.00  0.00     0.047 C 
BRANCH   6   7
ATOM      7  C   UNL     1       6.484   0.047  -0.807  1.00  0.00    -0.047 A 
ATOM      8  C   UNL     1       6.610  -0.960   0.122  1.00  0.00     0.004 A 
ATOM      9  C   UNL     1       5.854   1.222  -0.468  1.00  0.00     0.004 A 
ATOM     10  C   UNL     1       6.080  -0.738   1.395  1.00  0.00     0.000 A 
ATOM     11  C   UNL     1       5.330   1.439   0.791  1.00  0.00     0.000 A 
ATOM     12  C   UNL     1       5.452   0.436   1.727  1.00  0.00     0.000 A 
ENDBRANCH   6   7
ENDBRANCH   1   6
TORSDOF 4
ENDMDL
MODEL 3
REMARK VINA RESULT:      -6.8      3.374      5.077
REMARK SMILES O=C(O)CCc1ccccc1
REMARK SMILES IDX 4 1 2 2 1 3 3 4 5 6 6 7 7 8 11 9 8 10 10 11 9 12
REMARK H PARENT 3 5
REMARK Flexibility Score: inf
ROOT
ATOM      1  C   UNL     1       4.992   1.797   0.677  1.00  0.00     0.127 C 
ENDROOT
BRANCH   1   2
ATOM      2  C   UNL     1       4.490   1.122   1.897  1.00  0.00     0.303 C 
ATOM      3  O   UNL     1       5.158   0.223   2.465  1.00  0.00    -0.252 OA
BRANCH   2   4
ATOM      4  O   UNL     1       3.265   1.466   2.446  1.00  0.00    -0.481 OA
ATOM      5  H   UNL     1       2.449   1.556   1.833  1.00  0.00     0.296 HD
ENDBRANCH   2   4
ENDBRANCH   1   2
BRANCH   1   6
ATOM      6  C   UNL     1       6.489   1.801   0.723  1.00  0.00     0.047 C 
BRANCH   6   7
ATOM      7  C   UNL     1       7.120   1.047  -0.358  1.00  0.00    -0.047 A 
ATOM      8  C   UNL     1       6.385   0.176  -1.130  1.00  0.00     0.004 A 
ATOM      9  C   UNL     1       8.463   1.218  -0.602  1.00  0.00     0.004 A 
ATOM     10  C   UNL     1       7.053  -0.510  -2.146  1.00  0.00     0.000 A 
ATOM     11  C   UNL     1       9.121   0.538  -1.607  1.00  0.00     0.000 A 
ATOM     12  C   UNL     1       8.393  -0.337  -2.384  1.00  0.00     0.000 A 
ENDBRANCH   6   7
ENDBRANCH   1   6
TORSDOF 4
ENDMDL
MODEL 4
REMARK VINA RESULT:      -6.7      3.820      4.917
REMARK SMILES O=C(O)CCc1ccccc1
REMARK SMILES IDX 4 1 2 2 1 3 3 4 5 6 6 7 7 8 11 9 8 10 10 11 9 12
REMARK H PARENT 3 5
REMARK Flexibility Score: inf
ROOT
ATOM      1  C   UNL     1       5.495   2.869  -0.039  1.00  0.00     0.127 C 
ENDROOT
BRANCH   1   2
ATOM      2  C   UNL     1       6.210   3.891   0.761  1.00  0.00     0.303 C 
ATOM      3  O   UNL     1       6.912   4.775   0.209  1.00  0.00    -0.252 OA
BRANCH   2   4
ATOM      4  O   UNL     1       6.124   3.898   2.144  1.00  0.00    -0.481 OA
ATOM      5  H   UNL     1       6.803   3.362   2.690  1.00  0.00     0.296 HD
ENDBRANCH   2   4
ENDBRANCH   1   2
BRANCH   1   6
ATOM      6  C   UNL     1       4.963   1.827   0.897  1.00  0.00     0.047 C 
BRANCH   6   7
ATOM      7  C   UNL     1       5.756   0.599   0.932  1.00  0.00    -0.047 A 
ATOM      8  C   UNL     1       6.526   0.228  -0.145  1.00  0.00     0.004 A 
ATOM      9  C   UNL     1       5.727  -0.187   2.061  1.00  0.00     0.004 A 
ATOM     10  C   UNL     1       7.259  -0.957  -0.041  1.00  0.00     0.000 A 
ATOM     11  C   UNL     1       6.451  -1.357   2.163  1.00  0.00     0.000 A 
ATOM     12  C   UNL     1       7.225  -1.737   1.088  1.00  0.00     0.000 A 
ENDBRANCH   6   7
ENDBRANCH   1   6
TORSDOF 4
ENDMDL
MODEL 5
REMARK VINA RESULT:      -6.7      1.948      2.667
REMARK SMILES O=C(O)CCc1ccccc1
REMARK SMILES IDX 4 1 2 2 1 3 3 4 5 6 6 7 7 8 11 9 8 10 10 11 9 12
REMARK H PARENT 3 5
REMARK Flexibility Score: inf
ROOT
ATOM      1  C   UNL     1       8.243   0.260  -2.135  1.00  0.00     0.127 C 
ENDROOT
BRANCH   1   2
ATOM      2  C   UNL     1       9.390   0.372  -1.203  1.00  0.00     0.303 C 
ATOM      3  O   UNL     1       9.491  -0.380  -0.202  1.00  0.00    -0.252 OA
BRANCH   2   4
ATOM      4  O   UNL     1      10.386   1.312  -1.412  1.00  0.00    -0.481 OA
ATOM      5  H   UNL     1      11.229   1.287  -0.831  1.00  0.00     0.296 HD
ENDBRANCH   2   4
ENDBRANCH   1   2
BRANCH   1   6
ATOM      6  C   UNL     1       7.172  -0.547  -1.468  1.00  0.00     0.047 C 
BRANCH   6   7
ATOM      7  C   UNL     1       6.371   0.207  -0.505  1.00  0.00    -0.047 A 
ATOM      8  C   UNL     1       6.164  -0.273   0.767  1.00  0.00     0.004 A 
ATOM      9  C   UNL     1       5.824   1.411  -0.884  1.00  0.00     0.004 A 
ATOM     10  C   UNL     1       5.390   0.501   1.635  1.00  0.00     0.000 A 
ATOM     11  C   UNL     1       5.058   2.175  -0.026  1.00  0.00     0.000 A 
ATOM     12  C   UNL     1       4.846   1.701   1.251  1.00  0.00     0.000 A 
ENDBRANCH   6   7
ENDBRANCH   1   6
TORSDOF 4
ENDMDL
