@<TRIPOS>MOLECULE
/home/cewinharhar/GITHUB/reincatalyze/data/processed/docking_pred/2023-Apr-26-1657_maxeplen10_maxtrainstep1000_exh32_gamma099_lrac9e-4_lrcr1e-3/8f7e92428ebbeefdf44ae8ea1c0956f20f305f25_ligand_2.pdbqt
 12 12 0 0 0
SMALL
GASTEIGER

@<TRIPOS>ATOM
      1  C          8.4390   -0.5810   -2.2040 C.3     1  UNL1        0.1270
      2  C          8.4810   -1.8760   -2.9220 C.2     1  UNL1        0.3030
      3  O          9.5650   -2.4850   -3.1030 O.2     1  UNL1       -0.2520
      4  O          7.3220   -2.4530   -3.4150 O.3     1  UNL1       -0.4810
      5  H          7.2920   -2.7630   -4.3900 H       1  UNL1        0.2960
      6  C          7.0160   -0.1130   -2.1590 C.3     1  UNL1        0.0470
      7  C          6.4840    0.0470   -0.8070 C.2     1  UNL1       -0.0470
      8  C          6.6100   -0.9600    0.1220 C.2     1  UNL1        0.0040
      9  C          5.8540    1.2220   -0.4680 C.2     1  UNL1        0.0040
     10  C          6.0800   -0.7380    1.3950 C.2     1  UNL1        0.0000
     11  C          5.3300    1.4390    0.7910 C.2     1  UNL1        0.0000
     12  C          5.4520    0.4360    1.7270 C.2     1  UNL1        0.0000
@<TRIPOS>BOND
     1     5     4    1
     2     4     2    1
     3     3     2    2
     4     2     1    1
     5     1     6    1
     6     6     7    1
     7     7     9    2
     8     7     8    1
     9     9    11    1
    10     8    10    2
    11    11    12    2
    12    10    12    1
