@<TRIPOS>MOLECULE
/home/cewinharhar/GITHUB/reincatalyze/data/processed/docking_pred/2023-Apr-26-1657_maxeplen10_maxtrainstep1000_exh32_gamma099_lrac9e-4_lrcr1e-3/8f7e92428ebbeefdf44ae8ea1c0956f20f305f25_ligand_2.pdbqt
 12 12 0 0 0
SMALL
GASTEIGER

@<TRIPOS>ATOM
      1  C          8.4430   -0.6390   -2.1040 C.3     1  UNL1        0.1270
      2  C          8.4670   -1.9010   -2.8820 C.2     1  UNL1        0.3030
      3  O          9.5390   -2.5260   -3.0740 O.2     1  UNL1       -0.2520
      4  O          7.3040   -2.4250   -3.4200 O.3     1  UNL1       -0.4810
      5  H          7.3530   -3.2770   -3.9850 H       1  UNL1        0.2960
      6  C          7.0370   -0.1230   -2.0890 C.3     1  UNL1        0.0470
      7  C          6.4810    0.0500   -0.7470 C.2     1  UNL1       -0.0470
      8  C          5.8450    1.2170   -0.3940 C.2     1  UNL1        0.0040
      9  C          6.5990   -0.9740    0.1650 C.2     1  UNL1        0.0040
     10  C          5.3380    1.3120    0.9040 C.2     1  UNL1        0.0000
     11  C          6.0970   -0.8780    1.4470 C.2     1  UNL1        0.0000
     12  C          5.4590    0.2880    1.8090 C.2     1  UNL1        0.0000
@<TRIPOS>BOND
     1     5     4    1
     2     4     2    1
     3     3     2    2
     4     2     1    1
     5     1     6    1
     6     6     7    1
     7     7     8    2
     8     7     9    1
     9     8    10    1
    10     9    11    2
    11    10    12    2
    12    11    12    1
