@<TRIPOS>MOLECULE
/home/cewinharhar/GITHUB/reincatalyze/data/processed/docking_pred/2023-Apr-26-1657_maxeplen10_maxtrainstep1000_exh32_gamma099_lrac9e-4_lrcr1e-3/91438d65c636cbfd2c8442c68b92b155f88758ee_ligand_2.pdbqt
 12 12 0 0 0
SMALL
GASTEIGER

@<TRIPOS>ATOM
      1  C          5.0340    1.7180    0.6760 C.3     1  UNL1        0.1270
      2  C          4.6010    1.0360    1.9180 C.2     1  UNL1        0.3030
      3  O          5.3360    0.1900    2.4860 O.2     1  UNL1       -0.2520
      4  O          3.3690    1.3120    2.4880 O.3     1  UNL1       -0.4810
      5  H          3.3170    1.9550    3.2830 H       1  UNL1        0.2960
      6  C          6.5300    1.8040    0.6830 C.3     1  UNL1        0.0470
      7  C          7.1740    1.0380   -0.3830 C.2     1  UNL1       -0.0470
      8  C          8.5130    1.2000   -0.6550 C.2     1  UNL1        0.0040
      9  C          6.4250    0.1470   -1.1170 C.2     1  UNL1        0.0040
     10  C          9.0620    0.4350   -1.6860 C.2     1  UNL1        0.0000
     11  C          6.9690   -0.6080   -2.1360 C.2     1  UNL1        0.0000
     12  C          8.3100   -0.4520   -2.4150 C.2     1  UNL1        0.0000
@<TRIPOS>BOND
     1    12    11    2
     2    12    10    1
     3    11     9    1
     4    10     8    2
     5     9     7    2
     6     8     7    1
     7     7     6    1
     8     1     6    1
     9     1     2    1
    10     2     3    2
    11     2     4    1
    12     4     5    1
