@<TRIPOS>MOLECULE
/home/cewinharhar/GITHUB/reincatalyze/data/processed/docking_pred/2023-Apr-26-1657_maxeplen10_maxtrainstep1000_exh32_gamma099_lrac9e-4_lrcr1e-3/91438d65c636cbfd2c8442c68b92b155f88758ee_ligand_2.pdbqt
 12 12 0 0 0
SMALL
GASTEIGER

@<TRIPOS>ATOM
      1  C          8.4350   -0.5880   -2.1850 C.3     1  UNL1        0.1270
      2  C          8.4860   -1.8750   -2.9180 C.2     1  UNL1        0.3030
      3  O          9.5740   -2.4690   -3.1150 O.2     1  UNL1       -0.2520
      4  O          7.3290   -2.4590   -3.4080 O.3     1  UNL1       -0.4810
      5  H          7.3820   -3.3800   -3.8520 H       1  UNL1        0.2960
      6  C          7.0100   -0.1250   -2.1450 C.3     1  UNL1        0.0470
      7  C          6.4780    0.0460   -0.7940 C.2     1  UNL1       -0.0470
      8  C          5.8390    1.2090   -0.4320 C.2     1  UNL1        0.0040
      9  C          6.6210   -0.9740    0.1180 C.2     1  UNL1        0.0040
     10  C          5.3550    1.3020    0.8750 C.2     1  UNL1        0.0000
     11  C          6.1430   -0.8800    1.4090 C.2     1  UNL1        0.0000
     12  C          5.5020    0.2820    1.7810 C.2     1  UNL1        0.0000
@<TRIPOS>BOND
     1     5     4    1
     2     4     2    1
     3     3     2    2
     4     2     1    1
     5     1     6    1
     6     6     7    1
     7     7     8    2
     8     7     9    1
     9     8    10    1
    10     9    11    2
    11    10    12    2
    12    11    12    1
