MODEL 1
REMARK VINA RESULT:      -7.3      0.000      0.000
REMARK SMILES O=C(O)CCc1ccccc1
REMARK SMILES IDX 4 1 2 2 1 3 3 4 5 6 6 7 7 8 11 9 8 10 10 11 9 12
REMARK H PARENT 3 5
REMARK Flexibility Score: inf
ROOT
ATOM      1  C   UNL     1       8.435  -0.588  -2.185  1.00  0.00     0.127 C 
ENDROOT
BRANCH   1   2
ATOM      2  C   UNL     1       8.486  -1.875  -2.918  1.00  0.00     0.303 C 
ATOM      3  O   UNL     1       9.574  -2.469  -3.115  1.00  0.00    -0.252 OA
BRANCH   2   4
ATOM      4  O   UNL     1       7.329  -2.459  -3.408  1.00  0.00    -0.481 OA
ATOM      5  H   UNL     1       7.382  -3.380  -3.852  1.00  0.00     0.296 HD
ENDBRANCH   2   4
ENDBRANCH   1   2
BRANCH   1   6
ATOM      6  C   UNL     1       7.010  -0.125  -2.145  1.00  0.00     0.047 C 
BRANCH   6   7
ATOM      7  C   UNL     1       6.478   0.046  -0.794  1.00  0.00    -0.047 A 
ATOM      8  C   UNL     1       5.839   1.209  -0.432  1.00  0.00     0.004 A 
ATOM      9  C   UNL     1       6.621  -0.974   0.118  1.00  0.00     0.004 A 
ATOM     10  C   UNL     1       5.355   1.302   0.875  1.00  0.00     0.000 A 
ATOM     11  C   UNL     1       6.143  -0.880   1.409  1.00  0.00     0.000 A 
ATOM     12  C   UNL     1       5.502   0.282   1.781  1.00  0.00     0.000 A 
ENDBRANCH   6   7
ENDBRANCH   1   6
TORSDOF 4
ENDMDL
MODEL 2
REMARK VINA RESULT:      -7.3      0.190      1.737
REMARK SMILES O=C(O)CCc1ccccc1
REMARK SMILES IDX 4 1 2 2 1 3 3 4 5 6 6 7 7 8 11 9 8 10 10 11 9 12
REMARK H PARENT 3 5
REMARK Flexibility Score: inf
ROOT
ATOM      1  C   UNL     1       8.431  -0.670  -2.063  1.00  0.00     0.127 C 
ENDROOT
BRANCH   1   2
ATOM      2  C   UNL     1       8.384  -1.907  -2.878  1.00  0.00     0.303 C 
ATOM      3  O   UNL     1       7.289  -2.409  -3.235  1.00  0.00    -0.252 OA
BRANCH   2   4
ATOM      4  O   UNL     1       9.550  -2.544  -3.270  1.00  0.00    -0.481 OA
ATOM      5  H   UNL     1       9.648  -3.551  -3.112  1.00  0.00     0.296 HD
ENDBRANCH   2   4
ENDBRANCH   1   2
BRANCH   1   6
ATOM      6  C   UNL     1       7.070  -0.044  -2.077  1.00  0.00     0.047 C 
BRANCH   6   7
ATOM      7  C   UNL     1       6.479   0.124  -0.751  1.00  0.00    -0.047 A 
ATOM      8  C   UNL     1       6.602  -0.859   0.203  1.00  0.00     0.004 A 
ATOM      9  C   UNL     1       5.795   1.282  -0.462  1.00  0.00     0.004 A 
ATOM     10  C   UNL     1       6.012  -0.631   1.449  1.00  0.00     0.000 A 
ATOM     11  C   UNL     1       5.212   1.506   0.769  1.00  0.00     0.000 A 
ATOM     12  C   UNL     1       5.330   0.526   1.731  1.00  0.00     0.000 A 
ENDBRANCH   6   7
ENDBRANCH   1   6
TORSDOF 4
ENDMDL
MODEL 3
REMARK VINA RESULT:      -6.7      3.344      5.019
REMARK SMILES O=C(O)CCc1ccccc1
REMARK SMILES IDX 4 1 2 2 1 3 3 4 5 6 6 7 7 8 11 9 8 10 10 11 9 12
REMARK H PARENT 3 5
REMARK Flexibility Score: inf
ROOT
ATOM      1  C   UNL     1       5.034   1.718   0.676  1.00  0.00     0.127 C 
ENDROOT
BRANCH   1   2
ATOM      2  C   UNL     1       4.601   1.036   1.918  1.00  0.00     0.303 C 
ATOM      3  O   UNL     1       5.336   0.190   2.486  1.00  0.00    -0.252 OA
BRANCH   2   4
ATOM      4  O   UNL     1       3.369   1.312   2.488  1.00  0.00    -0.481 OA
ATOM      5  H   UNL     1       3.317   1.955   3.283  1.00  0.00     0.296 HD
ENDBRANCH   2   4
ENDBRANCH   1   2
BRANCH   1   6
ATOM      6  C   UNL     1       6.530   1.804   0.683  1.00  0.00     0.047 C 
BRANCH   6   7
ATOM      7  C   UNL     1       7.174   1.038  -0.383  1.00  0.00    -0.047 A 
ATOM      8  C   UNL     1       8.513   1.200  -0.655  1.00  0.00     0.004 A 
ATOM      9  C   UNL     1       6.425   0.147  -1.117  1.00  0.00     0.004 A 
ATOM     10  C   UNL     1       9.062   0.435  -1.686  1.00  0.00     0.000 A 
ATOM     11  C   UNL     1       6.969  -0.608  -2.136  1.00  0.00     0.000 A 
ATOM     12  C   UNL     1       8.310  -0.452  -2.415  1.00  0.00     0.000 A 
ENDBRANCH   6   7
ENDBRANCH   1   6
TORSDOF 4
ENDMDL
MODEL 4
REMARK VINA RESULT:      -6.7      3.822      4.974
REMARK SMILES O=C(O)CCc1ccccc1
REMARK SMILES IDX 4 1 2 2 1 3 3 4 5 6 6 7 7 8 11 9 8 10 10 11 9 12
REMARK H PARENT 3 5
REMARK Flexibility Score: inf
ROOT
ATOM      1  C   UNL     1       5.485   2.879  -0.009  1.00  0.00     0.127 C 
ENDROOT
BRANCH   1   2
ATOM      2  C   UNL     1       6.246   3.866   0.793  1.00  0.00     0.303 C 
ATOM      3  O   UNL     1       6.915   4.775   0.243  1.00  0.00    -0.252 OA
BRANCH   2   4
ATOM      4  O   UNL     1       6.239   3.812   2.178  1.00  0.00    -0.481 OA
ATOM      5  H   UNL     1       6.945   3.250   2.661  1.00  0.00     0.296 HD
ENDBRANCH   2   4
ENDBRANCH   1   2
BRANCH   1   6
ATOM      6  C   UNL     1       4.938   1.839   0.921  1.00  0.00     0.047 C 
BRANCH   6   7
ATOM      7  C   UNL     1       5.724   0.607   0.964  1.00  0.00    -0.047 A 
ATOM      8  C   UNL     1       5.778  -0.153   2.110  1.00  0.00     0.004 A 
ATOM      9  C   UNL     1       6.413   0.211  -0.158  1.00  0.00     0.004 A 
ATOM     10  C   UNL     1       6.548  -1.318   2.079  1.00  0.00     0.000 A 
ATOM     11  C   UNL     1       7.175  -0.941  -0.187  1.00  0.00     0.000 A 
ATOM     12  C   UNL     1       7.234  -1.708   0.956  1.00  0.00     0.000 A 
ENDBRANCH   6   7
ENDBRANCH   1   6
TORSDOF 4
ENDMDL
MODEL 5
REMARK VINA RESULT:      -6.6      1.953      2.254
REMARK SMILES O=C(O)CCc1ccccc1
REMARK SMILES IDX 4 1 2 2 1 3 3 4 5 6 6 7 7 8 11 9 8 10 10 11 9 12
REMARK H PARENT 3 5
REMARK Flexibility Score: inf
ROOT
ATOM      1  C   UNL     1       8.171   0.267  -2.064  1.00  0.00     0.127 C 
ENDROOT
BRANCH   1   2
ATOM      2  C   UNL     1       9.362   0.364  -1.188  1.00  0.00     0.303 C 
ATOM      3  O   UNL     1       9.494  -0.379  -0.184  1.00  0.00    -0.252 OA
BRANCH   2   4
ATOM      4  O   UNL     1      10.367   1.280  -1.454  1.00  0.00    -0.481 OA
ATOM      5  H   UNL     1      10.306   2.221  -1.054  1.00  0.00     0.296 HD
ENDBRANCH   2   4
ENDBRANCH   1   2
BRANCH   1   6
ATOM      6  C   UNL     1       7.151  -0.591  -1.379  1.00  0.00     0.047 C 
BRANCH   6   7
ATOM      7  C   UNL     1       6.358   0.116  -0.375  1.00  0.00    -0.047 A 
ATOM      8  C   UNL     1       5.819   1.352  -0.647  1.00  0.00     0.004 A 
ATOM      9  C   UNL     1       6.151  -0.471   0.852  1.00  0.00     0.004 A 
ATOM     10  C   UNL     1       5.071   1.968   0.359  1.00  0.00     0.000 A 
ATOM     11  C   UNL     1       5.412   0.140   1.845  1.00  0.00     0.000 A 
ATOM     12  C   UNL     1       4.869   1.378   1.581  1.00  0.00     0.000 A 
ENDBRANCH   6   7
ENDBRANCH   1   6
TORSDOF 4
ENDMDL
