@<TRIPOS>MOLECULE
/home/cewinharhar/GITHUB/reincatalyze/data/processed/docking_pred/2023-Apr-26-1657_maxeplen10_maxtrainstep1000_exh32_gamma099_lrac9e-4_lrcr1e-3/91438d65c636cbfd2c8442c68b92b155f88758ee_ligand_2.pdbqt
 12 12 0 0 0
SMALL
GASTEIGER

@<TRIPOS>ATOM
      1  C          8.1710    0.2670   -2.0640 C.3     1  UNL1        0.1270
      2  C          9.3620    0.3640   -1.1880 C.2     1  UNL1        0.3030
      3  O          9.4940   -0.3790   -0.1840 O.2     1  UNL1       -0.2520
      4  O         10.3670    1.2800   -1.4540 O.3     1  UNL1       -0.4810
      5  H         10.3060    2.2210   -1.0540 H       1  UNL1        0.2960
      6  C          7.1510   -0.5910   -1.3790 C.3     1  UNL1        0.0470
      7  C          6.3580    0.1160   -0.3750 C.2     1  UNL1       -0.0470
      8  C          5.8190    1.3520   -0.6470 C.2     1  UNL1        0.0040
      9  C          6.1510   -0.4710    0.8520 C.2     1  UNL1        0.0040
     10  C          5.0710    1.9680    0.3590 C.2     1  UNL1        0.0000
     11  C          5.4120    0.1400    1.8450 C.2     1  UNL1        0.0000
     12  C          4.8690    1.3780    1.5810 C.2     1  UNL1        0.0000
@<TRIPOS>BOND
     1     1     6    1
     2     1     2    1
     3     4     2    1
     4     4     5    1
     5     6     7    1
     6     2     3    2
     7     8     7    2
     8     8    10    1
     9     7     9    1
    10    10    12    2
    11     9    11    2
    12    12    11    1
