@<TRIPOS>MOLECULE
/home/cewinharhar/GITHUB/reincatalyze/data/processed/docking_pred/2023-Apr-26-1657_maxeplen10_maxtrainstep1000_exh32_gamma099_lrac9e-4_lrcr1e-3/91438d65c636cbfd2c8442c68b92b155f88758ee_ligand_2.pdbqt
 12 12 0 0 0
SMALL
GASTEIGER

@<TRIPOS>ATOM
      1  C          5.4850    2.8790   -0.0090 C.3     1  UNL1        0.1270
      2  C          6.2460    3.8660    0.7930 C.2     1  UNL1        0.3030
      3  O          6.9150    4.7750    0.2430 O.2     1  UNL1       -0.2520
      4  O          6.2390    3.8120    2.1780 O.3     1  UNL1       -0.4810
      5  H          6.9450    3.2500    2.6610 H       1  UNL1        0.2960
      6  C          4.9380    1.8390    0.9210 C.3     1  UNL1        0.0470
      7  C          5.7240    0.6070    0.9640 C.2     1  UNL1       -0.0470
      8  C          5.7780   -0.1530    2.1100 C.2     1  UNL1        0.0040
      9  C          6.4130    0.2110   -0.1580 C.2     1  UNL1        0.0040
     10  C          6.5480   -1.3180    2.0790 C.2     1  UNL1        0.0000
     11  C          7.1750   -0.9410   -0.1870 C.2     1  UNL1        0.0000
     12  C          7.2340   -1.7080    0.9560 C.2     1  UNL1        0.0000
@<TRIPOS>BOND
     1    11     9    1
     2    11    12    2
     3     9     7    2
     4     1     2    1
     5     1     6    1
     6     3     2    2
     7     2     4    1
     8     6     7    1
     9    12    10    1
    10     7     8    1
    11    10     8    2
    12     4     5    1
