@<TRIPOS>MOLECULE
/home/cewinharhar/GITHUB/reincatalyze/data/processed/docking_pred/2023-Apr-26-1657_maxeplen10_maxtrainstep1000_exh32_gamma099_lrac9e-4_lrcr1e-3/91438d65c636cbfd2c8442c68b92b155f88758ee_ligand_2.pdbqt
 12 12 0 0 0
SMALL
GASTEIGER

@<TRIPOS>ATOM
      1  C          8.4310   -0.6700   -2.0630 C.3     1  UNL1        0.1270
      2  C          8.3840   -1.9070   -2.8780 C.2     1  UNL1        0.3030
      3  O          7.2890   -2.4090   -3.2350 O.2     1  UNL1       -0.2520
      4  O          9.5500   -2.5440   -3.2700 O.3     1  UNL1       -0.4810
      5  H          9.6480   -3.5510   -3.1120 H       1  UNL1        0.2960
      6  C          7.0700   -0.0440   -2.0770 C.3     1  UNL1        0.0470
      7  C          6.4790    0.1240   -0.7510 C.2     1  UNL1       -0.0470
      8  C          6.6020   -0.8590    0.2030 C.2     1  UNL1        0.0040
      9  C          5.7950    1.2820   -0.4620 C.2     1  UNL1        0.0040
     10  C          6.0120   -0.6310    1.4490 C.2     1  UNL1        0.0000
     11  C          5.2120    1.5060    0.7690 C.2     1  UNL1        0.0000
     12  C          5.3300    0.5260    1.7310 C.2     1  UNL1        0.0000
@<TRIPOS>BOND
     1     4     5    1
     2     4     2    1
     3     3     2    2
     4     2     1    1
     5     6     1    1
     6     6     7    1
     7     7     9    2
     8     7     8    1
     9     9    11    1
    10     8    10    2
    11    11    12    2
    12    10    12    1
