@<TRIPOS>MOLECULE
/home/cewinharhar/GITHUB/reincatalyze/data/processed/docking_pred/2023-Apr-26-1657_maxeplen10_maxtrainstep1000_exh32_gamma099_lrac9e-4_lrcr1e-3/9282b18981f6708324b0af4486d36de930a99903_ligand_2.pdbqt
 12 12 0 0 0
SMALL
GASTEIGER

@<TRIPOS>ATOM
      1  C          6.3430   -0.5750    2.7750 C.3     1  UNL1        0.1270
      2  C          7.1210   -1.4970    1.9140 C.2     1  UNL1        0.3030
      3  O          8.2820   -1.2070    1.5330 O.2     1  UNL1       -0.2520
      4  O          6.5850   -2.7070    1.5040 O.3     1  UNL1       -0.4810
      5  H          7.2120   -3.4470    1.1770 H       1  UNL1        0.2960
      6  C          5.2280    0.0040    1.9580 C.3     1  UNL1        0.0470
      7  C          5.5410    1.3010    1.3590 C.2     1  UNL1       -0.0470
      8  C          6.5150    2.1080    1.8990 C.2     1  UNL1        0.0040
      9  C          4.8500    1.7080    0.2420 C.2     1  UNL1        0.0040
     10  C          6.7610    3.3330    1.2750 C.2     1  UNL1        0.0000
     11  C          5.0950    2.9190   -0.3740 C.2     1  UNL1        0.0000
     12  C          6.0680    3.7350    0.1610 C.2     1  UNL1        0.0000
@<TRIPOS>BOND
     1    11    12    2
     2    11     9    1
     3    12    10    1
     4     9     7    2
     5     5     4    1
     6    10     8    2
     7     7     8    1
     8     7     6    1
     9     4     2    1
    10     3     2    2
    11     2     1    1
    12     6     1    1
