@<TRIPOS>MOLECULE
/home/cewinharhar/GITHUB/reincatalyze/data/processed/docking_pred/2023-Apr-26-1657_maxeplen10_maxtrainstep1000_exh32_gamma099_lrac9e-4_lrcr1e-3/9282b18981f6708324b0af4486d36de930a99903_ligand_2.pdbqt
 12 12 0 0 0
SMALL
GASTEIGER

@<TRIPOS>ATOM
      1  C          8.0550   -5.3770   12.3010 C.3     1  UNL1        0.1270
      2  C          7.7970   -4.1620   11.4920 C.2     1  UNL1        0.3030
      3  O          7.7170   -4.2190   10.2400 O.2     1  UNL1       -0.2520
      4  O          7.6360   -2.9260   12.0980 O.3     1  UNL1       -0.4810
      5  H          7.2970   -2.1360   11.5430 H       1  UNL1        0.2960
      6  C          7.7700   -6.5770   11.4510 C.3     1  UNL1        0.0470
      7  C          8.8350   -7.5790   11.4610 C.2     1  UNL1       -0.0470
      8  C          8.7770   -8.6590   12.3110 C.2     1  UNL1        0.0040
      9  C          9.9020   -7.4330   10.6050 C.2     1  UNL1        0.0040
     10  C          9.8290   -9.5770   12.2660 C.2     1  UNL1        0.0000
     11  C         10.9410   -8.3410   10.5620 C.2     1  UNL1        0.0000
     12  C         10.8910   -9.4250   11.4110 C.2     1  UNL1        0.0000
@<TRIPOS>BOND
     1     3     2    2
     2    11     9    1
     3    11    12    2
     4     9     7    2
     5    12    10    1
     6     6     7    1
     7     6     1    1
     8     7     8    1
     9     2     4    1
    10     2     1    1
    11     5     4    1
    12    10     8    2
