@<TRIPOS>MOLECULE
/home/cewinharhar/GITHUB/reincatalyze/data/processed/docking_pred/2023-Apr-26-1657_maxeplen10_maxtrainstep1000_exh32_gamma099_lrac9e-4_lrcr1e-3/9282b18981f6708324b0af4486d36de930a99903_ligand_2.pdbqt
 12 12 0 0 0
SMALL
GASTEIGER

@<TRIPOS>ATOM
      1  C          6.4580   -0.5290    2.7380 C.3     1  UNL1        0.1270
      2  C          7.1740   -1.5180    1.8980 C.2     1  UNL1        0.3030
      3  O          8.3460   -1.3080    1.5010 O.2     1  UNL1       -0.2520
      4  O          6.5650   -2.7070    1.5270 O.3     1  UNL1       -0.4810
      5  H          7.0210   -3.5950    1.7540 H       1  UNL1        0.2960
      6  C          5.3000    0.0060    1.9520 C.3     1  UNL1        0.0470
      7  C          5.5500    1.3080    1.3350 C.2     1  UNL1       -0.0470
      8  C          4.8500    1.7040    0.2190 C.2     1  UNL1        0.0040
      9  C          6.4960    2.1410    1.8870 C.2     1  UNL1        0.0040
     10  C          5.1400    2.9610   -0.3160 C.2     1  UNL1        0.0000
     11  C          6.7820    3.3830    1.3560 C.2     1  UNL1        0.0000
     12  C          6.0860    3.7870    0.2380 C.2     1  UNL1        0.0000
@<TRIPOS>BOND
     1    10     8    1
     2    10    12    2
     3     8     7    2
     4    12    11    1
     5     7     9    1
     6     7     6    1
     7    11     9    2
     8     3     2    2
     9     4     5    1
    10     4     2    1
    11     2     1    1
    12     6     1    1
