MODEL 1
REMARK VINA RESULT:      -5.5      0.000      0.000
REMARK SMILES O=C(O)CCc1ccccc1
REMARK SMILES IDX 4 1 2 2 1 3 3 4 5 6 6 7 7 8 11 9 8 10 10 11 9 12
REMARK H PARENT 3 5
REMARK Flexibility Score: inf
ROOT
ATOM      1  C   UNL     1       6.458  -0.529   2.738  1.00  0.00     0.127 C 
ENDROOT
BRANCH   1   2
ATOM      2  C   UNL     1       7.174  -1.518   1.898  1.00  0.00     0.303 C 
ATOM      3  O   UNL     1       8.346  -1.308   1.501  1.00  0.00    -0.252 OA
BRANCH   2   4
ATOM      4  O   UNL     1       6.565  -2.707   1.527  1.00  0.00    -0.481 OA
ATOM      5  H   UNL     1       7.021  -3.595   1.754  1.00  0.00     0.296 HD
ENDBRANCH   2   4
ENDBRANCH   1   2
BRANCH   1   6
ATOM      6  C   UNL     1       5.300   0.006   1.952  1.00  0.00     0.047 C 
BRANCH   6   7
ATOM      7  C   UNL     1       5.550   1.308   1.335  1.00  0.00    -0.047 A 
ATOM      8  C   UNL     1       4.850   1.704   0.219  1.00  0.00     0.004 A 
ATOM      9  C   UNL     1       6.496   2.141   1.887  1.00  0.00     0.004 A 
ATOM     10  C   UNL     1       5.140   2.961  -0.316  1.00  0.00     0.000 A 
ATOM     11  C   UNL     1       6.782   3.383   1.356  1.00  0.00     0.000 A 
ATOM     12  C   UNL     1       6.086   3.787   0.238  1.00  0.00     0.000 A 
ENDBRANCH   6   7
ENDBRANCH   1   6
TORSDOF 4
ENDMDL
MODEL 2
REMARK VINA RESULT:      -5.5      0.080      1.439
REMARK SMILES O=C(O)CCc1ccccc1
REMARK SMILES IDX 4 1 2 2 1 3 3 4 5 6 6 7 7 8 11 9 8 10 10 11 9 12
REMARK H PARENT 3 5
REMARK Flexibility Score: inf
ROOT
ATOM      1  C   UNL     1       6.343  -0.575   2.775  1.00  0.00     0.127 C 
ENDROOT
BRANCH   1   2
ATOM      2  C   UNL     1       7.121  -1.497   1.914  1.00  0.00     0.303 C 
ATOM      3  O   UNL     1       8.282  -1.207   1.533  1.00  0.00    -0.252 OA
BRANCH   2   4
ATOM      4  O   UNL     1       6.585  -2.707   1.504  1.00  0.00    -0.481 OA
ATOM      5  H   UNL     1       7.212  -3.447   1.177  1.00  0.00     0.296 HD
ENDBRANCH   2   4
ENDBRANCH   1   2
BRANCH   1   6
ATOM      6  C   UNL     1       5.228   0.004   1.958  1.00  0.00     0.047 C 
BRANCH   6   7
ATOM      7  C   UNL     1       5.541   1.301   1.359  1.00  0.00    -0.047 A 
ATOM      8  C   UNL     1       6.515   2.108   1.899  1.00  0.00     0.004 A 
ATOM      9  C   UNL     1       4.850   1.708   0.242  1.00  0.00     0.004 A 
ATOM     10  C   UNL     1       6.761   3.333   1.275  1.00  0.00     0.000 A 
ATOM     11  C   UNL     1       5.095   2.919  -0.374  1.00  0.00     0.000 A 
ATOM     12  C   UNL     1       6.068   3.735   0.161  1.00  0.00     0.000 A 
ENDBRANCH   6   7
ENDBRANCH   1   6
TORSDOF 4
ENDMDL
MODEL 3
REMARK VINA RESULT:      -3.7     11.975     13.535
REMARK SMILES O=C(O)CCc1ccccc1
REMARK SMILES IDX 4 1 2 2 1 3 3 4 5 6 6 7 7 8 11 9 8 10 10 11 9 12
REMARK H PARENT 3 5
REMARK Flexibility Score: inf
ROOT
ATOM      1  C   UNL     1       8.235  -6.173  11.491  1.00  0.00     0.127 C 
ENDROOT
BRANCH   1   2
ATOM      2  C   UNL     1       8.312  -4.698  11.613  1.00  0.00     0.303 C 
ATOM      3  O   UNL     1       7.515  -3.951  10.993  1.00  0.00    -0.252 OA
BRANCH   2   4
ATOM      4  O   UNL     1       9.271  -4.101  12.416  1.00  0.00    -0.481 OA
ATOM      5  H   UNL     1       9.008  -3.772  13.349  1.00  0.00     0.296 HD
ENDBRANCH   2   4
ENDBRANCH   1   2
BRANCH   1   6
ATOM      6  C   UNL     1       8.903  -6.576  10.213  1.00  0.00     0.047 C 
BRANCH   6   7
ATOM      7  C   UNL     1      10.196  -7.232  10.399  1.00  0.00    -0.047 A 
ATOM      8  C   UNL     1      11.351  -6.492  10.507  1.00  0.00     0.004 A 
ATOM      9  C   UNL     1      10.249  -8.605  10.468  1.00  0.00     0.004 A 
ATOM     10  C   UNL     1      12.551  -7.185  10.685  1.00  0.00     0.000 A 
ATOM     11  C   UNL     1      11.436  -9.288  10.643  1.00  0.00     0.000 A 
ATOM     12  C   UNL     1      12.597  -8.555  10.752  1.00  0.00     0.000 A 
ENDBRANCH   6   7
ENDBRANCH   1   6
TORSDOF 4
ENDMDL
MODEL 4
REMARK VINA RESULT:      -3.7     11.786     14.282
REMARK SMILES O=C(O)CCc1ccccc1
REMARK SMILES IDX 4 1 2 2 1 3 3 4 5 6 6 7 7 8 11 9 8 10 10 11 9 12
REMARK H PARENT 3 5
REMARK Flexibility Score: inf
ROOT
ATOM      1  C   UNL     1       8.164  -6.275  10.740  1.00  0.00     0.127 C 
ENDROOT
BRANCH   1   2
ATOM      2  C   UNL     1       8.315  -4.876  11.208  1.00  0.00     0.303 C 
ATOM      3  O   UNL     1       7.509  -3.981  10.853  1.00  0.00    -0.252 OA
BRANCH   2   4
ATOM      4  O   UNL     1       9.354  -4.518  12.052  1.00  0.00    -0.481 OA
ATOM      5  H   UNL     1       9.873  -5.250  12.546  1.00  0.00     0.296 HD
ENDBRANCH   2   4
ENDBRANCH   1   2
BRANCH   1   6
ATOM      6  C   UNL     1       8.328  -7.185  11.919  1.00  0.00     0.047 C 
BRANCH   6   7
ATOM      7  C   UNL     1       9.256  -8.291  11.691  1.00  0.00    -0.047 A 
ATOM      8  C   UNL     1       9.182  -9.438  12.447  1.00  0.00     0.004 A 
ATOM      9  C   UNL     1      10.209  -8.176  10.706  1.00  0.00     0.004 A 
ATOM     10  C   UNL     1      10.100 -10.455  12.174  1.00  0.00     0.000 A 
ATOM     11  C   UNL     1      11.116  -9.182  10.437  1.00  0.00     0.000 A 
ATOM     12  C   UNL     1      11.050 -10.334  11.191  1.00  0.00     0.000 A 
ENDBRANCH   6   7
ENDBRANCH   1   6
TORSDOF 4
ENDMDL
MODEL 5
REMARK VINA RESULT:      -3.6     11.533     13.800
REMARK SMILES O=C(O)CCc1ccccc1
REMARK SMILES IDX 4 1 2 2 1 3 3 4 5 6 6 7 7 8 11 9 8 10 10 11 9 12
REMARK H PARENT 3 5
REMARK Flexibility Score: inf
ROOT
ATOM      1  C   UNL     1       8.055  -5.377  12.301  1.00  0.00     0.127 C 
ENDROOT
BRANCH   1   2
ATOM      2  C   UNL     1       7.797  -4.162  11.492  1.00  0.00     0.303 C 
ATOM      3  O   UNL     1       7.717  -4.219  10.240  1.00  0.00    -0.252 OA
BRANCH   2   4
ATOM      4  O   UNL     1       7.636  -2.926  12.098  1.00  0.00    -0.481 OA
ATOM      5  H   UNL     1       7.297  -2.136  11.543  1.00  0.00     0.296 HD
ENDBRANCH   2   4
ENDBRANCH   1   2
BRANCH   1   6
ATOM      6  C   UNL     1       7.770  -6.577  11.451  1.00  0.00     0.047 C 
BRANCH   6   7
ATOM      7  C   UNL     1       8.835  -7.579  11.461  1.00  0.00    -0.047 A 
ATOM      8  C   UNL     1       8.777  -8.659  12.311  1.00  0.00     0.004 A 
ATOM      9  C   UNL     1       9.902  -7.433  10.605  1.00  0.00     0.004 A 
ATOM     10  C   UNL     1       9.829  -9.577  12.266  1.00  0.00     0.000 A 
ATOM     11  C   UNL     1      10.941  -8.341  10.562  1.00  0.00     0.000 A 
ATOM     12  C   UNL     1      10.891  -9.425  11.411  1.00  0.00     0.000 A 
ENDBRANCH   6   7
ENDBRANCH   1   6
TORSDOF 4
ENDMDL
