@<TRIPOS>MOLECULE
/home/cewinharhar/GITHUB/reincatalyze/data/processed/docking_pred/2023-Apr-26-1657_maxeplen10_maxtrainstep1000_exh32_gamma099_lrac9e-4_lrcr1e-3/9282b18981f6708324b0af4486d36de930a99903_ligand_2.pdbqt
 12 12 0 0 0
SMALL
GASTEIGER

@<TRIPOS>ATOM
      1  C          8.2350   -6.1730   11.4910 C.3     1  UNL1        0.1270
      2  C          8.3120   -4.6980   11.6130 C.2     1  UNL1        0.3030
      3  O          7.5150   -3.9510   10.9930 O.2     1  UNL1       -0.2520
      4  O          9.2710   -4.1010   12.4160 O.3     1  UNL1       -0.4810
      5  H          9.0080   -3.7720   13.3490 H       1  UNL1        0.2960
      6  C          8.9030   -6.5760   10.2130 C.3     1  UNL1        0.0470
      7  C         10.1960   -7.2320   10.3990 C.2     1  UNL1       -0.0470
      8  C         11.3510   -6.4920   10.5070 C.2     1  UNL1        0.0040
      9  C         10.2490   -8.6050   10.4680 C.2     1  UNL1        0.0040
     10  C         12.5510   -7.1850   10.6850 C.2     1  UNL1        0.0000
     11  C         11.4360   -9.2880   10.6430 C.2     1  UNL1        0.0000
     12  C         12.5970   -8.5550   10.7520 C.2     1  UNL1        0.0000
@<TRIPOS>BOND
     1     6     7    1
     2     6     1    1
     3     7     9    2
     4     7     8    1
     5     9    11    1
     6     8    10    2
     7    11    12    2
     8    10    12    1
     9     3     2    2
    10     1     2    1
    11     2     4    1
    12     4     5    1
