@<TRIPOS>MOLECULE
/home/cewinharhar/GITHUB/reincatalyze/data/processed/docking_pred/2023-Apr-26-1657_maxeplen10_maxtrainstep1000_exh32_gamma099_lrac9e-4_lrcr1e-3/9282b18981f6708324b0af4486d36de930a99903_ligand_2.pdbqt
 12 12 0 0 0
SMALL
GASTEIGER

@<TRIPOS>ATOM
      1  C          8.1640   -6.2750   10.7400 C.3     1  UNL1        0.1270
      2  C          8.3150   -4.8760   11.2080 C.2     1  UNL1        0.3030
      3  O          7.5090   -3.9810   10.8530 O.2     1  UNL1       -0.2520
      4  O          9.3540   -4.5180   12.0520 O.3     1  UNL1       -0.4810
      5  H          9.8730   -5.2500   12.5460 H       1  UNL1        0.2960
      6  C          8.3280   -7.1850   11.9190 C.3     1  UNL1        0.0470
      7  C          9.2560   -8.2910   11.6910 C.2     1  UNL1       -0.0470
      8  C          9.1820   -9.4380   12.4470 C.2     1  UNL1        0.0040
      9  C         10.2090   -8.1760   10.7060 C.2     1  UNL1        0.0040
     10  C         10.1000  -10.4550   12.1740 C.2     1  UNL1        0.0000
     11  C         11.1160   -9.1820   10.4370 C.2     1  UNL1        0.0000
     12  C         11.0500  -10.3340   11.1910 C.2     1  UNL1        0.0000
@<TRIPOS>BOND
     1    11     9    1
     2    11    12    2
     3     9     7    2
     4     1     2    1
     5     1     6    1
     6     3     2    2
     7    12    10    1
     8     2     4    1
     9     7     6    1
    10     7     8    1
    11     4     5    1
    12    10     8    2
