@<TRIPOS>MOLECULE
/home/cewinharhar/GITHUB/reincatalyze/data/processed/docking_pred/2023-Apr-26-1657_maxeplen10_maxtrainstep1000_exh32_gamma099_lrac9e-4_lrcr1e-3/939bd1e5684a89eea32cbd4f4170b12915347732_ligand_2.pdbqt
 12 12 0 0 0
SMALL
GASTEIGER

@<TRIPOS>ATOM
      1  C          4.9690    1.8820    0.8010 C.3     1  UNL1        0.1270
      2  C          4.4280    1.1290    1.9570 C.2     1  UNL1        0.3030
      3  O          5.0670    0.1770    2.4710 O.2     1  UNL1       -0.2520
      4  O          3.1980    1.4550    2.5040 O.3     1  UNL1       -0.4810
      5  H          2.4640    1.8330    1.8980 H       1  UNL1        0.2960
      6  C          6.4610    1.9310    0.9280 C.3     1  UNL1        0.0470
      7  C          7.1720    1.2600   -0.1580 C.2     1  UNL1       -0.0470
      8  C          8.5390    1.3620   -0.2730 C.2     1  UNL1        0.0040
      9  C          6.4580    0.5180   -1.0700 C.2     1  UNL1        0.0040
     10  C          9.1530    0.6940   -1.3350 C.2     1  UNL1        0.0000
     11  C          7.0660   -0.1420   -2.1200 C.2     1  UNL1        0.0000
     12  C          8.4350   -0.0440   -2.2420 C.2     1  UNL1        0.0000
@<TRIPOS>BOND
     1    12    11    2
     2    12    10    1
     3    11     9    1
     4    10     8    2
     5     9     7    2
     6     8     7    1
     7     7     6    1
     8     1     6    1
     9     1     2    1
    10     5     4    1
    11     2     3    2
    12     2     4    1
