@<TRIPOS>MOLECULE
/home/cewinharhar/GITHUB/reincatalyze/data/processed/docking_pred/2023-Apr-26-1657_maxeplen10_maxtrainstep1000_exh32_gamma099_lrac9e-4_lrcr1e-3/939bd1e5684a89eea32cbd4f4170b12915347732_ligand_2.pdbqt
 12 12 0 0 0
SMALL
GASTEIGER

@<TRIPOS>ATOM
      1  C          8.2330   -0.5100   -2.2770 C.3     1  UNL1        0.1270
      2  C          8.2900   -1.8230   -2.9620 C.2     1  UNL1        0.3030
      3  O          7.2430   -2.4100   -3.3310 O.2     1  UNL1       -0.2520
      4  O          9.5050   -2.4400   -3.2140 O.3     1  UNL1       -0.4810
      5  H         10.2180   -2.4600   -2.4810 H       1  UNL1        0.2960
      6  C          7.0120   -0.4840   -1.4090 C.3     1  UNL1        0.0470
      7  C          6.8240    0.7720   -0.6840 C.2     1  UNL1       -0.0470
      8  C          7.8840    1.3900   -0.0620 C.2     1  UNL1        0.0040
      9  C          5.5710    1.3350   -0.6310 C.2     1  UNL1        0.0040
     10  C          7.6320    2.5870    0.6120 C.2     1  UNL1        0.0000
     11  C          5.3230    2.5190    0.0360 C.2     1  UNL1        0.0000
     12  C          6.3790    3.1440    0.6620 C.2     1  UNL1        0.0000
@<TRIPOS>BOND
     1     3     2    2
     2     4     2    1
     3     4     5    1
     4     2     1    1
     5     1     6    1
     6     6     7    1
     7     7     9    2
     8     7     8    1
     9     9    11    1
    10     8    10    2
    11    11    12    2
    12    10    12    1
