@<TRIPOS>MOLECULE
/home/cewinharhar/GITHUB/reincatalyze/data/processed/docking_pred/2023-Apr-26-1657_maxeplen10_maxtrainstep1000_exh32_gamma099_lrac9e-4_lrcr1e-3/939bd1e5684a89eea32cbd4f4170b12915347732_ligand_2.pdbqt
 12 12 0 0 0
SMALL
GASTEIGER

@<TRIPOS>ATOM
      1  C          8.4760   -0.6200   -2.1440 C.3     1  UNL1        0.1270
      2  C          8.5050   -1.8920   -2.9040 C.2     1  UNL1        0.3030
      3  O          9.5840   -2.5020   -3.1090 O.2     1  UNL1       -0.2520
      4  O          7.3400   -2.4430   -3.4100 O.3     1  UNL1       -0.4810
      5  H          7.0680   -3.3880   -3.1250 H       1  UNL1        0.2960
      6  C          7.0690   -0.1030   -2.1460 C.3     1  UNL1        0.0470
      7  C          6.4980    0.0700   -0.8110 C.2     1  UNL1       -0.0470
      8  C          6.6240   -0.9150    0.1410 C.2     1  UNL1        0.0040
      9  C          5.8300    1.2350   -0.5130 C.2     1  UNL1        0.0040
     10  C          6.0540   -0.6820    1.3940 C.2     1  UNL1        0.0000
     11  C          5.2670    1.4640    0.7270 C.2     1  UNL1        0.0000
     12  C          5.3880    0.4820    1.6860 C.2     1  UNL1        0.0000
@<TRIPOS>BOND
     1     4     5    1
     2     4     2    1
     3     3     2    2
     4     2     1    1
     5     6     1    1
     6     6     7    1
     7     7     9    2
     8     7     8    1
     9     9    11    1
    10     8    10    2
    11    11    12    2
    12    10    12    1
