@<TRIPOS>MOLECULE
/home/cewinharhar/GITHUB/reincatalyze/data/processed/docking_pred/2023-Apr-26-1657_maxeplen10_maxtrainstep1000_exh32_gamma099_lrac9e-4_lrcr1e-3/939bd1e5684a89eea32cbd4f4170b12915347732_ligand_2.pdbqt
 12 12 0 0 0
SMALL
GASTEIGER

@<TRIPOS>ATOM
      1  C          8.4770   -0.6190   -2.1460 C.3     1  UNL1        0.1270
      2  C          8.4890   -1.8910   -2.9060 C.2     1  UNL1        0.3030
      3  O          9.5570   -2.5220   -3.1040 O.2     1  UNL1       -0.2520
      4  O          7.3170   -2.4200   -3.4230 O.3     1  UNL1       -0.4810
      5  H          7.2840   -3.4110   -3.6770 H       1  UNL1        0.2960
      6  C          7.0750   -0.0920   -2.1320 C.3     1  UNL1        0.0470
      7  C          6.5070    0.0520   -0.7920 C.2     1  UNL1       -0.0470
      8  C          5.8580    1.2080   -0.4240 C.2     1  UNL1        0.0040
      9  C          6.6270   -0.9850    0.1030 C.2     1  UNL1        0.0040
     10  C          5.3400    1.2760    0.8710 C.2     1  UNL1        0.0000
     11  C          6.1140   -0.9160    1.3830 C.2     1  UNL1        0.0000
     12  C          5.4630    0.2380    1.7600 C.2     1  UNL1        0.0000
@<TRIPOS>BOND
     1     5     4    1
     2     4     2    1
     3     3     2    2
     4     2     1    1
     5     1     6    1
     6     6     7    1
     7     7     8    2
     8     7     9    1
     9     8    10    1
    10     9    11    2
    11    10    12    2
    12    11    12    1
