MODEL 1
REMARK VINA RESULT:      -7.1      0.000      0.000
REMARK SMILES O=C(O)CCc1ccccc1
REMARK SMILES IDX 4 1 2 2 1 3 3 4 5 6 6 7 7 8 11 9 8 10 10 11 9 12
REMARK H PARENT 3 5
REMARK Flexibility Score: inf
ROOT
ATOM      1  C   UNL     1       8.476  -0.620  -2.144  1.00  0.00     0.127 C 
ENDROOT
BRANCH   1   2
ATOM      2  C   UNL     1       8.505  -1.892  -2.904  1.00  0.00     0.303 C 
ATOM      3  O   UNL     1       9.584  -2.502  -3.109  1.00  0.00    -0.252 OA
BRANCH   2   4
ATOM      4  O   UNL     1       7.340  -2.443  -3.410  1.00  0.00    -0.481 OA
ATOM      5  H   UNL     1       7.068  -3.388  -3.125  1.00  0.00     0.296 HD
ENDBRANCH   2   4
ENDBRANCH   1   2
BRANCH   1   6
ATOM      6  C   UNL     1       7.069  -0.103  -2.146  1.00  0.00     0.047 C 
BRANCH   6   7
ATOM      7  C   UNL     1       6.498   0.070  -0.811  1.00  0.00    -0.047 A 
ATOM      8  C   UNL     1       6.624  -0.915   0.141  1.00  0.00     0.004 A 
ATOM      9  C   UNL     1       5.830   1.235  -0.513  1.00  0.00     0.004 A 
ATOM     10  C   UNL     1       6.054  -0.682   1.394  1.00  0.00     0.000 A 
ATOM     11  C   UNL     1       5.267   1.464   0.727  1.00  0.00     0.000 A 
ATOM     12  C   UNL     1       5.388   0.482   1.686  1.00  0.00     0.000 A 
ENDBRANCH   6   7
ENDBRANCH   1   6
TORSDOF 4
ENDMDL
MODEL 2
REMARK VINA RESULT:      -7.1      0.138      1.442
REMARK SMILES O=C(O)CCc1ccccc1
REMARK SMILES IDX 4 1 2 2 1 3 3 4 5 6 6 7 7 8 11 9 8 10 10 11 9 12
REMARK H PARENT 3 5
REMARK Flexibility Score: inf
ROOT
ATOM      1  C   UNL     1       8.477  -0.619  -2.146  1.00  0.00     0.127 C 
ENDROOT
BRANCH   1   2
ATOM      2  C   UNL     1       8.489  -1.891  -2.906  1.00  0.00     0.303 C 
ATOM      3  O   UNL     1       9.557  -2.522  -3.104  1.00  0.00    -0.252 OA
BRANCH   2   4
ATOM      4  O   UNL     1       7.317  -2.420  -3.423  1.00  0.00    -0.481 OA
ATOM      5  H   UNL     1       7.284  -3.411  -3.677  1.00  0.00     0.296 HD
ENDBRANCH   2   4
ENDBRANCH   1   2
BRANCH   1   6
ATOM      6  C   UNL     1       7.075  -0.092  -2.132  1.00  0.00     0.047 C 
BRANCH   6   7
ATOM      7  C   UNL     1       6.507   0.052  -0.792  1.00  0.00    -0.047 A 
ATOM      8  C   UNL     1       5.858   1.208  -0.424  1.00  0.00     0.004 A 
ATOM      9  C   UNL     1       6.627  -0.985   0.103  1.00  0.00     0.004 A 
ATOM     10  C   UNL     1       5.340   1.276   0.871  1.00  0.00     0.000 A 
ATOM     11  C   UNL     1       6.114  -0.916   1.383  1.00  0.00     0.000 A 
ATOM     12  C   UNL     1       5.463   0.238   1.760  1.00  0.00     0.000 A 
ENDBRANCH   6   7
ENDBRANCH   1   6
TORSDOF 4
ENDMDL
MODEL 3
REMARK VINA RESULT:      -6.6      1.317      1.983
REMARK SMILES O=C(O)CCc1ccccc1
REMARK SMILES IDX 4 1 2 2 1 3 3 4 5 6 6 7 7 8 11 9 8 10 10 11 9 12
REMARK H PARENT 3 5
REMARK Flexibility Score: inf
ROOT
ATOM      1  C   UNL     1       8.233  -0.510  -2.277  1.00  0.00     0.127 C 
ENDROOT
BRANCH   1   2
ATOM      2  C   UNL     1       8.290  -1.823  -2.962  1.00  0.00     0.303 C 
ATOM      3  O   UNL     1       7.243  -2.410  -3.331  1.00  0.00    -0.252 OA
BRANCH   2   4
ATOM      4  O   UNL     1       9.505  -2.440  -3.214  1.00  0.00    -0.481 OA
ATOM      5  H   UNL     1      10.218  -2.460  -2.481  1.00  0.00     0.296 HD
ENDBRANCH   2   4
ENDBRANCH   1   2
BRANCH   1   6
ATOM      6  C   UNL     1       7.012  -0.484  -1.409  1.00  0.00     0.047 C 
BRANCH   6   7
ATOM      7  C   UNL     1       6.824   0.772  -0.684  1.00  0.00    -0.047 A 
ATOM      8  C   UNL     1       7.884   1.390  -0.062  1.00  0.00     0.004 A 
ATOM      9  C   UNL     1       5.571   1.335  -0.631  1.00  0.00     0.004 A 
ATOM     10  C   UNL     1       7.632   2.587   0.612  1.00  0.00     0.000 A 
ATOM     11  C   UNL     1       5.323   2.519   0.036  1.00  0.00     0.000 A 
ATOM     12  C   UNL     1       6.379   3.144   0.662  1.00  0.00     0.000 A 
ENDBRANCH   6   7
ENDBRANCH   1   6
TORSDOF 4
ENDMDL
MODEL 4
REMARK VINA RESULT:      -6.4      3.422      5.108
REMARK SMILES O=C(O)CCc1ccccc1
REMARK SMILES IDX 4 1 2 2 1 3 3 4 5 6 6 7 7 8 11 9 8 10 10 11 9 12
REMARK H PARENT 3 5
REMARK Flexibility Score: inf
ROOT
ATOM      1  C   UNL     1       4.969   1.882   0.801  1.00  0.00     0.127 C 
ENDROOT
BRANCH   1   2
ATOM      2  C   UNL     1       4.428   1.129   1.957  1.00  0.00     0.303 C 
ATOM      3  O   UNL     1       5.067   0.177   2.471  1.00  0.00    -0.252 OA
BRANCH   2   4
ATOM      4  O   UNL     1       3.198   1.455   2.504  1.00  0.00    -0.481 OA
ATOM      5  H   UNL     1       2.464   1.833   1.898  1.00  0.00     0.296 HD
ENDBRANCH   2   4
ENDBRANCH   1   2
BRANCH   1   6
ATOM      6  C   UNL     1       6.461   1.931   0.928  1.00  0.00     0.047 C 
BRANCH   6   7
ATOM      7  C   UNL     1       7.172   1.260  -0.158  1.00  0.00    -0.047 A 
ATOM      8  C   UNL     1       8.539   1.362  -0.273  1.00  0.00     0.004 A 
ATOM      9  C   UNL     1       6.458   0.518  -1.070  1.00  0.00     0.004 A 
ATOM     10  C   UNL     1       9.153   0.694  -1.335  1.00  0.00     0.000 A 
ATOM     11  C   UNL     1       7.066  -0.142  -2.120  1.00  0.00     0.000 A 
ATOM     12  C   UNL     1       8.435  -0.044  -2.242  1.00  0.00     0.000 A 
ENDBRANCH   6   7
ENDBRANCH   1   6
TORSDOF 4
ENDMDL
MODEL 5
REMARK VINA RESULT:      -6.4      2.489      3.156
REMARK SMILES O=C(O)CCc1ccccc1
REMARK SMILES IDX 4 1 2 2 1 3 3 4 5 6 6 7 7 8 11 9 8 10 10 11 9 12
REMARK H PARENT 3 5
REMARK Flexibility Score: inf
ROOT
ATOM      1  C   UNL     1       8.107  -1.106  -0.015  1.00  0.00     0.127 C 
ENDROOT
BRANCH   1   2
ATOM      2  C   UNL     1       7.896  -2.352   0.759  1.00  0.00     0.303 C 
ATOM      3  O   UNL     1       8.745  -3.277   0.749  1.00  0.00    -0.252 OA
BRANCH   2   4
ATOM      4  O   UNL     1       6.750  -2.530   1.518  1.00  0.00    -0.481 OA
ATOM      5  H   UNL     1       5.870  -2.114   1.203  1.00  0.00     0.296 HD
ENDBRANCH   2   4
ENDBRANCH   1   2
BRANCH   1   6
ATOM      6  C   UNL     1       6.766  -0.556  -0.396  1.00  0.00     0.047 C 
BRANCH   6   7
ATOM      7  C   UNL     1       6.588   0.857  -0.065  1.00  0.00    -0.047 A 
ATOM      8  C   UNL     1       5.394   1.493  -0.316  1.00  0.00     0.004 A 
ATOM      9  C   UNL     1       7.631   1.550   0.506  1.00  0.00     0.004 A 
ATOM     10  C   UNL     1       5.295   2.843   0.027  1.00  0.00     0.000 A 
ATOM     11  C   UNL     1       7.531   2.885   0.844  1.00  0.00     0.000 A 
ATOM     12  C   UNL     1       6.338   3.529   0.595  1.00  0.00     0.000 A 
ENDBRANCH   6   7
ENDBRANCH   1   6
TORSDOF 4
ENDMDL
