@<TRIPOS>MOLECULE
/home/cewinharhar/GITHUB/reincatalyze/data/processed/docking_pred/2023-Apr-26-1657_maxeplen10_maxtrainstep1000_exh32_gamma099_lrac9e-4_lrcr1e-3/939bd1e5684a89eea32cbd4f4170b12915347732_ligand_2.pdbqt
 12 12 0 0 0
SMALL
GASTEIGER

@<TRIPOS>ATOM
      1  C          8.1070   -1.1060   -0.0150 C.3     1  UNL1        0.1270
      2  C          7.8960   -2.3520    0.7590 C.2     1  UNL1        0.3030
      3  O          8.7450   -3.2770    0.7490 O.2     1  UNL1       -0.2520
      4  O          6.7500   -2.5300    1.5180 O.3     1  UNL1       -0.4810
      5  H          5.8700   -2.1140    1.2030 H       1  UNL1        0.2960
      6  C          6.7660   -0.5560   -0.3960 C.3     1  UNL1        0.0470
      7  C          6.5880    0.8570   -0.0650 C.2     1  UNL1       -0.0470
      8  C          5.3940    1.4930   -0.3160 C.2     1  UNL1        0.0040
      9  C          7.6310    1.5500    0.5060 C.2     1  UNL1        0.0040
     10  C          5.2950    2.8430    0.0270 C.2     1  UNL1        0.0000
     11  C          7.5310    2.8850    0.8440 C.2     1  UNL1        0.0000
     12  C          6.3380    3.5290    0.5950 C.2     1  UNL1        0.0000
@<TRIPOS>BOND
     1     6     7    1
     2     6     1    1
     3     8     7    2
     4     8    10    1
     5     7     9    1
     6     1     2    1
     7    10    12    2
     8     9    11    2
     9    12    11    1
    10     3     2    2
    11     2     4    1
    12     5     4    1
