@<TRIPOS>MOLECULE
/home/cewinharhar/GITHUB/reincatalyze/data/processed/docking_pred/2023-Apr-26-1657_maxeplen10_maxtrainstep1000_exh32_gamma099_lrac9e-4_lrcr1e-3/93b19c8378935853b44d27bbf459025f9fc44a5e_ligand_2.pdbqt
 12 12 0 0 0
SMALL
GASTEIGER

@<TRIPOS>ATOM
      1  C          5.0020    1.7920    0.7060 C.3     1  UNL1        0.1270
      2  C          4.4830    1.1100    1.9140 C.2     1  UNL1        0.3030
      3  O          5.1380    0.1990    2.4800 O.2     1  UNL1       -0.2520
      4  O          3.2560    1.4590    2.4550 O.3     1  UNL1       -0.4810
      5  H          2.5920    0.7220    2.7080 H       1  UNL1        0.2960
      6  C          6.5000    1.7650    0.7560 C.3     1  UNL1        0.0470
      7  C          7.1180    1.0160   -0.3370 C.2     1  UNL1       -0.0470
      8  C          6.3870    0.1100   -1.0700 C.2     1  UNL1        0.0040
      9  C          8.4450    1.2280   -0.6290 C.2     1  UNL1        0.0040
     10  C          7.0420   -0.5690   -2.1000 C.2     1  UNL1        0.0000
     11  C          9.0910    0.5560   -1.6480 C.2     1  UNL1        0.0000
     12  C          8.3670   -0.3540   -2.3860 C.2     1  UNL1        0.0000
@<TRIPOS>BOND
     1    12    10    2
     2    12    11    1
     3    10     8    1
     4    11     9    2
     5     8     7    2
     6     9     7    1
     7     7     6    1
     8     1     6    1
     9     1     2    1
    10     2     4    1
    11     2     3    2
    12     4     5    1
