MODEL 1
REMARK VINA RESULT:      -7.3      0.000      0.000
REMARK SMILES O=C(O)CCc1ccccc1
REMARK SMILES IDX 4 1 2 2 1 3 3 4 5 6 6 7 7 8 11 9 8 10 10 11 9 12
REMARK H PARENT 3 5
REMARK Flexibility Score: inf
ROOT
ATOM      1  C   UNL     1       8.428  -0.554  -2.238  1.00  0.00     0.127 C 
ENDROOT
BRANCH   1   2
ATOM      2  C   UNL     1       8.469  -1.867  -2.925  1.00  0.00     0.303 C 
ATOM      3  O   UNL     1       9.550  -2.486  -3.082  1.00  0.00    -0.252 OA
BRANCH   2   4
ATOM      4  O   UNL     1       7.310  -2.448  -3.415  1.00  0.00    -0.481 OA
ATOM      5  H   UNL     1       6.410  -2.201  -2.994  1.00  0.00     0.296 HD
ENDBRANCH   2   4
ENDBRANCH   1   2
BRANCH   1   6
ATOM      6  C   UNL     1       7.000  -0.107  -2.161  1.00  0.00     0.047 C 
BRANCH   6   7
ATOM      7  C   UNL     1       6.492   0.025  -0.796  1.00  0.00    -0.047 A 
ATOM      8  C   UNL     1       6.617  -1.007   0.104  1.00  0.00     0.004 A 
ATOM      9  C   UNL     1       5.884   1.200  -0.417  1.00  0.00     0.004 A 
ATOM     10  C   UNL     1       6.109  -0.810   1.390  1.00  0.00     0.000 A 
ATOM     11  C   UNL     1       5.382   1.392   0.855  1.00  0.00     0.000 A 
ATOM     12  C   UNL     1       5.503   0.363   1.763  1.00  0.00     0.000 A 
ENDBRANCH   6   7
ENDBRANCH   1   6
TORSDOF 4
ENDMDL
MODEL 2
REMARK VINA RESULT:      -7.3      0.132      1.733
REMARK SMILES O=C(O)CCc1ccccc1
REMARK SMILES IDX 4 1 2 2 1 3 3 4 5 6 6 7 7 8 11 9 8 10 10 11 9 12
REMARK H PARENT 3 5
REMARK Flexibility Score: inf
ROOT
ATOM      1  C   UNL     1       8.405  -0.660  -2.072  1.00  0.00     0.127 C 
ENDROOT
BRANCH   1   2
ATOM      2  C   UNL     1       8.376  -1.905  -2.876  1.00  0.00     0.303 C 
ATOM      3  O   UNL     1       7.289  -2.414  -3.248  1.00  0.00    -0.252 OA
BRANCH   2   4
ATOM      4  O   UNL     1       9.550  -2.543  -3.241  1.00  0.00    -0.481 OA
ATOM      5  H   UNL     1       9.977  -3.214  -2.596  1.00  0.00     0.296 HD
ENDBRANCH   2   4
ENDBRANCH   1   2
BRANCH   1   6
ATOM      6  C   UNL     1       7.029  -0.069  -2.069  1.00  0.00     0.047 C 
BRANCH   6   7
ATOM      7  C   UNL     1       6.457   0.100  -0.734  1.00  0.00    -0.047 A 
ATOM      8  C   UNL     1       5.804   1.260  -0.390  1.00  0.00     0.004 A 
ATOM      9  C   UNL     1       6.577  -0.921   0.181  1.00  0.00     0.004 A 
ATOM     10  C   UNL     1       5.282   1.352   0.902  1.00  0.00     0.000 A 
ATOM     11  C   UNL     1       6.060  -0.828   1.458  1.00  0.00     0.000 A 
ATOM     12  C   UNL     1       5.405   0.332   1.811  1.00  0.00     0.000 A 
ENDBRANCH   6   7
ENDBRANCH   1   6
TORSDOF 4
ENDMDL
MODEL 3
REMARK VINA RESULT:      -7.0      0.643      1.459
REMARK SMILES O=C(O)CCc1ccccc1
REMARK SMILES IDX 4 1 2 2 1 3 3 4 5 6 6 7 7 8 11 9 8 10 10 11 9 12
REMARK H PARENT 3 5
REMARK Flexibility Score: inf
ROOT
ATOM      1  C   UNL     1       8.325  -0.744  -1.959  1.00  0.00     0.127 C 
ENDROOT
BRANCH   1   2
ATOM      2  C   UNL     1       8.334  -1.908  -2.876  1.00  0.00     0.303 C 
ATOM      3  O   UNL     1       7.264  -2.418  -3.291  1.00  0.00    -0.252 OA
BRANCH   2   4
ATOM      4  O   UNL     1       9.528  -2.466  -3.302  1.00  0.00    -0.481 OA
ATOM      5  H   UNL     1       9.977  -2.105  -4.149  1.00  0.00     0.296 HD
ENDBRANCH   2   4
ENDBRANCH   1   2
BRANCH   1   6
ATOM      6  C   UNL     1       7.773  -1.189  -0.639  1.00  0.00     0.047 C 
BRANCH   6   7
ATOM      7  C   UNL     1       6.803  -0.263  -0.057  1.00  0.00    -0.047 A 
ATOM      8  C   UNL     1       6.346  -0.440   1.229  1.00  0.00     0.004 A 
ATOM      9  C   UNL     1       6.350   0.795  -0.809  1.00  0.00     0.004 A 
ATOM     10  C   UNL     1       5.421   0.484   1.720  1.00  0.00     0.000 A 
ATOM     11  C   UNL     1       5.436   1.707  -0.322  1.00  0.00     0.000 A 
ATOM     12  C   UNL     1       4.972   1.537   0.964  1.00  0.00     0.000 A 
ENDBRANCH   6   7
ENDBRANCH   1   6
TORSDOF 4
ENDMDL
MODEL 4
REMARK VINA RESULT:      -6.8      3.374      5.052
REMARK SMILES O=C(O)CCc1ccccc1
REMARK SMILES IDX 4 1 2 2 1 3 3 4 5 6 6 7 7 8 11 9 8 10 10 11 9 12
REMARK H PARENT 3 5
REMARK Flexibility Score: inf
ROOT
ATOM      1  C   UNL     1       5.002   1.792   0.706  1.00  0.00     0.127 C 
ENDROOT
BRANCH   1   2
ATOM      2  C   UNL     1       4.483   1.110   1.914  1.00  0.00     0.303 C 
ATOM      3  O   UNL     1       5.138   0.199   2.480  1.00  0.00    -0.252 OA
BRANCH   2   4
ATOM      4  O   UNL     1       3.256   1.459   2.455  1.00  0.00    -0.481 OA
ATOM      5  H   UNL     1       2.592   0.722   2.708  1.00  0.00     0.296 HD
ENDBRANCH   2   4
ENDBRANCH   1   2
BRANCH   1   6
ATOM      6  C   UNL     1       6.500   1.765   0.756  1.00  0.00     0.047 C 
BRANCH   6   7
ATOM      7  C   UNL     1       7.118   1.016  -0.337  1.00  0.00    -0.047 A 
ATOM      8  C   UNL     1       6.387   0.110  -1.070  1.00  0.00     0.004 A 
ATOM      9  C   UNL     1       8.445   1.228  -0.629  1.00  0.00     0.004 A 
ATOM     10  C   UNL     1       7.042  -0.569  -2.100  1.00  0.00     0.000 A 
ATOM     11  C   UNL     1       9.091   0.556  -1.648  1.00  0.00     0.000 A 
ATOM     12  C   UNL     1       8.367  -0.354  -2.386  1.00  0.00     0.000 A 
ENDBRANCH   6   7
ENDBRANCH   1   6
TORSDOF 4
ENDMDL
MODEL 5
REMARK VINA RESULT:      -6.6      1.910      2.289
REMARK SMILES O=C(O)CCc1ccccc1
REMARK SMILES IDX 4 1 2 2 1 3 3 4 5 6 6 7 7 8 11 9 8 10 10 11 9 12
REMARK H PARENT 3 5
REMARK Flexibility Score: inf
ROOT
ATOM      1  C   UNL     1       8.220   0.195  -2.208  1.00  0.00     0.127 C 
ENDROOT
BRANCH   1   2
ATOM      2  C   UNL     1       9.340   0.339  -1.248  1.00  0.00     0.303 C 
ATOM      3  O   UNL     1       9.442  -0.414  -0.249  1.00  0.00    -0.252 OA
BRANCH   2   4
ATOM      4  O   UNL     1      10.309   1.313  -1.429  1.00  0.00    -0.481 OA
ATOM      5  H   UNL     1      11.296   1.066  -1.312  1.00  0.00     0.296 HD
ENDBRANCH   2   4
ENDBRANCH   1   2
BRANCH   1   6
ATOM      6  C   UNL     1       7.119  -0.567  -1.535  1.00  0.00     0.047 C 
BRANCH   6   7
ATOM      7  C   UNL     1       6.350   0.223  -0.575  1.00  0.00    -0.047 A 
ATOM      8  C   UNL     1       6.139  -0.236   0.704  1.00  0.00     0.004 A 
ATOM      9  C   UNL     1       5.838   1.439  -0.964  1.00  0.00     0.004 A 
ATOM     10  C   UNL     1       5.396   0.571   1.568  1.00  0.00     0.000 A 
ATOM     11  C   UNL     1       5.103   2.236  -0.108  1.00  0.00     0.000 A 
ATOM     12  C   UNL     1       4.887   1.783   1.175  1.00  0.00     0.000 A 
ENDBRANCH   6   7
ENDBRANCH   1   6
TORSDOF 4
ENDMDL
