@<TRIPOS>MOLECULE
/home/cewinharhar/GITHUB/reincatalyze/data/processed/docking_pred/2023-Apr-26-1657_maxeplen10_maxtrainstep1000_exh32_gamma099_lrac9e-4_lrcr1e-3/93b19c8378935853b44d27bbf459025f9fc44a5e_ligand_2.pdbqt
 12 12 0 0 0
SMALL
GASTEIGER

@<TRIPOS>ATOM
      1  C          8.2200    0.1950   -2.2080 C.3     1  UNL1        0.1270
      2  C          9.3400    0.3390   -1.2480 C.2     1  UNL1        0.3030
      3  O          9.4420   -0.4140   -0.2490 O.2     1  UNL1       -0.2520
      4  O         10.3090    1.3130   -1.4290 O.3     1  UNL1       -0.4810
      5  H         11.2960    1.0660   -1.3120 H       1  UNL1        0.2960
      6  C          7.1190   -0.5670   -1.5350 C.3     1  UNL1        0.0470
      7  C          6.3500    0.2230   -0.5750 C.2     1  UNL1       -0.0470
      8  C          6.1390   -0.2360    0.7040 C.2     1  UNL1        0.0040
      9  C          5.8380    1.4390   -0.9640 C.2     1  UNL1        0.0040
     10  C          5.3960    0.5710    1.5680 C.2     1  UNL1        0.0000
     11  C          5.1030    2.2360   -0.1080 C.2     1  UNL1        0.0000
     12  C          4.8870    1.7830    1.1750 C.2     1  UNL1        0.0000
@<TRIPOS>BOND
     1     1     6    1
     2     1     2    1
     3     6     7    1
     4     4     5    1
     5     4     2    1
     6     2     3    2
     7     9     7    2
     8     9    11    1
     9     7     8    1
    10    11    12    2
    11     8    10    2
    12    12    10    1
