@<TRIPOS>MOLECULE
/home/cewinharhar/GITHUB/reincatalyze/data/processed/docking_pred/2023-Apr-26-1657_maxeplen10_maxtrainstep1000_exh32_gamma099_lrac9e-4_lrcr1e-3/93b19c8378935853b44d27bbf459025f9fc44a5e_ligand_2.pdbqt
 12 12 0 0 0
SMALL
GASTEIGER

@<TRIPOS>ATOM
      1  C          8.4280   -0.5540   -2.2380 C.3     1  UNL1        0.1270
      2  C          8.4690   -1.8670   -2.9250 C.2     1  UNL1        0.3030
      3  O          9.5500   -2.4860   -3.0820 O.2     1  UNL1       -0.2520
      4  O          7.3100   -2.4480   -3.4150 O.3     1  UNL1       -0.4810
      5  H          6.4100   -2.2010   -2.9940 H       1  UNL1        0.2960
      6  C          7.0000   -0.1070   -2.1610 C.3     1  UNL1        0.0470
      7  C          6.4920    0.0250   -0.7960 C.2     1  UNL1       -0.0470
      8  C          6.6170   -1.0070    0.1040 C.2     1  UNL1        0.0040
      9  C          5.8840    1.2000   -0.4170 C.2     1  UNL1        0.0040
     10  C          6.1090   -0.8100    1.3900 C.2     1  UNL1        0.0000
     11  C          5.3820    1.3920    0.8550 C.2     1  UNL1        0.0000
     12  C          5.5030    0.3630    1.7630 C.2     1  UNL1        0.0000
@<TRIPOS>BOND
     1     4     5    1
     2     4     2    1
     3     3     2    2
     4     2     1    1
     5     1     6    1
     6     6     7    1
     7     7     9    2
     8     7     8    1
     9     9    11    1
    10     8    10    2
    11    11    12    2
    12    10    12    1
