@<TRIPOS>MOLECULE
/home/cewinharhar/GITHUB/reincatalyze/data/processed/docking_pred/2023-Apr-26-1657_maxeplen10_maxtrainstep1000_exh32_gamma099_lrac9e-4_lrcr1e-3/93b19c8378935853b44d27bbf459025f9fc44a5e_ligand_2.pdbqt
 12 12 0 0 0
SMALL
GASTEIGER

@<TRIPOS>ATOM
      1  C          8.3250   -0.7440   -1.9590 C.3     1  UNL1        0.1270
      2  C          8.3340   -1.9080   -2.8760 C.2     1  UNL1        0.3030
      3  O          7.2640   -2.4180   -3.2910 O.2     1  UNL1       -0.2520
      4  O          9.5280   -2.4660   -3.3020 O.3     1  UNL1       -0.4810
      5  H          9.9770   -2.1050   -4.1490 H       1  UNL1        0.2960
      6  C          7.7730   -1.1890   -0.6390 C.3     1  UNL1        0.0470
      7  C          6.8030   -0.2630   -0.0570 C.2     1  UNL1       -0.0470
      8  C          6.3460   -0.4400    1.2290 C.2     1  UNL1        0.0040
      9  C          6.3500    0.7950   -0.8090 C.2     1  UNL1        0.0040
     10  C          5.4210    0.4840    1.7200 C.2     1  UNL1        0.0000
     11  C          5.4360    1.7070   -0.3220 C.2     1  UNL1        0.0000
     12  C          4.9720    1.5370    0.9640 C.2     1  UNL1        0.0000
@<TRIPOS>BOND
     1     5     4    1
     2     4     2    1
     3     3     2    2
     4     2     1    1
     5     1     6    1
     6     9    11    1
     7     9     7    2
     8     6     7    1
     9    11    12    2
    10     7     8    1
    11    12    10    1
    12     8    10    2
