@<TRIPOS>MOLECULE
/home/cewinharhar/GITHUB/reincatalyze/data/processed/docking_pred/2023-Apr-26-1657_maxeplen10_maxtrainstep1000_exh32_gamma099_lrac9e-4_lrcr1e-3/93c3770ef064b633c902e85f3368d9330fbaaeb8_ligand_2.pdbqt
 12 12 0 0 0
SMALL
GASTEIGER

@<TRIPOS>ATOM
      1  C          8.1640    0.3160   -2.2300 C.3     1  UNL1        0.1270
      2  C          9.5130    0.0560   -1.6740 C.2     1  UNL1        0.3030
      3  O         10.0050   -1.0990   -1.6730 O.2     1  UNL1       -0.2520
      4  O         10.2700    1.0860   -1.1380 O.3     1  UNL1       -0.4810
      5  H         11.2810    0.9650   -1.0400 H       1  UNL1        0.2960
      6  C          7.2160   -0.6920   -1.6540 C.3     1  UNL1        0.0470
      7  C          6.5200   -0.2350   -0.4520 C.2     1  UNL1       -0.0470
      8  C          6.4530   -1.0320    0.6670 C.2     1  UNL1        0.0040
      9  C          5.9320    1.0080   -0.4490 C.2     1  UNL1        0.0040
     10  C          5.7740   -0.5310    1.7800 C.2     1  UNL1        0.0000
     11  C          5.2600    1.5020    0.6520 C.2     1  UNL1        0.0000
     12  C          5.1880    0.7100    1.7770 C.2     1  UNL1        0.0000
@<TRIPOS>BOND
     1     1     2    1
     2     1     6    1
     3     2     3    2
     4     2     4    1
     5     6     7    1
     6     4     5    1
     7     7     9    2
     8     7     8    1
     9     9    11    1
    10    11    12    2
    11     8    10    2
    12    12    10    1
