@<TRIPOS>MOLECULE
/home/cewinharhar/GITHUB/reincatalyze/data/processed/docking_pred/2023-Apr-26-1657_maxeplen10_maxtrainstep1000_exh32_gamma099_lrac9e-4_lrcr1e-3/93c3770ef064b633c902e85f3368d9330fbaaeb8_ligand_2.pdbqt
 12 12 0 0 0
SMALL
GASTEIGER

@<TRIPOS>ATOM
      1  C          8.4480   -0.4570   -2.1100 C.3     1  UNL1        0.1270
      2  C          8.6020   -1.7710   -2.7790 C.2     1  UNL1        0.3030
      3  O          9.7200   -2.3390   -2.8490 O.2     1  UNL1       -0.2520
      4  O          7.5120   -2.4090   -3.3480 O.3     1  UNL1       -0.4810
      5  H          6.5670   -2.1460   -3.0540 H       1  UNL1        0.2960
      6  C          6.9890   -0.1180   -2.0680 C.3     1  UNL1        0.0470
      7  C          6.4520    0.0270   -0.7160 C.2     1  UNL1       -0.0470
      8  C          6.5540   -0.9980    0.1960 C.2     1  UNL1        0.0040
      9  C          5.8400    1.2070   -0.3600 C.2     1  UNL1        0.0040
     10  C          6.0190   -0.7890    1.4690 C.2     1  UNL1        0.0000
     11  C          5.3110    1.4120    0.8990 C.2     1  UNL1        0.0000
     12  C          5.4090    0.3900    1.8180 C.2     1  UNL1        0.0000
@<TRIPOS>BOND
     1     4     5    1
     2     4     2    1
     3     3     2    2
     4     2     1    1
     5     1     6    1
     6     6     7    1
     7     7     9    2
     8     7     8    1
     9     9    11    1
    10     8    10    2
    11    11    12    2
    12    10    12    1
