@<TRIPOS>MOLECULE
/home/cewinharhar/GITHUB/reincatalyze/data/processed/docking_pred/2023-Apr-26-1657_maxeplen10_maxtrainstep1000_exh32_gamma099_lrac9e-4_lrcr1e-3/93c3770ef064b633c902e85f3368d9330fbaaeb8_ligand_2.pdbqt
 12 12 0 0 0
SMALL
GASTEIGER

@<TRIPOS>ATOM
      1  C          8.4730   -0.6290   -2.1170 C.3     1  UNL1        0.1270
      2  C          8.5190   -1.9040   -2.8700 C.2     1  UNL1        0.3030
      3  O          9.5980   -2.5250   -3.0350 O.2     1  UNL1       -0.2520
      4  O          7.3670   -2.4470   -3.4160 O.3     1  UNL1       -0.4810
      5  H          7.4190   -2.9280   -4.3180 H       1  UNL1        0.2960
      6  C          7.0580   -0.1380   -2.1060 C.3     1  UNL1        0.0470
      7  C          6.4990    0.0370   -0.7670 C.2     1  UNL1       -0.0470
      8  C          5.8590    1.2040   -0.4190 C.2     1  UNL1        0.0040
      9  C          6.6180   -0.9820    0.1490 C.2     1  UNL1        0.0040
     10  C          5.3490    1.3020    0.8780 C.2     1  UNL1        0.0000
     11  C          6.1140   -0.8840    1.4310 C.2     1  UNL1        0.0000
     12  C          5.4720    0.2820    1.7870 C.2     1  UNL1        0.0000
@<TRIPOS>BOND
     1     5     4    1
     2     4     2    1
     3     3     2    2
     4     2     1    1
     5     1     6    1
     6     6     7    1
     7     7     8    2
     8     7     9    1
     9     8    10    1
    10     9    11    2
    11    10    12    2
    12    11    12    1
