MODEL 1
REMARK VINA RESULT:      -7.0      0.000      0.000
REMARK SMILES O=C(O)CCc1ccccc1
REMARK SMILES IDX 4 1 2 2 1 3 3 4 5 6 6 7 7 8 11 9 8 10 10 11 9 12
REMARK H PARENT 3 5
REMARK Flexibility Score: inf
ROOT
ATOM      1  C   UNL     1       8.473  -0.629  -2.117  1.00  0.00     0.127 C 
ENDROOT
BRANCH   1   2
ATOM      2  C   UNL     1       8.519  -1.904  -2.870  1.00  0.00     0.303 C 
ATOM      3  O   UNL     1       9.598  -2.525  -3.035  1.00  0.00    -0.252 OA
BRANCH   2   4
ATOM      4  O   UNL     1       7.367  -2.447  -3.416  1.00  0.00    -0.481 OA
ATOM      5  H   UNL     1       7.419  -2.928  -4.318  1.00  0.00     0.296 HD
ENDBRANCH   2   4
ENDBRANCH   1   2
BRANCH   1   6
ATOM      6  C   UNL     1       7.058  -0.138  -2.106  1.00  0.00     0.047 C 
BRANCH   6   7
ATOM      7  C   UNL     1       6.499   0.037  -0.767  1.00  0.00    -0.047 A 
ATOM      8  C   UNL     1       5.859   1.204  -0.419  1.00  0.00     0.004 A 
ATOM      9  C   UNL     1       6.618  -0.982   0.149  1.00  0.00     0.004 A 
ATOM     10  C   UNL     1       5.349   1.302   0.878  1.00  0.00     0.000 A 
ATOM     11  C   UNL     1       6.114  -0.884   1.431  1.00  0.00     0.000 A 
ATOM     12  C   UNL     1       5.472   0.282   1.787  1.00  0.00     0.000 A 
ENDBRANCH   6   7
ENDBRANCH   1   6
TORSDOF 4
ENDMDL
MODEL 2
REMARK VINA RESULT:      -6.9      0.150      1.444
REMARK SMILES O=C(O)CCc1ccccc1
REMARK SMILES IDX 4 1 2 2 1 3 3 4 5 6 6 7 7 8 11 9 8 10 10 11 9 12
REMARK H PARENT 3 5
REMARK Flexibility Score: inf
ROOT
ATOM      1  C   UNL     1       8.448  -0.457  -2.110  1.00  0.00     0.127 C 
ENDROOT
BRANCH   1   2
ATOM      2  C   UNL     1       8.602  -1.771  -2.779  1.00  0.00     0.303 C 
ATOM      3  O   UNL     1       9.720  -2.339  -2.849  1.00  0.00    -0.252 OA
BRANCH   2   4
ATOM      4  O   UNL     1       7.512  -2.409  -3.348  1.00  0.00    -0.481 OA
ATOM      5  H   UNL     1       6.567  -2.146  -3.054  1.00  0.00     0.296 HD
ENDBRANCH   2   4
ENDBRANCH   1   2
BRANCH   1   6
ATOM      6  C   UNL     1       6.989  -0.118  -2.068  1.00  0.00     0.047 C 
BRANCH   6   7
ATOM      7  C   UNL     1       6.452   0.027  -0.716  1.00  0.00    -0.047 A 
ATOM      8  C   UNL     1       6.554  -0.998   0.196  1.00  0.00     0.004 A 
ATOM      9  C   UNL     1       5.840   1.207  -0.360  1.00  0.00     0.004 A 
ATOM     10  C   UNL     1       6.019  -0.789   1.469  1.00  0.00     0.000 A 
ATOM     11  C   UNL     1       5.311   1.412   0.899  1.00  0.00     0.000 A 
ATOM     12  C   UNL     1       5.409   0.390   1.818  1.00  0.00     0.000 A 
ENDBRANCH   6   7
ENDBRANCH   1   6
TORSDOF 4
ENDMDL
MODEL 3
REMARK VINA RESULT:      -6.8      0.621      1.081
REMARK SMILES O=C(O)CCc1ccccc1
REMARK SMILES IDX 4 1 2 2 1 3 3 4 5 6 6 7 7 8 11 9 8 10 10 11 9 12
REMARK H PARENT 3 5
REMARK Flexibility Score: inf
ROOT
ATOM      1  C   UNL     1       8.149  -0.852  -1.971  1.00  0.00     0.127 C 
ENDROOT
BRANCH   1   2
ATOM      2  C   UNL     1       8.350  -1.996  -2.891  1.00  0.00     0.303 C 
ATOM      3  O   UNL     1       9.495  -2.469  -3.101  1.00  0.00    -0.252 OA
BRANCH   2   4
ATOM      4  O   UNL     1       7.277  -2.576  -3.549  1.00  0.00    -0.481 OA
ATOM      5  H   UNL     1       6.674  -3.230  -3.042  1.00  0.00     0.296 HD
ENDBRANCH   2   4
ENDBRANCH   1   2
BRANCH   1   6
ATOM      6  C   UNL     1       7.311  -1.317  -0.819  1.00  0.00     0.047 C 
BRANCH   6   7
ATOM      7  C   UNL     1       6.508  -0.261  -0.204  1.00  0.00    -0.047 A 
ATOM      8  C   UNL     1       6.164   0.865  -0.914  1.00  0.00     0.004 A 
ATOM      9  C   UNL     1       6.095  -0.406   1.101  1.00  0.00     0.004 A 
ATOM     10  C   UNL     1       5.394   1.832  -0.263  1.00  0.00     0.000 A 
ATOM     11  C   UNL     1       5.335   0.551   1.743  1.00  0.00     0.000 A 
ATOM     12  C   UNL     1       4.986   1.683   1.038  1.00  0.00     0.000 A 
ENDBRANCH   6   7
ENDBRANCH   1   6
TORSDOF 4
ENDMDL
MODEL 4
REMARK VINA RESULT:      -6.6      1.527      2.357
REMARK SMILES O=C(O)CCc1ccccc1
REMARK SMILES IDX 4 1 2 2 1 3 3 4 5 6 6 7 7 8 11 9 8 10 10 11 9 12
REMARK H PARENT 3 5
REMARK Flexibility Score: inf
ROOT
ATOM      1  C   UNL     1       8.164   0.316  -2.230  1.00  0.00     0.127 C 
ENDROOT
BRANCH   1   2
ATOM      2  C   UNL     1       9.513   0.056  -1.674  1.00  0.00     0.303 C 
ATOM      3  O   UNL     1      10.005  -1.099  -1.673  1.00  0.00    -0.252 OA
BRANCH   2   4
ATOM      4  O   UNL     1      10.270   1.086  -1.138  1.00  0.00    -0.481 OA
ATOM      5  H   UNL     1      11.281   0.965  -1.040  1.00  0.00     0.296 HD
ENDBRANCH   2   4
ENDBRANCH   1   2
BRANCH   1   6
ATOM      6  C   UNL     1       7.216  -0.692  -1.654  1.00  0.00     0.047 C 
BRANCH   6   7
ATOM      7  C   UNL     1       6.520  -0.235  -0.452  1.00  0.00    -0.047 A 
ATOM      8  C   UNL     1       6.453  -1.032   0.667  1.00  0.00     0.004 A 
ATOM      9  C   UNL     1       5.932   1.008  -0.449  1.00  0.00     0.004 A 
ATOM     10  C   UNL     1       5.774  -0.531   1.780  1.00  0.00     0.000 A 
ATOM     11  C   UNL     1       5.260   1.502   0.652  1.00  0.00     0.000 A 
ATOM     12  C   UNL     1       5.188   0.710   1.777  1.00  0.00     0.000 A 
ENDBRANCH   6   7
ENDBRANCH   1   6
TORSDOF 4
ENDMDL
MODEL 5
REMARK VINA RESULT:      -6.6      1.554      1.925
REMARK SMILES O=C(O)CCc1ccccc1
REMARK SMILES IDX 4 1 2 2 1 3 3 4 5 6 6 7 7 8 11 9 8 10 10 11 9 12
REMARK H PARENT 3 5
REMARK Flexibility Score: inf
ROOT
ATOM      1  C   UNL     1       8.267   0.276  -2.229  1.00  0.00     0.127 C 
ENDROOT
BRANCH   1   2
ATOM      2  C   UNL     1       9.508  -0.001  -1.468  1.00  0.00     0.303 C 
ATOM      3  O   UNL     1       9.803  -1.167  -1.106  1.00  0.00    -0.252 OA
BRANCH   2   4
ATOM      4  O   UNL     1      10.379   1.023  -1.134  1.00  0.00    -0.481 OA
ATOM      5  H   UNL     1      11.267   1.109  -1.636  1.00  0.00     0.296 HD
ENDBRANCH   2   4
ENDBRANCH   1   2
BRANCH   1   6
ATOM      6  C   UNL     1       7.193  -0.640  -1.727  1.00  0.00     0.047 C 
BRANCH   6   7
ATOM      7  C   UNL     1       6.499  -0.149  -0.538  1.00  0.00    -0.047 A 
ATOM      8  C   UNL     1       5.915   1.096  -0.528  1.00  0.00     0.004 A 
ATOM      9  C   UNL     1       6.434  -0.949   0.580  1.00  0.00     0.004 A 
ATOM     10  C   UNL     1       5.269   1.500   0.642  1.00  0.00     0.000 A 
ATOM     11  C   UNL     1       5.795  -0.548   1.736  1.00  0.00     0.000 A 
ATOM     12  C   UNL     1       5.208   0.699   1.754  1.00  0.00     0.000 A 
ENDBRANCH   6   7
ENDBRANCH   1   6
TORSDOF 4
ENDMDL
