@<TRIPOS>MOLECULE
/home/cewinharhar/GITHUB/reincatalyze/data/processed/docking_pred/2023-Apr-26-1657_maxeplen10_maxtrainstep1000_exh32_gamma099_lrac9e-4_lrcr1e-3/93c3770ef064b633c902e85f3368d9330fbaaeb8_ligand_2.pdbqt
 12 12 0 0 0
SMALL
GASTEIGER

@<TRIPOS>ATOM
      1  C          8.1490   -0.8520   -1.9710 C.3     1  UNL1        0.1270
      2  C          8.3500   -1.9960   -2.8910 C.2     1  UNL1        0.3030
      3  O          9.4950   -2.4690   -3.1010 O.2     1  UNL1       -0.2520
      4  O          7.2770   -2.5760   -3.5490 O.3     1  UNL1       -0.4810
      5  H          6.6740   -3.2300   -3.0420 H       1  UNL1        0.2960
      6  C          7.3110   -1.3170   -0.8190 C.3     1  UNL1        0.0470
      7  C          6.5080   -0.2610   -0.2040 C.2     1  UNL1       -0.0470
      8  C          6.1640    0.8650   -0.9140 C.2     1  UNL1        0.0040
      9  C          6.0950   -0.4060    1.1010 C.2     1  UNL1        0.0040
     10  C          5.3940    1.8320   -0.2630 C.2     1  UNL1        0.0000
     11  C          5.3350    0.5510    1.7430 C.2     1  UNL1        0.0000
     12  C          4.9860    1.6830    1.0380 C.2     1  UNL1        0.0000
@<TRIPOS>BOND
     1     4     5    1
     2     4     2    1
     3     3     2    2
     4     2     1    1
     5     1     6    1
     6     8    10    1
     7     8     7    2
     8     6     7    1
     9    10    12    2
    10     7     9    1
    11    12    11    1
    12     9    11    2
