@<TRIPOS>MOLECULE
/home/cewinharhar/GITHUB/reincatalyze/data/processed/docking_pred/2023-Apr-26-1657_maxeplen10_maxtrainstep1000_exh32_gamma099_lrac9e-4_lrcr1e-3/93c3770ef064b633c902e85f3368d9330fbaaeb8_ligand_2.pdbqt
 12 12 0 0 0
SMALL
GASTEIGER

@<TRIPOS>ATOM
      1  C          8.2670    0.2760   -2.2290 C.3     1  UNL1        0.1270
      2  C          9.5080   -0.0010   -1.4680 C.2     1  UNL1        0.3030
      3  O          9.8030   -1.1670   -1.1060 O.2     1  UNL1       -0.2520
      4  O         10.3790    1.0230   -1.1340 O.3     1  UNL1       -0.4810
      5  H         11.2670    1.1090   -1.6360 H       1  UNL1        0.2960
      6  C          7.1930   -0.6400   -1.7270 C.3     1  UNL1        0.0470
      7  C          6.4990   -0.1490   -0.5380 C.2     1  UNL1       -0.0470
      8  C          5.9150    1.0960   -0.5280 C.2     1  UNL1        0.0040
      9  C          6.4340   -0.9490    0.5800 C.2     1  UNL1        0.0040
     10  C          5.2690    1.5000    0.6420 C.2     1  UNL1        0.0000
     11  C          5.7950   -0.5480    1.7360 C.2     1  UNL1        0.0000
     12  C          5.2080    0.6990    1.7540 C.2     1  UNL1        0.0000
@<TRIPOS>BOND
     1     1     6    1
     2     1     2    1
     3     6     7    1
     4     5     4    1
     5     2     4    1
     6     2     3    2
     7     7     8    2
     8     7     9    1
     9     8    10    1
    10     9    11    2
    11    10    12    2
    12    11    12    1
