@<TRIPOS>MOLECULE
/home/cewinharhar/GITHUB/reincatalyze/data/processed/docking_pred/2023-Apr-26-1657_maxeplen10_maxtrainstep1000_exh32_gamma099_lrac9e-4_lrcr1e-3/93f5b296c54773c487a3666b5d29638d3a74aef5_ligand_2.pdbqt
 12 12 0 0 0
SMALL
GASTEIGER

@<TRIPOS>ATOM
      1  C          8.0390   -0.7980   -2.0410 C.3     1  UNL1        0.1270
      2  C          8.2930   -1.9710   -2.9100 C.2     1  UNL1        0.3030
      3  O          9.4510   -2.4350   -3.0550 O.2     1  UNL1       -0.2520
      4  O          7.2550   -2.5880   -3.5900 O.3     1  UNL1       -0.4810
      5  H          6.9450   -3.5180   -3.2930 H       1  UNL1        0.2960
      6  C          7.3370   -1.2710   -0.8050 C.3     1  UNL1        0.0470
      7  C          6.5150   -0.2490   -0.1600 C.2     1  UNL1       -0.0470
      8  C          6.0840   -0.4080    1.1370 C.2     1  UNL1        0.0040
      9  C          6.1750    0.8830   -0.8650 C.2     1  UNL1        0.0040
     10  C          5.3030    0.6090    1.6900 C.2     1  UNL1        0.0000
     11  C          5.4020    1.8870   -0.3170 C.2     1  UNL1        0.0000
     12  C          4.9660    1.7350    0.9820 C.2     1  UNL1        0.0000
@<TRIPOS>BOND
     1     4     5    1
     2     4     2    1
     3     3     2    2
     4     2     1    1
     5     1     6    1
     6     9    11    1
     7     9     7    2
     8     6     7    1
     9    11    12    2
    10     7     8    1
    11    12    10    1
    12     8    10    2
