@<TRIPOS>MOLECULE
/home/cewinharhar/GITHUB/reincatalyze/data/processed/docking_pred/2023-Apr-26-1657_maxeplen10_maxtrainstep1000_exh32_gamma099_lrac9e-4_lrcr1e-3/93f5b296c54773c487a3666b5d29638d3a74aef5_ligand_2.pdbqt
 12 12 0 0 0
SMALL
GASTEIGER

@<TRIPOS>ATOM
      1  C          8.4430   -0.6610   -2.0830 C.3     1  UNL1        0.1270
      2  C          8.4790   -1.9060   -2.8860 C.2     1  UNL1        0.3030
      3  O          9.5600   -2.5040   -3.1110 O.2     1  UNL1       -0.2520
      4  O          7.3160   -2.4440   -3.4130 O.3     1  UNL1       -0.4810
      5  H          6.4880   -2.5290   -2.8170 H       1  UNL1        0.2960
      6  C          7.0420   -0.1300   -2.1000 C.3     1  UNL1        0.0470
      7  C          6.4700    0.0790   -0.7710 C.2     1  UNL1       -0.0470
      8  C          5.8190    1.2510   -0.4620 C.2     1  UNL1        0.0040
      9  C          6.5850   -0.9140    0.1730 C.2     1  UNL1        0.0040
     10  C          5.2960    1.3820    0.8260 C.2     1  UNL1        0.0000
     11  C          6.0680   -0.7830    1.4470 C.2     1  UNL1        0.0000
     12  C          5.4150    0.3880    1.7650 C.2     1  UNL1        0.0000
@<TRIPOS>BOND
     1     4     2    1
     2     4     5    1
     3     3     2    2
     4     2     1    1
     5     6     1    1
     6     6     7    1
     7     7     8    2
     8     7     9    1
     9     8    10    1
    10     9    11    2
    11    10    12    2
    12    11    12    1
