@<TRIPOS>MOLECULE
/home/cewinharhar/GITHUB/reincatalyze/data/processed/docking_pred/2023-Apr-26-1657_maxeplen10_maxtrainstep1000_exh32_gamma099_lrac9e-4_lrcr1e-3/93f5b296c54773c487a3666b5d29638d3a74aef5_ligand_2.pdbqt
 12 12 0 0 0
SMALL
GASTEIGER

@<TRIPOS>ATOM
      1  C          8.2040    0.2580   -2.2240 C.3     1  UNL1        0.1270
      2  C          9.3330    0.3470   -1.2680 C.2     1  UNL1        0.3030
      3  O          9.4160   -0.4300   -0.2850 O.2     1  UNL1       -0.2520
      4  O         10.3300    1.2950   -1.4330 O.3     1  UNL1       -0.4810
      5  H         10.8970    1.5720   -0.6270 H       1  UNL1        0.2960
      6  C          7.0900   -0.4980   -1.5670 C.3     1  UNL1        0.0470
      7  C          6.3190    0.2930   -0.6090 C.2     1  UNL1       -0.0470
      8  C          6.0960   -0.1700    0.6670 C.2     1  UNL1        0.0040
      9  C          5.8170    1.5140   -0.9960 C.2     1  UNL1        0.0040
     10  C          5.3530    0.6390    1.5290 C.2     1  UNL1        0.0000
     11  C          5.0820    2.3120   -0.1420 C.2     1  UNL1        0.0000
     12  C          4.8540    1.8550    1.1380 C.2     1  UNL1        0.0000
@<TRIPOS>BOND
     1     1     6    1
     2     1     2    1
     3     6     7    1
     4     4     2    1
     5     4     5    1
     6     2     3    2
     7     9     7    2
     8     9    11    1
     9     7     8    1
    10    11    12    2
    11     8    10    2
    12    12    10    1
