MODEL 1
REMARK VINA RESULT:      -7.4      0.000      0.000
REMARK SMILES O=C(O)CCc1ccccc1
REMARK SMILES IDX 4 1 2 2 1 3 3 4 5 6 6 7 7 8 11 9 8 10 10 11 9 12
REMARK H PARENT 3 5
REMARK Flexibility Score: inf
ROOT
ATOM      1  C   UNL     1       8.443  -0.661  -2.083  1.00  0.00     0.127 C 
ENDROOT
BRANCH   1   2
ATOM      2  C   UNL     1       8.479  -1.906  -2.886  1.00  0.00     0.303 C 
ATOM      3  O   UNL     1       9.560  -2.504  -3.111  1.00  0.00    -0.252 OA
BRANCH   2   4
ATOM      4  O   UNL     1       7.316  -2.444  -3.413  1.00  0.00    -0.481 OA
ATOM      5  H   UNL     1       6.488  -2.529  -2.817  1.00  0.00     0.296 HD
ENDBRANCH   2   4
ENDBRANCH   1   2
BRANCH   1   6
ATOM      6  C   UNL     1       7.042  -0.130  -2.100  1.00  0.00     0.047 C 
BRANCH   6   7
ATOM      7  C   UNL     1       6.470   0.079  -0.771  1.00  0.00    -0.047 A 
ATOM      8  C   UNL     1       5.819   1.251  -0.462  1.00  0.00     0.004 A 
ATOM      9  C   UNL     1       6.585  -0.914   0.173  1.00  0.00     0.004 A 
ATOM     10  C   UNL     1       5.296   1.382   0.826  1.00  0.00     0.000 A 
ATOM     11  C   UNL     1       6.068  -0.783   1.447  1.00  0.00     0.000 A 
ATOM     12  C   UNL     1       5.415   0.388   1.765  1.00  0.00     0.000 A 
ENDBRANCH   6   7
ENDBRANCH   1   6
TORSDOF 4
ENDMDL
MODEL 2
REMARK VINA RESULT:      -7.3      0.109      1.440
REMARK SMILES O=C(O)CCc1ccccc1
REMARK SMILES IDX 4 1 2 2 1 3 3 4 5 6 6 7 7 8 11 9 8 10 10 11 9 12
REMARK H PARENT 3 5
REMARK Flexibility Score: inf
ROOT
ATOM      1  C   UNL     1       8.427  -0.533  -2.277  1.00  0.00     0.127 C 
ENDROOT
BRANCH   1   2
ATOM      2  C   UNL     1       8.484  -1.852  -2.951  1.00  0.00     0.303 C 
ATOM      3  O   UNL     1       9.573  -2.458  -3.104  1.00  0.00    -0.252 OA
BRANCH   2   4
ATOM      4  O   UNL     1       7.332  -2.453  -3.434  1.00  0.00    -0.481 OA
ATOM      5  H   UNL     1       6.538  -2.593  -2.803  1.00  0.00     0.296 HD
ENDBRANCH   2   4
ENDBRANCH   1   2
BRANCH   1   6
ATOM      6  C   UNL     1       6.992  -0.106  -2.199  1.00  0.00     0.047 C 
BRANCH   6   7
ATOM      7  C   UNL     1       6.489   0.039  -0.835  1.00  0.00    -0.047 A 
ATOM      8  C   UNL     1       6.629  -0.979   0.079  1.00  0.00     0.004 A 
ATOM      9  C   UNL     1       5.871   1.213  -0.469  1.00  0.00     0.004 A 
ATOM     10  C   UNL     1       6.125  -0.770   1.365  1.00  0.00     0.000 A 
ATOM     11  C   UNL     1       5.373   1.417   0.802  1.00  0.00     0.000 A 
ATOM     12  C   UNL     1       5.508   0.402   1.724  1.00  0.00     0.000 A 
ENDBRANCH   6   7
ENDBRANCH   1   6
TORSDOF 4
ENDMDL
MODEL 3
REMARK VINA RESULT:      -7.2      0.604      1.606
REMARK SMILES O=C(O)CCc1ccccc1
REMARK SMILES IDX 4 1 2 2 1 3 3 4 5 6 6 7 7 8 11 9 8 10 10 11 9 12
REMARK H PARENT 3 5
REMARK Flexibility Score: inf
ROOT
ATOM      1  C   UNL     1       8.039  -0.798  -2.041  1.00  0.00     0.127 C 
ENDROOT
BRANCH   1   2
ATOM      2  C   UNL     1       8.293  -1.971  -2.910  1.00  0.00     0.303 C 
ATOM      3  O   UNL     1       9.451  -2.435  -3.055  1.00  0.00    -0.252 OA
BRANCH   2   4
ATOM      4  O   UNL     1       7.255  -2.588  -3.590  1.00  0.00    -0.481 OA
ATOM      5  H   UNL     1       6.945  -3.518  -3.293  1.00  0.00     0.296 HD
ENDBRANCH   2   4
ENDBRANCH   1   2
BRANCH   1   6
ATOM      6  C   UNL     1       7.337  -1.271  -0.805  1.00  0.00     0.047 C 
BRANCH   6   7
ATOM      7  C   UNL     1       6.515  -0.249  -0.160  1.00  0.00    -0.047 A 
ATOM      8  C   UNL     1       6.084  -0.408   1.137  1.00  0.00     0.004 A 
ATOM      9  C   UNL     1       6.175   0.883  -0.865  1.00  0.00     0.004 A 
ATOM     10  C   UNL     1       5.303   0.609   1.690  1.00  0.00     0.000 A 
ATOM     11  C   UNL     1       5.402   1.887  -0.317  1.00  0.00     0.000 A 
ATOM     12  C   UNL     1       4.966   1.735   0.982  1.00  0.00     0.000 A 
ENDBRANCH   6   7
ENDBRANCH   1   6
TORSDOF 4
ENDMDL
MODEL 4
REMARK VINA RESULT:      -6.8      3.375      5.085
REMARK SMILES O=C(O)CCc1ccccc1
REMARK SMILES IDX 4 1 2 2 1 3 3 4 5 6 6 7 7 8 11 9 8 10 10 11 9 12
REMARK H PARENT 3 5
REMARK Flexibility Score: inf
ROOT
ATOM      1  C   UNL     1       4.993   1.797   0.700  1.00  0.00     0.127 C 
ENDROOT
BRANCH   1   2
ATOM      2  C   UNL     1       4.489   1.114   1.915  1.00  0.00     0.303 C 
ATOM      3  O   UNL     1       5.158   0.214   2.481  1.00  0.00    -0.252 OA
BRANCH   2   4
ATOM      4  O   UNL     1       3.260   1.450   2.460  1.00  0.00    -0.481 OA
ATOM      5  H   UNL     1       2.419   0.964   2.138  1.00  0.00     0.296 HD
ENDBRANCH   2   4
ENDBRANCH   1   2
BRANCH   1   6
ATOM      6  C   UNL     1       6.491   1.795   0.747  1.00  0.00     0.047 C 
BRANCH   6   7
ATOM      7  C   UNL     1       7.118   1.040  -0.337  1.00  0.00    -0.047 A 
ATOM      8  C   UNL     1       6.387   0.149  -1.088  1.00  0.00     0.004 A 
ATOM      9  C   UNL     1       8.454   1.231  -0.603  1.00  0.00     0.004 A 
ATOM     10  C   UNL     1       7.051  -0.537  -2.108  1.00  0.00     0.000 A 
ATOM     11  C   UNL     1       9.109   0.553  -1.611  1.00  0.00     0.000 A 
ATOM     12  C   UNL     1       8.384  -0.343  -2.368  1.00  0.00     0.000 A 
ENDBRANCH   6   7
ENDBRANCH   1   6
TORSDOF 4
ENDMDL
MODEL 5
REMARK VINA RESULT:      -6.7      1.912      2.652
REMARK SMILES O=C(O)CCc1ccccc1
REMARK SMILES IDX 4 1 2 2 1 3 3 4 5 6 6 7 7 8 11 9 8 10 10 11 9 12
REMARK H PARENT 3 5
REMARK Flexibility Score: inf
ROOT
ATOM      1  C   UNL     1       8.204   0.258  -2.224  1.00  0.00     0.127 C 
ENDROOT
BRANCH   1   2
ATOM      2  C   UNL     1       9.333   0.347  -1.268  1.00  0.00     0.303 C 
ATOM      3  O   UNL     1       9.416  -0.430  -0.285  1.00  0.00    -0.252 OA
BRANCH   2   4
ATOM      4  O   UNL     1      10.330   1.295  -1.433  1.00  0.00    -0.481 OA
ATOM      5  H   UNL     1      10.897   1.572  -0.627  1.00  0.00     0.296 HD
ENDBRANCH   2   4
ENDBRANCH   1   2
BRANCH   1   6
ATOM      6  C   UNL     1       7.090  -0.498  -1.567  1.00  0.00     0.047 C 
BRANCH   6   7
ATOM      7  C   UNL     1       6.319   0.293  -0.609  1.00  0.00    -0.047 A 
ATOM      8  C   UNL     1       6.096  -0.170   0.667  1.00  0.00     0.004 A 
ATOM      9  C   UNL     1       5.817   1.514  -0.996  1.00  0.00     0.004 A 
ATOM     10  C   UNL     1       5.353   0.639   1.529  1.00  0.00     0.000 A 
ATOM     11  C   UNL     1       5.082   2.312  -0.142  1.00  0.00     0.000 A 
ATOM     12  C   UNL     1       4.854   1.855   1.138  1.00  0.00     0.000 A 
ENDBRANCH   6   7
ENDBRANCH   1   6
TORSDOF 4
ENDMDL
