@<TRIPOS>MOLECULE
/home/cewinharhar/GITHUB/reincatalyze/data/processed/docking_pred/2023-Apr-26-1657_maxeplen10_maxtrainstep1000_exh32_gamma099_lrac9e-4_lrcr1e-3/93f5b296c54773c487a3666b5d29638d3a74aef5_ligand_2.pdbqt
 12 12 0 0 0
SMALL
GASTEIGER

@<TRIPOS>ATOM
      1  C          4.9930    1.7970    0.7000 C.3     1  UNL1        0.1270
      2  C          4.4890    1.1140    1.9150 C.2     1  UNL1        0.3030
      3  O          5.1580    0.2140    2.4810 O.2     1  UNL1       -0.2520
      4  O          3.2600    1.4500    2.4600 O.3     1  UNL1       -0.4810
      5  H          2.4190    0.9640    2.1380 H       1  UNL1        0.2960
      6  C          6.4910    1.7950    0.7470 C.3     1  UNL1        0.0470
      7  C          7.1180    1.0400   -0.3370 C.2     1  UNL1       -0.0470
      8  C          6.3870    0.1490   -1.0880 C.2     1  UNL1        0.0040
      9  C          8.4540    1.2310   -0.6030 C.2     1  UNL1        0.0040
     10  C          7.0510   -0.5370   -2.1080 C.2     1  UNL1        0.0000
     11  C          9.1090    0.5530   -1.6110 C.2     1  UNL1        0.0000
     12  C          8.3840   -0.3430   -2.3680 C.2     1  UNL1        0.0000
@<TRIPOS>BOND
     1    12    10    2
     2    12    11    1
     3    10     8    1
     4    11     9    2
     5     8     7    2
     6     9     7    1
     7     7     6    1
     8     1     6    1
     9     1     2    1
    10     2     4    1
    11     2     3    2
    12     5     4    1
