@<TRIPOS>MOLECULE
/home/cewinharhar/GITHUB/reincatalyze/data/processed/docking_pred/2023-Apr-26-1657_maxeplen10_maxtrainstep1000_exh32_gamma099_lrac9e-4_lrcr1e-3/93f5b296c54773c487a3666b5d29638d3a74aef5_ligand_2.pdbqt
 12 12 0 0 0
SMALL
GASTEIGER

@<TRIPOS>ATOM
      1  C          8.4270   -0.5330   -2.2770 C.3     1  UNL1        0.1270
      2  C          8.4840   -1.8520   -2.9510 C.2     1  UNL1        0.3030
      3  O          9.5730   -2.4580   -3.1040 O.2     1  UNL1       -0.2520
      4  O          7.3320   -2.4530   -3.4340 O.3     1  UNL1       -0.4810
      5  H          6.5380   -2.5930   -2.8030 H       1  UNL1        0.2960
      6  C          6.9920   -0.1060   -2.1990 C.3     1  UNL1        0.0470
      7  C          6.4890    0.0390   -0.8350 C.2     1  UNL1       -0.0470
      8  C          6.6290   -0.9790    0.0790 C.2     1  UNL1        0.0040
      9  C          5.8710    1.2130   -0.4690 C.2     1  UNL1        0.0040
     10  C          6.1250   -0.7700    1.3650 C.2     1  UNL1        0.0000
     11  C          5.3730    1.4170    0.8020 C.2     1  UNL1        0.0000
     12  C          5.5080    0.4020    1.7240 C.2     1  UNL1        0.0000
@<TRIPOS>BOND
     1     4     2    1
     2     4     5    1
     3     3     2    2
     4     2     1    1
     5     1     6    1
     6     6     7    1
     7     7     9    2
     8     7     8    1
     9     9    11    1
    10     8    10    2
    11    11    12    2
    12    10    12    1
