@<TRIPOS>MOLECULE
/home/cewinharhar/GITHUB/reincatalyze/data/processed/docking_pred/2023-Apr-26-1657_maxeplen10_maxtrainstep1000_exh32_gamma099_lrac9e-4_lrcr1e-3/9545d038953ad0bd3b50a81295f717fe73892d7b_ligand_2.pdbqt
 12 12 0 0 0
SMALL
GASTEIGER

@<TRIPOS>ATOM
      1  C          8.4250   -0.5950   -2.1710 C.3     1  UNL1        0.1270
      2  C          8.4720   -1.8770   -2.9120 C.2     1  UNL1        0.3030
      3  O          9.5560   -2.4860   -3.0920 O.2     1  UNL1       -0.2520
      4  O          7.3170   -2.4420   -3.4290 O.3     1  UNL1       -0.4810
      5  H          6.6750   -2.9340   -2.8010 H       1  UNL1        0.2960
      6  C          7.0020   -0.1250   -2.1350 C.3     1  UNL1        0.0470
      7  C          6.4700    0.0530   -0.7850 C.2     1  UNL1       -0.0470
      8  C          5.8450    1.2250   -0.4240 C.2     1  UNL1        0.0040
      9  C          6.5970   -0.9680    0.1270 C.2     1  UNL1        0.0040
     10  C          5.3590    1.3250    0.8810 C.2     1  UNL1        0.0000
     11  C          6.1170   -0.8680    1.4180 C.2     1  UNL1        0.0000
     12  C          5.4900    0.3030    1.7880 C.2     1  UNL1        0.0000
@<TRIPOS>BOND
     1     4     2    1
     2     4     5    1
     3     3     2    2
     4     2     1    1
     5     1     6    1
     6     6     7    1
     7     7     8    2
     8     7     9    1
     9     8    10    1
    10     9    11    2
    11    10    12    2
    12    11    12    1
