MODEL 1
REMARK VINA RESULT:      -7.3      0.000      0.000
REMARK SMILES O=C(O)CCc1ccccc1
REMARK SMILES IDX 4 1 2 2 1 3 3 4 5 6 6 7 7 8 11 9 8 10 10 11 9 12
REMARK H PARENT 3 5
REMARK Flexibility Score: inf
ROOT
ATOM      1  C   UNL     1       8.462  -0.674  -2.075  1.00  0.00     0.127 C 
ENDROOT
BRANCH   1   2
ATOM      2  C   UNL     1       8.477  -1.918  -2.880  1.00  0.00     0.303 C 
ATOM      3  O   UNL     1       9.545  -2.544  -3.091  1.00  0.00    -0.252 OA
BRANCH   2   4
ATOM      4  O   UNL     1       7.308  -2.427  -3.422  1.00  0.00    -0.481 OA
ATOM      5  H   UNL     1       6.837  -3.207  -2.956  1.00  0.00     0.296 HD
ENDBRANCH   2   4
ENDBRANCH   1   2
BRANCH   1   6
ATOM      6  C   UNL     1       7.066  -0.131  -2.074  1.00  0.00     0.047 C 
BRANCH   6   7
ATOM      7  C   UNL     1       6.491   0.029  -0.740  1.00  0.00    -0.047 A 
ATOM      8  C   UNL     1       6.598  -0.972   0.197  1.00  0.00     0.004 A 
ATOM      9  C   UNL     1       5.839   1.199  -0.425  1.00  0.00     0.004 A 
ATOM     10  C   UNL     1       6.026  -0.750   1.452  1.00  0.00     0.000 A 
ATOM     11  C   UNL     1       5.274   1.417   0.815  1.00  0.00     0.000 A 
ATOM     12  C   UNL     1       5.376   0.418   1.759  1.00  0.00     0.000 A 
ENDBRANCH   6   7
ENDBRANCH   1   6
TORSDOF 4
ENDMDL
MODEL 2
REMARK VINA RESULT:      -7.3      0.100      1.439
REMARK SMILES O=C(O)CCc1ccccc1
REMARK SMILES IDX 4 1 2 2 1 3 3 4 5 6 6 7 7 8 11 9 8 10 10 11 9 12
REMARK H PARENT 3 5
REMARK Flexibility Score: inf
ROOT
ATOM      1  C   UNL     1       8.425  -0.595  -2.171  1.00  0.00     0.127 C 
ENDROOT
BRANCH   1   2
ATOM      2  C   UNL     1       8.472  -1.877  -2.912  1.00  0.00     0.303 C 
ATOM      3  O   UNL     1       9.556  -2.486  -3.092  1.00  0.00    -0.252 OA
BRANCH   2   4
ATOM      4  O   UNL     1       7.317  -2.442  -3.429  1.00  0.00    -0.481 OA
ATOM      5  H   UNL     1       6.675  -2.934  -2.801  1.00  0.00     0.296 HD
ENDBRANCH   2   4
ENDBRANCH   1   2
BRANCH   1   6
ATOM      6  C   UNL     1       7.002  -0.125  -2.135  1.00  0.00     0.047 C 
BRANCH   6   7
ATOM      7  C   UNL     1       6.470   0.053  -0.785  1.00  0.00    -0.047 A 
ATOM      8  C   UNL     1       5.845   1.225  -0.424  1.00  0.00     0.004 A 
ATOM      9  C   UNL     1       6.597  -0.968   0.127  1.00  0.00     0.004 A 
ATOM     10  C   UNL     1       5.359   1.325   0.881  1.00  0.00     0.000 A 
ATOM     11  C   UNL     1       6.117  -0.868   1.418  1.00  0.00     0.000 A 
ATOM     12  C   UNL     1       5.490   0.303   1.788  1.00  0.00     0.000 A 
ENDBRANCH   6   7
ENDBRANCH   1   6
TORSDOF 4
ENDMDL
MODEL 3
REMARK VINA RESULT:      -7.2      0.602      1.049
REMARK SMILES O=C(O)CCc1ccccc1
REMARK SMILES IDX 4 1 2 2 1 3 3 4 5 6 6 7 7 8 11 9 8 10 10 11 9 12
REMARK H PARENT 3 5
REMARK Flexibility Score: inf
ROOT
ATOM      1  C   UNL     1       8.248  -0.912  -1.882  1.00  0.00     0.127 C 
ENDROOT
BRANCH   1   2
ATOM      2  C   UNL     1       8.388  -2.031  -2.844  1.00  0.00     0.303 C 
ATOM      3  O   UNL     1       9.510  -2.539  -3.092  1.00  0.00    -0.252 OA
BRANCH   2   4
ATOM      4  O   UNL     1       7.282  -2.547  -3.499  1.00  0.00    -0.481 OA
ATOM      5  H   UNL     1       7.394  -3.366  -4.103  1.00  0.00     0.296 HD
ENDBRANCH   2   4
ENDBRANCH   1   2
BRANCH   1   6
ATOM      6  C   UNL     1       7.450  -1.396  -0.710  1.00  0.00     0.047 C 
BRANCH   6   7
ATOM      7  C   UNL     1       6.604  -0.370  -0.102  1.00  0.00    -0.047 A 
ATOM      8  C   UNL     1       6.150  -0.507   1.189  1.00  0.00     0.004 A 
ATOM      9  C   UNL     1       6.266   0.743  -0.837  1.00  0.00     0.004 A 
ATOM     10  C   UNL     1       5.348   0.512   1.706  1.00  0.00     0.000 A 
ATOM     11  C   UNL     1       5.472   1.750  -0.324  1.00  0.00     0.000 A 
ATOM     12  C   UNL     1       5.012   1.620   0.968  1.00  0.00     0.000 A 
ENDBRANCH   6   7
ENDBRANCH   1   6
TORSDOF 4
ENDMDL
MODEL 4
REMARK VINA RESULT:      -7.1      0.623      1.848
REMARK SMILES O=C(O)CCc1ccccc1
REMARK SMILES IDX 4 1 2 2 1 3 3 4 5 6 6 7 7 8 11 9 8 10 10 11 9 12
REMARK H PARENT 3 5
REMARK Flexibility Score: inf
ROOT
ATOM      1  C   UNL     1       8.343  -0.866  -1.824  1.00  0.00     0.127 C 
ENDROOT
BRANCH   1   2
ATOM      2  C   UNL     1       8.337  -1.965  -2.818  1.00  0.00     0.303 C 
ATOM      3  O   UNL     1       7.263  -2.397  -3.304  1.00  0.00    -0.252 OA
BRANCH   2   4
ATOM      4  O   UNL     1       9.522  -2.548  -3.239  1.00  0.00    -0.481 OA
ATOM      5  H   UNL     1      10.260  -2.733  -2.554  1.00  0.00     0.296 HD
ENDBRANCH   2   4
ENDBRANCH   1   2
BRANCH   1   6
ATOM      6  C   UNL     1       7.596  -1.325  -0.610  1.00  0.00     0.047 C 
BRANCH   6   7
ATOM      7  C   UNL     1       6.681  -0.325  -0.062  1.00  0.00    -0.047 A 
ATOM      8  C   UNL     1       6.325   0.782  -0.798  1.00  0.00     0.004 A 
ATOM      9  C   UNL     1       6.173  -0.502   1.205  1.00  0.00     0.004 A 
ATOM     10  C   UNL     1       5.446   1.695  -0.211  1.00  0.00     0.000 A 
ATOM     11  C   UNL     1       5.305   0.402   1.783  1.00  0.00     0.000 A 
ATOM     12  C   UNL     1       4.944   1.514   1.053  1.00  0.00     0.000 A 
ENDBRANCH   6   7
ENDBRANCH   1   6
TORSDOF 4
ENDMDL
MODEL 5
REMARK VINA RESULT:      -6.8      3.362      5.073
REMARK SMILES O=C(O)CCc1ccccc1
REMARK SMILES IDX 4 1 2 2 1 3 3 4 5 6 6 7 7 8 11 9 8 10 10 11 9 12
REMARK H PARENT 3 5
REMARK Flexibility Score: inf
ROOT
ATOM      1  C   UNL     1       5.036   1.784   0.666  1.00  0.00     0.127 C 
ENDROOT
BRANCH   1   2
ATOM      2  C   UNL     1       4.515   1.121   1.885  1.00  0.00     0.303 C 
ATOM      3  O   UNL     1       5.170   0.221   2.466  1.00  0.00    -0.252 OA
BRANCH   2   4
ATOM      4  O   UNL     1       3.287   1.477   2.417  1.00  0.00    -0.481 OA
ATOM      5  H   UNL     1       2.561   0.763   2.523  1.00  0.00     0.296 HD
ENDBRANCH   2   4
ENDBRANCH   1   2
BRANCH   1   6
ATOM      6  C   UNL     1       6.533   1.778   0.730  1.00  0.00     0.047 C 
BRANCH   6   7
ATOM      7  C   UNL     1       7.170   1.022  -0.347  1.00  0.00    -0.047 A 
ATOM      8  C   UNL     1       8.495   1.222  -0.658  1.00  0.00     0.004 A 
ATOM      9  C   UNL     1       6.429   0.100  -1.049  1.00  0.00     0.004 A 
ATOM     10  C   UNL     1       9.038   0.464  -1.698  1.00  0.00     0.000 A 
ATOM     11  C   UNL     1       6.968  -0.649  -2.077  1.00  0.00     0.000 A 
ATOM     12  C   UNL     1       8.294  -0.454  -2.396  1.00  0.00     0.000 A 
ENDBRANCH   6   7
ENDBRANCH   1   6
TORSDOF 4
ENDMDL
