@<TRIPOS>MOLECULE
/home/cewinharhar/GITHUB/reincatalyze/data/processed/docking_pred/2023-Apr-26-1657_maxeplen10_maxtrainstep1000_exh32_gamma099_lrac9e-4_lrcr1e-3/9545d038953ad0bd3b50a81295f717fe73892d7b_ligand_2.pdbqt
 12 12 0 0 0
SMALL
GASTEIGER

@<TRIPOS>ATOM
      1  C          5.0360    1.7840    0.6660 C.3     1  UNL1        0.1270
      2  C          4.5150    1.1210    1.8850 C.2     1  UNL1        0.3030
      3  O          5.1700    0.2210    2.4660 O.2     1  UNL1       -0.2520
      4  O          3.2870    1.4770    2.4170 O.3     1  UNL1       -0.4810
      5  H          2.5610    0.7630    2.5230 H       1  UNL1        0.2960
      6  C          6.5330    1.7780    0.7300 C.3     1  UNL1        0.0470
      7  C          7.1700    1.0220   -0.3470 C.2     1  UNL1       -0.0470
      8  C          8.4950    1.2220   -0.6580 C.2     1  UNL1        0.0040
      9  C          6.4290    0.1000   -1.0490 C.2     1  UNL1        0.0040
     10  C          9.0380    0.4640   -1.6980 C.2     1  UNL1        0.0000
     11  C          6.9680   -0.6490   -2.0770 C.2     1  UNL1        0.0000
     12  C          8.2940   -0.4540   -2.3960 C.2     1  UNL1        0.0000
@<TRIPOS>BOND
     1    12    11    2
     2    12    10    1
     3    11     9    1
     4    10     8    2
     5     9     7    2
     6     8     7    1
     7     7     6    1
     8     1     6    1
     9     1     2    1
    10     2     4    1
    11     2     3    2
    12     4     5    1
