@<TRIPOS>MOLECULE
/home/cewinharhar/GITHUB/reincatalyze/data/processed/docking_pred/2023-Apr-26-1657_maxeplen10_maxtrainstep1000_exh32_gamma099_lrac9e-4_lrcr1e-3/9545d038953ad0bd3b50a81295f717fe73892d7b_ligand_2.pdbqt
 12 12 0 0 0
SMALL
GASTEIGER

@<TRIPOS>ATOM
      1  C          8.4620   -0.6740   -2.0750 C.3     1  UNL1        0.1270
      2  C          8.4770   -1.9180   -2.8800 C.2     1  UNL1        0.3030
      3  O          9.5450   -2.5440   -3.0910 O.2     1  UNL1       -0.2520
      4  O          7.3080   -2.4270   -3.4220 O.3     1  UNL1       -0.4810
      5  H          6.8370   -3.2070   -2.9560 H       1  UNL1        0.2960
      6  C          7.0660   -0.1310   -2.0740 C.3     1  UNL1        0.0470
      7  C          6.4910    0.0290   -0.7400 C.2     1  UNL1       -0.0470
      8  C          6.5980   -0.9720    0.1970 C.2     1  UNL1        0.0040
      9  C          5.8390    1.1990   -0.4250 C.2     1  UNL1        0.0040
     10  C          6.0260   -0.7500    1.4520 C.2     1  UNL1        0.0000
     11  C          5.2740    1.4170    0.8150 C.2     1  UNL1        0.0000
     12  C          5.3760    0.4180    1.7590 C.2     1  UNL1        0.0000
@<TRIPOS>BOND
     1     4     5    1
     2     4     2    1
     3     3     2    2
     4     2     1    1
     5     1     6    1
     6     6     7    1
     7     7     9    2
     8     7     8    1
     9     9    11    1
    10     8    10    2
    11    11    12    2
    12    10    12    1
