@<TRIPOS>MOLECULE
/home/cewinharhar/GITHUB/reincatalyze/data/processed/docking_pred/2023-Apr-26-1657_maxeplen10_maxtrainstep1000_exh32_gamma099_lrac9e-4_lrcr1e-3/9545d038953ad0bd3b50a81295f717fe73892d7b_ligand_2.pdbqt
 12 12 0 0 0
SMALL
GASTEIGER

@<TRIPOS>ATOM
      1  C          8.3430   -0.8660   -1.8240 C.3     1  UNL1        0.1270
      2  C          8.3370   -1.9650   -2.8180 C.2     1  UNL1        0.3030
      3  O          7.2630   -2.3970   -3.3040 O.2     1  UNL1       -0.2520
      4  O          9.5220   -2.5480   -3.2390 O.3     1  UNL1       -0.4810
      5  H         10.2600   -2.7330   -2.5540 H       1  UNL1        0.2960
      6  C          7.5960   -1.3250   -0.6100 C.3     1  UNL1        0.0470
      7  C          6.6810   -0.3250   -0.0620 C.2     1  UNL1       -0.0470
      8  C          6.3250    0.7820   -0.7980 C.2     1  UNL1        0.0040
      9  C          6.1730   -0.5020    1.2050 C.2     1  UNL1        0.0040
     10  C          5.4460    1.6950   -0.2110 C.2     1  UNL1        0.0000
     11  C          5.3050    0.4020    1.7830 C.2     1  UNL1        0.0000
     12  C          4.9440    1.5140    1.0530 C.2     1  UNL1        0.0000
@<TRIPOS>BOND
     1     3     2    2
     2     4     2    1
     3     4     5    1
     4     2     1    1
     5     1     6    1
     6     8    10    1
     7     8     7    2
     8     6     7    1
     9    10    12    2
    10     7     9    1
    11    12    11    1
    12     9    11    2
