@<TRIPOS>MOLECULE
/home/cewinharhar/GITHUB/reincatalyze/data/processed/docking_pred/2023-Apr-26-1657_maxeplen10_maxtrainstep1000_exh32_gamma099_lrac9e-4_lrcr1e-3/9545d038953ad0bd3b50a81295f717fe73892d7b_ligand_2.pdbqt
 12 12 0 0 0
SMALL
GASTEIGER

@<TRIPOS>ATOM
      1  C          8.2480   -0.9120   -1.8820 C.3     1  UNL1        0.1270
      2  C          8.3880   -2.0310   -2.8440 C.2     1  UNL1        0.3030
      3  O          9.5100   -2.5390   -3.0920 O.2     1  UNL1       -0.2520
      4  O          7.2820   -2.5470   -3.4990 O.3     1  UNL1       -0.4810
      5  H          7.3940   -3.3660   -4.1030 H       1  UNL1        0.2960
      6  C          7.4500   -1.3960   -0.7100 C.3     1  UNL1        0.0470
      7  C          6.6040   -0.3700   -0.1020 C.2     1  UNL1       -0.0470
      8  C          6.1500   -0.5070    1.1890 C.2     1  UNL1        0.0040
      9  C          6.2660    0.7430   -0.8370 C.2     1  UNL1        0.0040
     10  C          5.3480    0.5120    1.7060 C.2     1  UNL1        0.0000
     11  C          5.4720    1.7500   -0.3240 C.2     1  UNL1        0.0000
     12  C          5.0120    1.6200    0.9680 C.2     1  UNL1        0.0000
@<TRIPOS>BOND
     1     5     4    1
     2     4     2    1
     3     3     2    2
     4     2     1    1
     5     1     6    1
     6     9    11    1
     7     9     7    2
     8     6     7    1
     9    11    12    2
    10     7     8    1
    11    12    10    1
    12     8    10    2
