@<TRIPOS>MOLECULE
/home/cewinharhar/GITHUB/reincatalyze/data/processed/docking_pred/2023-Apr-26-1657_maxeplen10_maxtrainstep1000_exh32_gamma099_lrac9e-4_lrcr1e-3/955e59fc22a1e87e2ab10a68f3a5c98643a236a4_ligand_2.pdbqt
 12 12 0 0 0
SMALL
GASTEIGER

@<TRIPOS>ATOM
      1  C          8.4290   -0.5760   -2.1890 C.3     1  UNL1        0.1270
      2  C          8.4810   -1.8700   -2.9100 C.2     1  UNL1        0.3030
      3  O          9.5690   -2.4700   -3.0910 O.2     1  UNL1       -0.2520
      4  O          7.3270   -2.4540   -3.4050 O.3     1  UNL1       -0.4810
      5  H          7.0850   -2.3270   -4.3920 H       1  UNL1        0.2960
      6  C          7.0000   -0.1290   -2.1280 C.3     1  UNL1        0.0470
      7  C          6.4800    0.0140   -0.7690 C.2     1  UNL1       -0.0470
      8  C          6.6170   -1.0020    0.1470 C.2     1  UNL1        0.0040
      9  C          5.8480    1.1830   -0.4120 C.2     1  UNL1        0.0040
     10  C          6.0970   -0.7960    1.4270 C.2     1  UNL1        0.0000
     11  C          5.3340    1.3850    0.8530 C.2     1  UNL1        0.0000
     12  C          5.4670    0.3720    1.7770 C.2     1  UNL1        0.0000
@<TRIPOS>BOND
     1     5     4    1
     2     4     2    1
     3     3     2    2
     4     2     1    1
     5     1     6    1
     6     6     7    1
     7     7     9    2
     8     7     8    1
     9     9    11    1
    10     8    10    2
    11    11    12    2
    12    10    12    1
