@<TRIPOS>MOLECULE
/home/cewinharhar/GITHUB/reincatalyze/data/processed/docking_pred/2023-Apr-26-1657_maxeplen10_maxtrainstep1000_exh32_gamma099_lrac9e-4_lrcr1e-3/955e59fc22a1e87e2ab10a68f3a5c98643a236a4_ligand_2.pdbqt
 12 12 0 0 0
SMALL
GASTEIGER

@<TRIPOS>ATOM
      1  C          5.0300    1.7090    0.6750 C.3     1  UNL1        0.1270
      2  C          4.5960    1.0230    1.9150 C.2     1  UNL1        0.3030
      3  O          5.3270    0.1700    2.4770 O.2     1  UNL1       -0.2520
      4  O          3.3680    1.3060    2.4900 O.3     1  UNL1       -0.4810
      5  H          3.2150    1.0880    3.4790 H       1  UNL1        0.2960
      6  C          6.5260    1.7930    0.6820 C.3     1  UNL1        0.0470
      7  C          7.1700    1.0230   -0.3800 C.2     1  UNL1       -0.0470
      8  C          8.5120    1.1720   -0.6430 C.2     1  UNL1        0.0040
      9  C          6.4180    0.1410   -1.1200 C.2     1  UNL1        0.0040
     10  C          9.0610    0.4040   -1.6720 C.2     1  UNL1        0.0000
     11  C          6.9610   -0.6180   -2.1380 C.2     1  UNL1        0.0000
     12  C          8.3050   -0.4740   -2.4070 C.2     1  UNL1        0.0000
@<TRIPOS>BOND
     1    12    11    2
     2    12    10    1
     3    11     9    1
     4    10     8    2
     5     9     7    2
     6     8     7    1
     7     7     6    1
     8     1     6    1
     9     1     2    1
    10     2     3    2
    11     2     4    1
    12     4     5    1
