MODEL 1
REMARK VINA RESULT:      -7.3      0.000      0.000
REMARK SMILES O=C(O)CCc1ccccc1
REMARK SMILES IDX 4 1 2 2 1 3 3 4 5 6 6 7 7 8 11 9 8 10 10 11 9 12
REMARK H PARENT 3 5
REMARK Flexibility Score: inf
ROOT
ATOM      1  C   UNL     1       8.437  -0.589  -2.174  1.00  0.00     0.127 C 
ENDROOT
BRANCH   1   2
ATOM      2  C   UNL     1       8.480  -1.880  -2.900  1.00  0.00     0.303 C 
ATOM      3  O   UNL     1       9.563  -2.488  -3.083  1.00  0.00    -0.252 OA
BRANCH   2   4
ATOM      4  O   UNL     1       7.321  -2.453  -3.398  1.00  0.00    -0.481 OA
ATOM      5  H   UNL     1       6.657  -2.887  -2.750  1.00  0.00     0.296 HD
ENDBRANCH   2   4
ENDBRANCH   1   2
BRANCH   1   6
ATOM      6  C   UNL     1       7.016  -0.115  -2.140  1.00  0.00     0.047 C 
BRANCH   6   7
ATOM      7  C   UNL     1       6.480   0.063  -0.792  1.00  0.00    -0.047 A 
ATOM      8  C   UNL     1       5.852   1.233  -0.433  1.00  0.00     0.004 A 
ATOM      9  C   UNL     1       6.607  -0.959   0.121  1.00  0.00     0.004 A 
ATOM     10  C   UNL     1       5.363   1.333   0.871  1.00  0.00     0.000 A 
ATOM     11  C   UNL     1       6.123  -0.858   1.410  1.00  0.00     0.000 A 
ATOM     12  C   UNL     1       5.494   0.311   1.778  1.00  0.00     0.000 A 
ENDBRANCH   6   7
ENDBRANCH   1   6
TORSDOF 4
ENDMDL
MODEL 2
REMARK VINA RESULT:      -7.3      0.046      1.437
REMARK SMILES O=C(O)CCc1ccccc1
REMARK SMILES IDX 4 1 2 2 1 3 3 4 5 6 6 7 7 8 11 9 8 10 10 11 9 12
REMARK H PARENT 3 5
REMARK Flexibility Score: inf
ROOT
ATOM      1  C   UNL     1       8.429  -0.576  -2.189  1.00  0.00     0.127 C 
ENDROOT
BRANCH   1   2
ATOM      2  C   UNL     1       8.481  -1.870  -2.910  1.00  0.00     0.303 C 
ATOM      3  O   UNL     1       9.569  -2.470  -3.091  1.00  0.00    -0.252 OA
BRANCH   2   4
ATOM      4  O   UNL     1       7.327  -2.454  -3.405  1.00  0.00    -0.481 OA
ATOM      5  H   UNL     1       7.085  -2.327  -4.392  1.00  0.00     0.296 HD
ENDBRANCH   2   4
ENDBRANCH   1   2
BRANCH   1   6
ATOM      6  C   UNL     1       7.000  -0.129  -2.128  1.00  0.00     0.047 C 
BRANCH   6   7
ATOM      7  C   UNL     1       6.480   0.014  -0.769  1.00  0.00    -0.047 A 
ATOM      8  C   UNL     1       6.617  -1.002   0.147  1.00  0.00     0.004 A 
ATOM      9  C   UNL     1       5.848   1.183  -0.412  1.00  0.00     0.004 A 
ATOM     10  C   UNL     1       6.097  -0.796   1.427  1.00  0.00     0.000 A 
ATOM     11  C   UNL     1       5.334   1.385   0.853  1.00  0.00     0.000 A 
ATOM     12  C   UNL     1       5.467   0.372   1.777  1.00  0.00     0.000 A 
ENDBRANCH   6   7
ENDBRANCH   1   6
TORSDOF 4
ENDMDL
MODEL 3
REMARK VINA RESULT:      -6.7      3.331      5.007
REMARK SMILES O=C(O)CCc1ccccc1
REMARK SMILES IDX 4 1 2 2 1 3 3 4 5 6 6 7 7 8 11 9 8 10 10 11 9 12
REMARK H PARENT 3 5
REMARK Flexibility Score: inf
ROOT
ATOM      1  C   UNL     1       5.030   1.709   0.675  1.00  0.00     0.127 C 
ENDROOT
BRANCH   1   2
ATOM      2  C   UNL     1       4.596   1.023   1.915  1.00  0.00     0.303 C 
ATOM      3  O   UNL     1       5.327   0.170   2.477  1.00  0.00    -0.252 OA
BRANCH   2   4
ATOM      4  O   UNL     1       3.368   1.306   2.490  1.00  0.00    -0.481 OA
ATOM      5  H   UNL     1       3.215   1.088   3.479  1.00  0.00     0.296 HD
ENDBRANCH   2   4
ENDBRANCH   1   2
BRANCH   1   6
ATOM      6  C   UNL     1       6.526   1.793   0.682  1.00  0.00     0.047 C 
BRANCH   6   7
ATOM      7  C   UNL     1       7.170   1.023  -0.380  1.00  0.00    -0.047 A 
ATOM      8  C   UNL     1       8.512   1.172  -0.643  1.00  0.00     0.004 A 
ATOM      9  C   UNL     1       6.418   0.141  -1.120  1.00  0.00     0.004 A 
ATOM     10  C   UNL     1       9.061   0.404  -1.672  1.00  0.00     0.000 A 
ATOM     11  C   UNL     1       6.961  -0.618  -2.138  1.00  0.00     0.000 A 
ATOM     12  C   UNL     1       8.305  -0.474  -2.407  1.00  0.00     0.000 A 
ENDBRANCH   6   7
ENDBRANCH   1   6
TORSDOF 4
ENDMDL
MODEL 4
REMARK VINA RESULT:      -6.6      1.968      2.259
REMARK SMILES O=C(O)CCc1ccccc1
REMARK SMILES IDX 4 1 2 2 1 3 3 4 5 6 6 7 7 8 11 9 8 10 10 11 9 12
REMARK H PARENT 3 5
REMARK Flexibility Score: inf
ROOT
ATOM      1  C   UNL     1       8.184   0.253  -2.014  1.00  0.00     0.127 C 
ENDROOT
BRANCH   1   2
ATOM      2  C   UNL     1       9.378   0.366  -1.144  1.00  0.00     0.303 C 
ATOM      3  O   UNL     1       9.520  -0.367  -0.134  1.00  0.00    -0.252 OA
BRANCH   2   4
ATOM      4  O   UNL     1      10.375   1.288  -1.422  1.00  0.00    -0.481 OA
ATOM      5  H   UNL     1      10.508   2.086  -0.795  1.00  0.00     0.296 HD
ENDBRANCH   2   4
ENDBRANCH   1   2
BRANCH   1   6
ATOM      6  C   UNL     1       7.180  -0.620  -1.325  1.00  0.00     0.047 C 
BRANCH   6   7
ATOM      7  C   UNL     1       6.370   0.078  -0.328  1.00  0.00    -0.047 A 
ATOM      8  C   UNL     1       5.839   1.318  -0.596  1.00  0.00     0.004 A 
ATOM      9  C   UNL     1       6.140  -0.521   0.889  1.00  0.00     0.004 A 
ATOM     10  C   UNL     1       5.074   1.926   0.402  1.00  0.00     0.000 A 
ATOM     11  C   UNL     1       5.384   0.081   1.875  1.00  0.00     0.000 A 
ATOM     12  C   UNL     1       4.849   1.324   1.614  1.00  0.00     0.000 A 
ENDBRANCH   6   7
ENDBRANCH   1   6
TORSDOF 4
ENDMDL
MODEL 5
REMARK VINA RESULT:      -6.5      1.876      2.813
REMARK SMILES O=C(O)CCc1ccccc1
REMARK SMILES IDX 4 1 2 2 1 3 3 4 5 6 6 7 7 8 11 9 8 10 10 11 9 12
REMARK H PARENT 3 5
REMARK Flexibility Score: inf
ROOT
ATOM      1  C   UNL     1       8.277  -1.586   1.035  1.00  0.00     0.127 C 
ENDROOT
BRANCH   1   2
ATOM      2  C   UNL     1       8.539  -2.834   0.280  1.00  0.00     0.303 C 
ATOM      3  O   UNL     1       9.157  -3.794   0.803  1.00  0.00    -0.252 OA
BRANCH   2   4
ATOM      4  O   UNL     1       8.108  -2.975  -1.030  1.00  0.00    -0.481 OA
ATOM      5  H   UNL     1       7.708  -3.868  -1.332  1.00  0.00     0.296 HD
ENDBRANCH   2   4
ENDBRANCH   1   2
BRANCH   1   6
ATOM      6  C   UNL     1       6.801  -1.477   1.266  1.00  0.00     0.047 C 
BRANCH   6   7
ATOM      7  C   UNL     1       6.216  -0.225   0.788  1.00  0.00    -0.047 A 
ATOM      8  C   UNL     1       5.440   0.551   1.618  1.00  0.00     0.004 A 
ATOM      9  C   UNL     1       6.451   0.174  -0.508  1.00  0.00     0.004 A 
ATOM     10  C   UNL     1       4.915   1.734   1.094  1.00  0.00     0.000 A 
ATOM     11  C   UNL     1       5.930   1.344  -1.023  1.00  0.00     0.000 A 
ATOM     12  C   UNL     1       5.152   2.127  -0.199  1.00  0.00     0.000 A 
ENDBRANCH   6   7
ENDBRANCH   1   6
TORSDOF 4
ENDMDL
