@<TRIPOS>MOLECULE
/home/cewinharhar/GITHUB/reincatalyze/data/processed/docking_pred/2023-Apr-26-1657_maxeplen10_maxtrainstep1000_exh32_gamma099_lrac9e-4_lrcr1e-3/955e59fc22a1e87e2ab10a68f3a5c98643a236a4_ligand_2.pdbqt
 12 12 0 0 0
SMALL
GASTEIGER

@<TRIPOS>ATOM
      1  C          8.1840    0.2530   -2.0140 C.3     1  UNL1        0.1270
      2  C          9.3780    0.3660   -1.1440 C.2     1  UNL1        0.3030
      3  O          9.5200   -0.3670   -0.1340 O.2     1  UNL1       -0.2520
      4  O         10.3750    1.2880   -1.4220 O.3     1  UNL1       -0.4810
      5  H         10.5080    2.0860   -0.7950 H       1  UNL1        0.2960
      6  C          7.1800   -0.6200   -1.3250 C.3     1  UNL1        0.0470
      7  C          6.3700    0.0780   -0.3280 C.2     1  UNL1       -0.0470
      8  C          5.8390    1.3180   -0.5960 C.2     1  UNL1        0.0040
      9  C          6.1400   -0.5210    0.8890 C.2     1  UNL1        0.0040
     10  C          5.0740    1.9260    0.4020 C.2     1  UNL1        0.0000
     11  C          5.3840    0.0810    1.8750 C.2     1  UNL1        0.0000
     12  C          4.8490    1.3240    1.6140 C.2     1  UNL1        0.0000
@<TRIPOS>BOND
     1     1     6    1
     2     1     2    1
     3     4     2    1
     4     4     5    1
     5     6     7    1
     6     2     3    2
     7     8     7    2
     8     8    10    1
     9     7     9    1
    10    10    12    2
    11     9    11    2
    12    12    11    1
