@<TRIPOS>MOLECULE
/home/cewinharhar/GITHUB/reincatalyze/data/processed/docking_pred/2023-Apr-26-1657_maxeplen10_maxtrainstep1000_exh32_gamma099_lrac9e-4_lrcr1e-3/955e59fc22a1e87e2ab10a68f3a5c98643a236a4_ligand_2.pdbqt
 12 12 0 0 0
SMALL
GASTEIGER

@<TRIPOS>ATOM
      1  C          8.2770   -1.5860    1.0350 C.3     1  UNL1        0.1270
      2  C          8.5390   -2.8340    0.2800 C.2     1  UNL1        0.3030
      3  O          9.1570   -3.7940    0.8030 O.2     1  UNL1       -0.2520
      4  O          8.1080   -2.9750   -1.0300 O.3     1  UNL1       -0.4810
      5  H          7.7080   -3.8680   -1.3320 H       1  UNL1        0.2960
      6  C          6.8010   -1.4770    1.2660 C.3     1  UNL1        0.0470
      7  C          6.2160   -0.2250    0.7880 C.2     1  UNL1       -0.0470
      8  C          5.4400    0.5510    1.6180 C.2     1  UNL1        0.0040
      9  C          6.4510    0.1740   -0.5080 C.2     1  UNL1        0.0040
     10  C          4.9150    1.7340    1.0940 C.2     1  UNL1        0.0000
     11  C          5.9300    1.3440   -1.0230 C.2     1  UNL1        0.0000
     12  C          5.1520    2.1270   -0.1990 C.2     1  UNL1        0.0000
@<TRIPOS>BOND
     1     5     4    1
     2     4     2    1
     3    11     9    1
     4    11    12    2
     5     9     7    2
     6    12    10    1
     7     2     3    2
     8     2     1    1
     9     7     6    1
    10     7     8    1
    11     1     6    1
    12    10     8    2
