@<TRIPOS>MOLECULE
/home/cewinharhar/GITHUB/reincatalyze/data/processed/docking_pred/2023-Apr-26-1657_maxeplen10_maxtrainstep1000_exh32_gamma099_lrac9e-4_lrcr1e-3/955e59fc22a1e87e2ab10a68f3a5c98643a236a4_ligand_2.pdbqt
 12 12 0 0 0
SMALL
GASTEIGER

@<TRIPOS>ATOM
      1  C          8.4370   -0.5890   -2.1740 C.3     1  UNL1        0.1270
      2  C          8.4800   -1.8800   -2.9000 C.2     1  UNL1        0.3030
      3  O          9.5630   -2.4880   -3.0830 O.2     1  UNL1       -0.2520
      4  O          7.3210   -2.4530   -3.3980 O.3     1  UNL1       -0.4810
      5  H          6.6570   -2.8870   -2.7500 H       1  UNL1        0.2960
      6  C          7.0160   -0.1150   -2.1400 C.3     1  UNL1        0.0470
      7  C          6.4800    0.0630   -0.7920 C.2     1  UNL1       -0.0470
      8  C          5.8520    1.2330   -0.4330 C.2     1  UNL1        0.0040
      9  C          6.6070   -0.9590    0.1210 C.2     1  UNL1        0.0040
     10  C          5.3630    1.3330    0.8710 C.2     1  UNL1        0.0000
     11  C          6.1230   -0.8580    1.4100 C.2     1  UNL1        0.0000
     12  C          5.4940    0.3110    1.7780 C.2     1  UNL1        0.0000
@<TRIPOS>BOND
     1     4     2    1
     2     4     5    1
     3     3     2    2
     4     2     1    1
     5     1     6    1
     6     6     7    1
     7     7     8    2
     8     7     9    1
     9     8    10    1
    10     9    11    2
    11    10    12    2
    12    11    12    1
