MODEL 1
REMARK VINA RESULT:      -7.3      0.000      0.000
REMARK SMILES O=C(O)CCc1ccccc1
REMARK SMILES IDX 4 1 2 2 1 3 3 4 5 6 6 7 7 8 11 9 8 10 10 11 9 12
REMARK H PARENT 3 5
REMARK Flexibility Score: inf
ROOT
ATOM      1  C   UNL     1       8.573  -0.546  -2.355  1.00  0.00     0.127 C 
ENDROOT
BRANCH   1   2
ATOM      2  C   UNL     1       8.546  -1.895  -2.966  1.00  0.00     0.303 C 
ATOM      3  O   UNL     1       9.597  -2.570  -3.100  1.00  0.00    -0.252 OA
BRANCH   2   4
ATOM      4  O   UNL     1       7.356  -2.450  -3.409  1.00  0.00    -0.481 OA
ATOM      5  H   UNL     1       7.381  -3.184  -4.123  1.00  0.00     0.296 HD
ENDBRANCH   2   4
ENDBRANCH   1   2
BRANCH   1   6
ATOM      6  C   UNL     1       7.161  -0.068  -2.204  1.00  0.00     0.047 C 
BRANCH   6   7
ATOM      7  C   UNL     1       6.781   0.240  -0.827  1.00  0.00    -0.047 A 
ATOM      8  C   UNL     1       7.409  -0.377   0.231  1.00  0.00     0.004 A 
ATOM      9  C   UNL     1       5.785   1.160  -0.595  1.00  0.00     0.004 A 
ATOM     10  C   UNL     1       6.995  -0.033   1.520  1.00  0.00     0.000 A 
ATOM     11  C   UNL     1       5.377   1.498   0.680  1.00  0.00     0.000 A 
ATOM     12  C   UNL     1       6.000   0.885   1.745  1.00  0.00     0.000 A 
ENDBRANCH   6   7
ENDBRANCH   1   6
TORSDOF 4
ENDMDL
MODEL 2
REMARK VINA RESULT:      -7.2      0.134      1.441
REMARK SMILES O=C(O)CCc1ccccc1
REMARK SMILES IDX 4 1 2 2 1 3 3 4 5 6 6 7 7 8 11 9 8 10 10 11 9 12
REMARK H PARENT 3 5
REMARK Flexibility Score: inf
ROOT
ATOM      1  C   UNL     1       8.456  -0.514  -2.426  1.00  0.00     0.127 C 
ENDROOT
BRANCH   1   2
ATOM      2  C   UNL     1       8.500  -1.880  -3.000  1.00  0.00     0.303 C 
ATOM      3  O   UNL     1       9.583  -2.504  -3.112  1.00  0.00    -0.252 OA
BRANCH   2   4
ATOM      4  O   UNL     1       7.341  -2.507  -3.429  1.00  0.00    -0.481 OA
ATOM      5  H   UNL     1       7.315  -2.926  -4.363  1.00  0.00     0.296 HD
ENDBRANCH   2   4
ENDBRANCH   1   2
BRANCH   1   6
ATOM      6  C   UNL     1       7.022  -0.142  -2.205  1.00  0.00     0.047 C 
BRANCH   6   7
ATOM      7  C   UNL     1       6.702   0.198  -0.820  1.00  0.00    -0.047 A 
ATOM      8  C   UNL     1       5.762   1.160  -0.531  1.00  0.00     0.004 A 
ATOM      9  C   UNL     1       7.352  -0.458   0.199  1.00  0.00     0.004 A 
ATOM     10  C   UNL     1       5.507   1.433   0.815  1.00  0.00     0.000 A 
ATOM     11  C   UNL     1       7.099  -0.187   1.529  1.00  0.00     0.000 A 
ATOM     12  C   UNL     1       6.159   0.775   1.828  1.00  0.00     0.000 A 
ENDBRANCH   6   7
ENDBRANCH   1   6
TORSDOF 4
ENDMDL
MODEL 3
REMARK VINA RESULT:      -6.9      3.319      5.042
REMARK SMILES O=C(O)CCc1ccccc1
REMARK SMILES IDX 4 1 2 2 1 3 3 4 5 6 6 7 7 8 11 9 8 10 10 11 9 12
REMARK H PARENT 3 5
REMARK Flexibility Score: inf
ROOT
ATOM      1  C   UNL     1       5.062   1.730   0.664  1.00  0.00     0.127 C 
ENDROOT
BRANCH   1   2
ATOM      2  C   UNL     1       4.582   1.095   1.914  1.00  0.00     0.303 C 
ATOM      3  O   UNL     1       3.460   1.382   2.400  1.00  0.00    -0.252 OA
BRANCH   2   4
ATOM      4  O   UNL     1       5.362   0.165   2.582  1.00  0.00    -0.481 OA
ATOM      5  H   UNL     1       6.375   0.162   2.435  1.00  0.00     0.296 HD
ENDBRANCH   2   4
ENDBRANCH   1   2
BRANCH   1   6
ATOM      6  C   UNL     1       6.560   1.757   0.695  1.00  0.00     0.047 C 
BRANCH   6   7
ATOM      7  C   UNL     1       7.191   0.982  -0.372  1.00  0.00    -0.047 A 
ATOM      8  C   UNL     1       8.498   1.213  -0.730  1.00  0.00     0.004 A 
ATOM      9  C   UNL     1       6.461   0.010  -1.017  1.00  0.00     0.004 A 
ATOM     10  C   UNL     1       9.036   0.433  -1.757  1.00  0.00     0.000 A 
ATOM     11  C   UNL     1       6.994  -0.759  -2.032  1.00  0.00     0.000 A 
ATOM     12  C   UNL     1       8.303  -0.533  -2.398  1.00  0.00     0.000 A 
ENDBRANCH   6   7
ENDBRANCH   1   6
TORSDOF 4
ENDMDL
MODEL 4
REMARK VINA RESULT:      -6.5      3.683      5.148
REMARK SMILES O=C(O)CCc1ccccc1
REMARK SMILES IDX 4 1 2 2 1 3 3 4 5 6 6 7 7 8 11 9 8 10 10 11 9 12
REMARK H PARENT 3 5
REMARK Flexibility Score: inf
ROOT
ATOM      1  C   UNL     1       5.434   2.613   0.014  1.00  0.00     0.127 C 
ENDROOT
BRANCH   1   2
ATOM      2  C   UNL     1       6.150   3.638   0.808  1.00  0.00     0.303 C 
ATOM      3  O   UNL     1       6.212   3.565   2.061  1.00  0.00    -0.252 OA
BRANCH   2   4
ATOM      4  O   UNL     1       6.772   4.710   0.189  1.00  0.00    -0.481 OA
ATOM      5  H   UNL     1       7.787   4.690   0.051  1.00  0.00     0.296 HD
ENDBRANCH   2   4
ENDBRANCH   1   2
BRANCH   1   6
ATOM      6  C   UNL     1       5.938   1.263   0.425  1.00  0.00     0.047 C 
BRANCH   6   7
ATOM      7  C   UNL     1       6.884   0.669  -0.518  1.00  0.00    -0.047 A 
ATOM      8  C   UNL     1       8.158   1.172  -0.647  1.00  0.00     0.004 A 
ATOM      9  C   UNL     1       6.488  -0.407  -1.279  1.00  0.00     0.004 A 
ATOM     10  C   UNL     1       9.009   0.554  -1.566  1.00  0.00     0.000 A 
ATOM     11  C   UNL     1       7.331  -1.016  -2.187  1.00  0.00     0.000 A 
ATOM     12  C   UNL     1       8.608  -0.518  -2.323  1.00  0.00     0.000 A 
ENDBRANCH   6   7
ENDBRANCH   1   6
TORSDOF 4
ENDMDL
MODEL 5
REMARK VINA RESULT:      -6.4      3.669      5.119
REMARK SMILES O=C(O)CCc1ccccc1
REMARK SMILES IDX 4 1 2 2 1 3 3 4 5 6 6 7 7 8 11 9 8 10 10 11 9 12
REMARK H PARENT 3 5
REMARK Flexibility Score: inf
ROOT
ATOM      1  C   UNL     1       5.460   2.590  -0.023  1.00  0.00     0.127 C 
ENDROOT
BRANCH   1   2
ATOM      2  C   UNL     1       6.248   3.554   0.780  1.00  0.00     0.303 C 
ATOM      3  O   UNL     1       6.667   4.628   0.280  1.00  0.00    -0.252 OA
BRANCH   2   4
ATOM      4  O   UNL     1       6.546   3.296   2.108  1.00  0.00    -0.481 OA
ATOM      5  H   UNL     1       6.839   2.354   2.382  1.00  0.00     0.296 HD
ENDBRANCH   2   4
ENDBRANCH   1   2
BRANCH   1   6
ATOM      6  C   UNL     1       5.885   1.204   0.357  1.00  0.00     0.047 C 
BRANCH   6   7
ATOM      7  C   UNL     1       6.841   0.600  -0.570  1.00  0.00    -0.047 A 
ATOM      8  C   UNL     1       6.490  -0.492  -1.330  1.00  0.00     0.004 A 
ATOM      9  C   UNL     1       8.102   1.138  -0.679  1.00  0.00     0.004 A 
ATOM     10  C   UNL     1       7.453  -1.016  -2.194  1.00  0.00     0.000 A 
ATOM     11  C   UNL     1       9.053   0.618  -1.534  1.00  0.00     0.000 A 
ATOM     12  C   UNL     1       8.710  -0.476  -2.298  1.00  0.00     0.000 A 
ENDBRANCH   6   7
ENDBRANCH   1   6
TORSDOF 4
ENDMDL
