@<TRIPOS>MOLECULE
/home/cewinharhar/GITHUB/reincatalyze/data/processed/docking_pred/2023-Apr-26-1657_maxeplen10_maxtrainstep1000_exh32_gamma099_lrac9e-4_lrcr1e-3/96aa1335557473cc7235c71144735280de1f686e_ligand_2.pdbqt
 12 12 0 0 0
SMALL
GASTEIGER

@<TRIPOS>ATOM
      1  C          5.0620    1.7300    0.6640 C.3     1  UNL1        0.1270
      2  C          4.5820    1.0950    1.9140 C.2     1  UNL1        0.3030
      3  O          3.4600    1.3820    2.4000 O.2     1  UNL1       -0.2520
      4  O          5.3620    0.1650    2.5820 O.3     1  UNL1       -0.4810
      5  H          6.3750    0.1620    2.4350 H       1  UNL1        0.2960
      6  C          6.5600    1.7570    0.6950 C.3     1  UNL1        0.0470
      7  C          7.1910    0.9820   -0.3720 C.2     1  UNL1       -0.0470
      8  C          8.4980    1.2130   -0.7300 C.2     1  UNL1        0.0040
      9  C          6.4610    0.0100   -1.0170 C.2     1  UNL1        0.0040
     10  C          9.0360    0.4330   -1.7570 C.2     1  UNL1        0.0000
     11  C          6.9940   -0.7590   -2.0320 C.2     1  UNL1        0.0000
     12  C          8.3030   -0.5330   -2.3980 C.2     1  UNL1        0.0000
@<TRIPOS>BOND
     1    12    11    2
     2    12    10    1
     3    11     9    1
     4    10     8    2
     5     9     7    2
     6     8     7    1
     7     7     6    1
     8     1     6    1
     9     1     2    1
    10     2     3    2
    11     2     4    1
    12     5     4    1
