@<TRIPOS>MOLECULE
/home/cewinharhar/GITHUB/reincatalyze/data/processed/docking_pred/2023-Apr-26-1657_maxeplen10_maxtrainstep1000_exh32_gamma099_lrac9e-4_lrcr1e-3/96aa1335557473cc7235c71144735280de1f686e_ligand_2.pdbqt
 12 12 0 0 0
SMALL
GASTEIGER

@<TRIPOS>ATOM
      1  C          5.4340    2.6130    0.0140 C.3     1  UNL1        0.1270
      2  C          6.1500    3.6380    0.8080 C.2     1  UNL1        0.3030
      3  O          6.2120    3.5650    2.0610 O.2     1  UNL1       -0.2520
      4  O          6.7720    4.7100    0.1890 O.3     1  UNL1       -0.4810
      5  H          7.7870    4.6900    0.0510 H       1  UNL1        0.2960
      6  C          5.9380    1.2630    0.4250 C.3     1  UNL1        0.0470
      7  C          6.8840    0.6690   -0.5180 C.2     1  UNL1       -0.0470
      8  C          8.1580    1.1720   -0.6470 C.2     1  UNL1        0.0040
      9  C          6.4880   -0.4070   -1.2790 C.2     1  UNL1        0.0040
     10  C          9.0090    0.5540   -1.5660 C.2     1  UNL1        0.0000
     11  C          7.3310   -1.0160   -2.1870 C.2     1  UNL1        0.0000
     12  C          8.6080   -0.5180   -2.3230 C.2     1  UNL1        0.0000
@<TRIPOS>BOND
     1    12    11    2
     2    12    10    1
     3    11     9    1
     4    10     8    2
     5     9     7    2
     6     8     7    1
     7     7     6    1
     8     1     6    1
     9     1     2    1
    10     5     4    1
    11     4     2    1
    12     2     3    2
