@<TRIPOS>MOLECULE
/home/cewinharhar/GITHUB/reincatalyze/data/processed/docking_pred/2023-Apr-26-1657_maxeplen10_maxtrainstep1000_exh32_gamma099_lrac9e-4_lrcr1e-3/96aa1335557473cc7235c71144735280de1f686e_ligand_2.pdbqt
 12 12 0 0 0
SMALL
GASTEIGER

@<TRIPOS>ATOM
      1  C          5.4600    2.5900   -0.0230 C.3     1  UNL1        0.1270
      2  C          6.2480    3.5540    0.7800 C.2     1  UNL1        0.3030
      3  O          6.6670    4.6280    0.2800 O.2     1  UNL1       -0.2520
      4  O          6.5460    3.2960    2.1080 O.3     1  UNL1       -0.4810
      5  H          6.8390    2.3540    2.3820 H       1  UNL1        0.2960
      6  C          5.8850    1.2040    0.3570 C.3     1  UNL1        0.0470
      7  C          6.8410    0.6000   -0.5700 C.2     1  UNL1       -0.0470
      8  C          6.4900   -0.4920   -1.3300 C.2     1  UNL1        0.0040
      9  C          8.1020    1.1380   -0.6790 C.2     1  UNL1        0.0040
     10  C          7.4530   -1.0160   -2.1940 C.2     1  UNL1        0.0000
     11  C          9.0530    0.6180   -1.5340 C.2     1  UNL1        0.0000
     12  C          8.7100   -0.4760   -2.2980 C.2     1  UNL1        0.0000
@<TRIPOS>BOND
     1    12    10    2
     2    12    11    1
     3    10     8    1
     4    11     9    2
     5     8     7    2
     6     9     7    1
     7     7     6    1
     8     1     6    1
     9     1     2    1
    10     3     2    2
    11     2     4    1
    12     4     5    1
