@<TRIPOS>MOLECULE
/home/cewinharhar/GITHUB/reincatalyze/data/processed/docking_pred/2023-Apr-26-1657_maxeplen10_maxtrainstep1000_exh32_gamma099_lrac9e-4_lrcr1e-3/96aa1335557473cc7235c71144735280de1f686e_ligand_2.pdbqt
 12 12 0 0 0
SMALL
GASTEIGER

@<TRIPOS>ATOM
      1  C          8.4560   -0.5140   -2.4260 C.3     1  UNL1        0.1270
      2  C          8.5000   -1.8800   -3.0000 C.2     1  UNL1        0.3030
      3  O          9.5830   -2.5040   -3.1120 O.2     1  UNL1       -0.2520
      4  O          7.3410   -2.5070   -3.4290 O.3     1  UNL1       -0.4810
      5  H          7.3150   -2.9260   -4.3630 H       1  UNL1        0.2960
      6  C          7.0220   -0.1420   -2.2050 C.3     1  UNL1        0.0470
      7  C          6.7020    0.1980   -0.8200 C.2     1  UNL1       -0.0470
      8  C          5.7620    1.1600   -0.5310 C.2     1  UNL1        0.0040
      9  C          7.3520   -0.4580    0.1990 C.2     1  UNL1        0.0040
     10  C          5.5070    1.4330    0.8150 C.2     1  UNL1        0.0000
     11  C          7.0990   -0.1870    1.5290 C.2     1  UNL1        0.0000
     12  C          6.1590    0.7750    1.8280 C.2     1  UNL1        0.0000
@<TRIPOS>BOND
     1     5     4    1
     2     4     2    1
     3     3     2    2
     4     2     1    1
     5     1     6    1
     6     6     7    1
     7     7     8    2
     8     7     9    1
     9     8    10    1
    10     9    11    2
    11    10    12    2
    12    11    12    1
