@<TRIPOS>MOLECULE
/home/cewinharhar/GITHUB/reincatalyze/data/processed/docking_pred/2023-Apr-26-1657_maxeplen10_maxtrainstep1000_exh32_gamma099_lrac9e-4_lrcr1e-3/96aa1335557473cc7235c71144735280de1f686e_ligand_2.pdbqt
 12 12 0 0 0
SMALL
GASTEIGER

@<TRIPOS>ATOM
      1  C          8.5730   -0.5460   -2.3550 C.3     1  UNL1        0.1270
      2  C          8.5460   -1.8950   -2.9660 C.2     1  UNL1        0.3030
      3  O          9.5970   -2.5700   -3.1000 O.2     1  UNL1       -0.2520
      4  O          7.3560   -2.4500   -3.4090 O.3     1  UNL1       -0.4810
      5  H          7.3810   -3.1840   -4.1230 H       1  UNL1        0.2960
      6  C          7.1610   -0.0680   -2.2040 C.3     1  UNL1        0.0470
      7  C          6.7810    0.2400   -0.8270 C.2     1  UNL1       -0.0470
      8  C          7.4090   -0.3770    0.2310 C.2     1  UNL1        0.0040
      9  C          5.7850    1.1600   -0.5950 C.2     1  UNL1        0.0040
     10  C          6.9950   -0.0330    1.5200 C.2     1  UNL1        0.0000
     11  C          5.3770    1.4980    0.6800 C.2     1  UNL1        0.0000
     12  C          6.0000    0.8850    1.7450 C.2     1  UNL1        0.0000
@<TRIPOS>BOND
     1     5     4    1
     2     4     2    1
     3     3     2    2
     4     2     1    1
     5     1     6    1
     6     6     7    1
     7     7     9    2
     8     7     8    1
     9     9    11    1
    10     8    10    2
    11    11    12    2
    12    10    12    1
