@<TRIPOS>MOLECULE
/home/cewinharhar/GITHUB/reincatalyze/data/processed/docking_pred/2023-Apr-26-1657_maxeplen10_maxtrainstep1000_exh32_gamma099_lrac9e-4_lrcr1e-3/97a603521aa4ec025b6db977763cb198737ffc85_ligand_2.pdbqt
 12 12 0 0 0
SMALL
GASTEIGER

@<TRIPOS>ATOM
      1  C          5.9090   -0.8160    1.6260 C.3     1  UNL1        0.1270
      2  C          5.2990    0.4820    2.0010 C.2     1  UNL1        0.3030
      3  O          4.1490    0.5410    2.5020 O.2     1  UNL1       -0.2520
      4  O          5.9850    1.6710    1.8070 O.3     1  UNL1       -0.4810
      5  H          5.5380    2.5550    2.0650 H       1  UNL1        0.2960
      6  C          7.3880   -0.6210    1.4950 C.3     1  UNL1        0.0470
      7  C          7.9020   -0.8560    0.1470 C.2     1  UNL1       -0.0470
      8  C          9.2560   -0.8980   -0.0920 C.2     1  UNL1        0.0040
      9  C          7.0140   -1.0390   -0.8880 C.2     1  UNL1        0.0040
     10  C          9.6760   -1.1290   -1.4050 C.2     1  UNL1        0.0000
     11  C          7.4310   -1.2670   -2.1840 C.2     1  UNL1        0.0000
     12  C          8.7860   -1.3100   -2.4330 C.2     1  UNL1        0.0000
@<TRIPOS>BOND
     1    12    11    2
     2    12    10    1
     3    11     9    1
     4    10     8    2
     5     9     7    2
     6     8     7    1
     7     7     6    1
     8     6     1    1
     9     1     2    1
    10     4     2    1
    11     4     5    1
    12     2     3    2
