@<TRIPOS>MOLECULE
/home/cewinharhar/GITHUB/reincatalyze/data/processed/docking_pred/2023-Apr-26-1657_maxeplen10_maxtrainstep1000_exh32_gamma099_lrac9e-4_lrcr1e-3/97a603521aa4ec025b6db977763cb198737ffc85_ligand_2.pdbqt
 12 12 0 0 0
SMALL
GASTEIGER

@<TRIPOS>ATOM
      1  C          6.2880   -0.9250    1.4990 C.3     1  UNL1        0.1270
      2  C          5.6680    0.3450    1.9450 C.2     1  UNL1        0.3030
      3  O          4.4860    0.3780    2.3700 O.2     1  UNL1       -0.2520
      4  O          6.3770    1.5340    1.9030 O.3     1  UNL1       -0.4810
      5  H          6.6450    1.9880    2.7810 H       1  UNL1        0.2960
      6  C          6.7710   -0.7450    0.0930 C.3     1  UNL1        0.0470
      7  C          8.2220   -0.6070   -0.0240 C.2     1  UNL1       -0.0470
      8  C          8.7740    0.3020   -0.8970 C.2     1  UNL1        0.0040
      9  C          9.0360   -1.3980    0.7530 C.2     1  UNL1        0.0040
     10  C         10.1670    0.3800   -0.9550 C.2     1  UNL1        0.0000
     11  C         10.4140   -1.3190    0.6940 C.2     1  UNL1        0.0000
     12  C         10.9750   -0.4120   -0.1780 C.2     1  UNL1        0.0000
@<TRIPOS>BOND
     1    10     8    1
     2    10    12    2
     3     8     7    2
     4    12    11    1
     5     7     6    1
     6     7     9    1
     7     6     1    1
     8    11     9    2
     9     1     2    1
    10     4     2    1
    11     4     5    1
    12     2     3    2
