MODEL 1
REMARK VINA RESULT:      -6.3      0.000      0.000
REMARK SMILES O=C(O)CCc1ccccc1
REMARK SMILES IDX 4 1 2 2 1 3 3 4 5 6 6 7 7 8 11 9 8 10 10 11 9 12
REMARK H PARENT 3 5
REMARK Flexibility Score: inf
ROOT
ATOM      1  C   UNL     1       5.290  -0.241   1.895  1.00  0.00     0.127 C 
ENDROOT
BRANCH   1   2
ATOM      2  C   UNL     1       4.594   1.066   1.963  1.00  0.00     0.303 C 
ATOM      3  O   UNL     1       5.094   2.097   1.449  1.00  0.00    -0.252 OA
BRANCH   2   4
ATOM      4  O   UNL     1       3.369   1.186   2.599  1.00  0.00    -0.481 OA
ATOM      5  H   UNL     1       3.322   1.642   3.515  1.00  0.00     0.296 HD
ENDBRANCH   2   4
ENDBRANCH   1   2
BRANCH   1   6
ATOM      6  C   UNL     1       6.765   0.013   1.841  1.00  0.00     0.047 C 
BRANCH   6   7
ATOM      7  C   UNL     1       7.439  -0.631   0.715  1.00  0.00    -0.047 A 
ATOM      8  C   UNL     1       6.774  -0.852  -0.469  1.00  0.00     0.004 A 
ATOM      9  C   UNL     1       8.753  -1.015   0.849  1.00  0.00     0.004 A 
ATOM     10  C   UNL     1       7.480  -1.471  -1.503  1.00  0.00     0.000 A 
ATOM     11  C   UNL     1       9.449  -1.627  -0.174  1.00  0.00     0.000 A 
ATOM     12  C   UNL     1       8.790  -1.852  -1.363  1.00  0.00     0.000 A 
ENDBRANCH   6   7
ENDBRANCH   1   6
TORSDOF 4
ENDMDL
MODEL 2
REMARK VINA RESULT:      -6.2      0.896      1.959
REMARK SMILES O=C(O)CCc1ccccc1
REMARK SMILES IDX 4 1 2 2 1 3 3 4 5 6 6 7 7 8 11 9 8 10 10 11 9 12
REMARK H PARENT 3 5
REMARK Flexibility Score: inf
ROOT
ATOM      1  C   UNL     1       5.909  -0.816   1.626  1.00  0.00     0.127 C 
ENDROOT
BRANCH   1   2
ATOM      2  C   UNL     1       5.299   0.482   2.001  1.00  0.00     0.303 C 
ATOM      3  O   UNL     1       4.149   0.541   2.502  1.00  0.00    -0.252 OA
BRANCH   2   4
ATOM      4  O   UNL     1       5.985   1.671   1.807  1.00  0.00    -0.481 OA
ATOM      5  H   UNL     1       5.538   2.555   2.065  1.00  0.00     0.296 HD
ENDBRANCH   2   4
ENDBRANCH   1   2
BRANCH   1   6
ATOM      6  C   UNL     1       7.388  -0.621   1.495  1.00  0.00     0.047 C 
BRANCH   6   7
ATOM      7  C   UNL     1       7.902  -0.856   0.147  1.00  0.00    -0.047 A 
ATOM      8  C   UNL     1       9.256  -0.898  -0.092  1.00  0.00     0.004 A 
ATOM      9  C   UNL     1       7.014  -1.039  -0.888  1.00  0.00     0.004 A 
ATOM     10  C   UNL     1       9.676  -1.129  -1.405  1.00  0.00     0.000 A 
ATOM     11  C   UNL     1       7.431  -1.267  -2.184  1.00  0.00     0.000 A 
ATOM     12  C   UNL     1       8.786  -1.310  -2.433  1.00  0.00     0.000 A 
ENDBRANCH   6   7
ENDBRANCH   1   6
TORSDOF 4
ENDMDL
MODEL 3
REMARK VINA RESULT:      -6.1      1.446      2.103
REMARK SMILES O=C(O)CCc1ccccc1
REMARK SMILES IDX 4 1 2 2 1 3 3 4 5 6 6 7 7 8 11 9 8 10 10 11 9 12
REMARK H PARENT 3 5
REMARK Flexibility Score: inf
ROOT
ATOM      1  C   UNL     1       6.288  -0.925   1.499  1.00  0.00     0.127 C 
ENDROOT
BRANCH   1   2
ATOM      2  C   UNL     1       5.668   0.345   1.945  1.00  0.00     0.303 C 
ATOM      3  O   UNL     1       4.486   0.378   2.370  1.00  0.00    -0.252 OA
BRANCH   2   4
ATOM      4  O   UNL     1       6.377   1.534   1.903  1.00  0.00    -0.481 OA
ATOM      5  H   UNL     1       6.645   1.988   2.781  1.00  0.00     0.296 HD
ENDBRANCH   2   4
ENDBRANCH   1   2
BRANCH   1   6
ATOM      6  C   UNL     1       6.771  -0.745   0.093  1.00  0.00     0.047 C 
BRANCH   6   7
ATOM      7  C   UNL     1       8.222  -0.607  -0.024  1.00  0.00    -0.047 A 
ATOM      8  C   UNL     1       8.774   0.302  -0.897  1.00  0.00     0.004 A 
ATOM      9  C   UNL     1       9.036  -1.398   0.753  1.00  0.00     0.004 A 
ATOM     10  C   UNL     1      10.167   0.380  -0.955  1.00  0.00     0.000 A 
ATOM     11  C   UNL     1      10.414  -1.319   0.694  1.00  0.00     0.000 A 
ATOM     12  C   UNL     1      10.975  -0.412  -0.178  1.00  0.00     0.000 A 
ENDBRANCH   6   7
ENDBRANCH   1   6
TORSDOF 4
ENDMDL
MODEL 4
REMARK VINA RESULT:      -6.0      0.997      2.117
REMARK SMILES O=C(O)CCc1ccccc1
REMARK SMILES IDX 4 1 2 2 1 3 3 4 5 6 6 7 7 8 11 9 8 10 10 11 9 12
REMARK H PARENT 3 5
REMARK Flexibility Score: inf
ROOT
ATOM      1  C   UNL     1       6.085  -0.874   1.532  1.00  0.00     0.127 C 
ENDROOT
BRANCH   1   2
ATOM      2  C   UNL     1       5.504   0.415   1.978  1.00  0.00     0.303 C 
ATOM      3  O   UNL     1       4.343   0.476   2.453  1.00  0.00    -0.252 OA
BRANCH   2   4
ATOM      4  O   UNL     1       6.229   1.592   1.881  1.00  0.00    -0.481 OA
ATOM      5  H   UNL     1       7.204   1.606   2.194  1.00  0.00     0.296 HD
ENDBRANCH   2   4
ENDBRANCH   1   2
BRANCH   1   6
ATOM      6  C   UNL     1       6.459  -0.747   0.087  1.00  0.00     0.047 C 
BRANCH   6   7
ATOM      7  C   UNL     1       7.878  -0.974  -0.182  1.00  0.00    -0.047 A 
ATOM      8  C   UNL     1       8.792  -1.007   0.845  1.00  0.00     0.004 A 
ATOM      9  C   UNL     1       8.294  -1.157  -1.481  1.00  0.00     0.004 A 
ATOM     10  C   UNL     1      10.130  -1.230   0.515  1.00  0.00     0.000 A 
ATOM     11  C   UNL     1       9.617  -1.377  -1.805  1.00  0.00     0.000 A 
ATOM     12  C   UNL     1      10.540  -1.411  -0.782  1.00  0.00     0.000 A 
ENDBRANCH   6   7
ENDBRANCH   1   6
TORSDOF 4
ENDMDL
MODEL 5
REMARK VINA RESULT:      -6.0      3.477      5.079
REMARK SMILES O=C(O)CCc1ccccc1
REMARK SMILES IDX 4 1 2 2 1 3 3 4 5 6 6 7 7 8 11 9 8 10 10 11 9 12
REMARK H PARENT 3 5
REMARK Flexibility Score: inf
ROOT
ATOM      1  C   UNL     1       8.343  -0.715  -2.120  1.00  0.00     0.127 C 
ENDROOT
BRANCH   1   2
ATOM      2  C   UNL     1       8.461  -1.955  -2.922  1.00  0.00     0.303 C 
ATOM      3  O   UNL     1       9.579  -2.478  -3.152  1.00  0.00    -0.252 OA
BRANCH   2   4
ATOM      4  O   UNL     1       7.335  -2.573  -3.443  1.00  0.00    -0.481 OA
ATOM      5  H   UNL     1       7.440  -3.445  -3.968  1.00  0.00     0.296 HD
ENDBRANCH   2   4
ENDBRANCH   1   2
BRANCH   1   6
ATOM      6  C   UNL     1       6.911  -0.551  -1.712  1.00  0.00     0.047 C 
BRANCH   6   7
ATOM      7  C   UNL     1       6.684  -0.685  -0.274  1.00  0.00    -0.047 A 
ATOM      8  C   UNL     1       7.298  -1.684   0.446  1.00  0.00     0.004 A 
ATOM      9  C   UNL     1       5.845   0.203   0.359  1.00  0.00     0.004 A 
ATOM     10  C   UNL     1       7.036  -1.751   1.816  1.00  0.00     0.000 A 
ATOM     11  C   UNL     1       5.587   0.135   1.713  1.00  0.00     0.000 A 
ATOM     12  C   UNL     1       6.198  -0.863   2.441  1.00  0.00     0.000 A 
ENDBRANCH   6   7
ENDBRANCH   1   6
TORSDOF 4
ENDMDL
