@<TRIPOS>MOLECULE
/home/cewinharhar/GITHUB/reincatalyze/data/processed/docking_pred/2023-Apr-26-1657_maxeplen10_maxtrainstep1000_exh32_gamma099_lrac9e-4_lrcr1e-3/97a603521aa4ec025b6db977763cb198737ffc85_ligand_2.pdbqt
 12 12 0 0 0
SMALL
GASTEIGER

@<TRIPOS>ATOM
      1  C          8.3430   -0.7150   -2.1200 C.3     1  UNL1        0.1270
      2  C          8.4610   -1.9550   -2.9220 C.2     1  UNL1        0.3030
      3  O          9.5790   -2.4780   -3.1520 O.2     1  UNL1       -0.2520
      4  O          7.3350   -2.5730   -3.4430 O.3     1  UNL1       -0.4810
      5  H          7.4400   -3.4450   -3.9680 H       1  UNL1        0.2960
      6  C          6.9110   -0.5510   -1.7120 C.3     1  UNL1        0.0470
      7  C          6.6840   -0.6850   -0.2740 C.2     1  UNL1       -0.0470
      8  C          7.2980   -1.6840    0.4460 C.2     1  UNL1        0.0040
      9  C          5.8450    0.2030    0.3590 C.2     1  UNL1        0.0040
     10  C          7.0360   -1.7510    1.8160 C.2     1  UNL1        0.0000
     11  C          5.5870    0.1350    1.7130 C.2     1  UNL1        0.0000
     12  C          6.1980   -0.8630    2.4410 C.2     1  UNL1        0.0000
@<TRIPOS>BOND
     1     5     4    1
     2     4     2    1
     3     3     2    2
     4     2     1    1
     5     1     6    1
     6     6     7    1
     7     7     9    2
     8     7     8    1
     9     9    11    1
    10     8    10    2
    11    11    12    2
    12    10    12    1
