@<TRIPOS>MOLECULE
/home/cewinharhar/GITHUB/reincatalyze/data/processed/docking_pred/2023-Apr-26-1657_maxeplen10_maxtrainstep1000_exh32_gamma099_lrac9e-4_lrcr1e-3/97a603521aa4ec025b6db977763cb198737ffc85_ligand_2.pdbqt
 12 12 0 0 0
SMALL
GASTEIGER

@<TRIPOS>ATOM
      1  C          5.2900   -0.2410    1.8950 C.3     1  UNL1        0.1270
      2  C          4.5940    1.0660    1.9630 C.2     1  UNL1        0.3030
      3  O          5.0940    2.0970    1.4490 O.2     1  UNL1       -0.2520
      4  O          3.3690    1.1860    2.5990 O.3     1  UNL1       -0.4810
      5  H          3.3220    1.6420    3.5150 H       1  UNL1        0.2960
      6  C          6.7650    0.0130    1.8410 C.3     1  UNL1        0.0470
      7  C          7.4390   -0.6310    0.7150 C.2     1  UNL1       -0.0470
      8  C          6.7740   -0.8520   -0.4690 C.2     1  UNL1        0.0040
      9  C          8.7530   -1.0150    0.8490 C.2     1  UNL1        0.0040
     10  C          7.4800   -1.4710   -1.5030 C.2     1  UNL1        0.0000
     11  C          9.4490   -1.6270   -0.1740 C.2     1  UNL1        0.0000
     12  C          8.7900   -1.8520   -1.3630 C.2     1  UNL1        0.0000
@<TRIPOS>BOND
     1    10    12    2
     2    10     8    1
     3    12    11    1
     4     8     7    2
     5    11     9    2
     6     7     9    1
     7     7     6    1
     8     3     2    2
     9     6     1    1
    10     1     2    1
    11     2     4    1
    12     4     5    1
