@<TRIPOS>MOLECULE
/home/cewinharhar/GITHUB/reincatalyze/data/processed/docking_pred/2023-Apr-26-1657_maxeplen10_maxtrainstep1000_exh32_gamma099_lrac9e-4_lrcr1e-3/97b80f67ae9ab19215981068b7c743dd8d1e9d0d_ligand_2.pdbqt
 12 12 0 0 0
SMALL
GASTEIGER

@<TRIPOS>ATOM
      1  C          7.2510   -1.2550   -2.4230 C.3     1  UNL1        0.1270
      2  C          8.7190   -1.3810   -2.5810 C.2     1  UNL1        0.3030
      3  O          9.5000   -0.5180   -2.1090 O.2     1  UNL1       -0.2520
      4  O          9.2700   -2.4570   -3.2570 O.3     1  UNL1       -0.4810
      5  H          9.5420   -3.2930   -2.7310 H       1  UNL1        0.2960
      6  C          6.9470    0.1290   -1.9360 C.3     1  UNL1        0.0470
      7  C          6.3810    0.1740   -0.5890 C.2     1  UNL1       -0.0470
      8  C          6.5580   -0.8740    0.2840 C.2     1  UNL1        0.0040
      9  C          5.6670    1.2830   -0.1970 C.2     1  UNL1        0.0040
     10  C          5.9910   -0.7620    1.5550 C.2     1  UNL1        0.0000
     11  C          5.1070    1.3920    1.0600 C.2     1  UNL1        0.0000
     12  C          5.2790    0.3450    1.9400 C.2     1  UNL1        0.0000
@<TRIPOS>BOND
     1     4     5    1
     2     4     2    1
     3     2     1    1
     4     2     3    2
     5     1     6    1
     6     6     7    1
     7     7     9    2
     8     7     8    1
     9     9    11    1
    10     8    10    2
    11    11    12    2
    12    10    12    1
