MODEL 1
REMARK VINA RESULT:      -7.3      0.000      0.000
REMARK SMILES O=C(O)CCc1ccccc1
REMARK SMILES IDX 4 1 2 2 1 3 3 4 5 6 6 7 7 8 11 9 8 10 10 11 9 12
REMARK H PARENT 3 5
REMARK Flexibility Score: inf
ROOT
ATOM      1  C   UNL     1       8.437  -0.606  -2.169  1.00  0.00     0.127 C 
ENDROOT
BRANCH   1   2
ATOM      2  C   UNL     1       8.482  -1.890  -2.909  1.00  0.00     0.303 C 
ATOM      3  O   UNL     1       9.567  -2.495  -3.096  1.00  0.00    -0.252 OA
BRANCH   2   4
ATOM      4  O   UNL     1       7.325  -2.458  -3.417  1.00  0.00    -0.481 OA
ATOM      5  H   UNL     1       7.352  -2.918  -4.331  1.00  0.00     0.296 HD
ENDBRANCH   2   4
ENDBRANCH   1   2
BRANCH   1   6
ATOM      6  C   UNL     1       7.015  -0.136  -2.130  1.00  0.00     0.047 C 
BRANCH   6   7
ATOM      7  C   UNL     1       6.480   0.027  -0.779  1.00  0.00    -0.047 A 
ATOM      8  C   UNL     1       6.607  -0.976   0.154  1.00  0.00     0.004 A 
ATOM      9  C   UNL     1       5.848   1.202  -0.445  1.00  0.00     0.004 A 
ATOM     10  C   UNL     1       6.073  -0.751   1.425  1.00  0.00     0.000 A 
ATOM     11  C   UNL     1       5.320   1.423   0.812  1.00  0.00     0.000 A 
ATOM     12  C   UNL     1       5.442   0.423   1.752  1.00  0.00     0.000 A 
ENDBRANCH   6   7
ENDBRANCH   1   6
TORSDOF 4
ENDMDL
MODEL 2
REMARK VINA RESULT:      -7.3      0.123      1.732
REMARK SMILES O=C(O)CCc1ccccc1
REMARK SMILES IDX 4 1 2 2 1 3 3 4 5 6 6 7 7 8 11 9 8 10 10 11 9 12
REMARK H PARENT 3 5
REMARK Flexibility Score: inf
ROOT
ATOM      1  C   UNL     1       8.389  -0.624  -2.114  1.00  0.00     0.127 C 
ENDROOT
BRANCH   1   2
ATOM      2  C   UNL     1       8.368  -1.883  -2.896  1.00  0.00     0.303 C 
ATOM      3  O   UNL     1       7.285  -2.411  -3.249  1.00  0.00    -0.252 OA
BRANCH   2   4
ATOM      4  O   UNL     1       9.547  -2.513  -3.260  1.00  0.00    -0.481 OA
ATOM      5  H   UNL     1      10.436  -2.162  -2.892  1.00  0.00     0.296 HD
ENDBRANCH   2   4
ENDBRANCH   1   2
BRANCH   1   6
ATOM      6  C   UNL     1       6.999  -0.066  -2.083  1.00  0.00     0.047 C 
BRANCH   6   7
ATOM      7  C   UNL     1       6.450   0.088  -0.737  1.00  0.00    -0.047 A 
ATOM      8  C   UNL     1       5.816   1.251  -0.365  1.00  0.00     0.004 A 
ATOM      9  C   UNL     1       6.571  -0.948   0.160  1.00  0.00     0.004 A 
ATOM     10  C   UNL     1       5.315   1.328   0.936  1.00  0.00     0.000 A 
ATOM     11  C   UNL     1       6.075  -0.870   1.446  1.00  0.00     0.000 A 
ATOM     12  C   UNL     1       5.439   0.292   1.827  1.00  0.00     0.000 A 
ENDBRANCH   6   7
ENDBRANCH   1   6
TORSDOF 4
ENDMDL
MODEL 3
REMARK VINA RESULT:      -7.1      0.816      1.023
REMARK SMILES O=C(O)CCc1ccccc1
REMARK SMILES IDX 4 1 2 2 1 3 3 4 5 6 6 7 7 8 11 9 8 10 10 11 9 12
REMARK H PARENT 3 5
REMARK Flexibility Score: inf
ROOT
ATOM      1  C   UNL     1       7.251  -1.255  -2.423  1.00  0.00     0.127 C 
ENDROOT
BRANCH   1   2
ATOM      2  C   UNL     1       8.719  -1.381  -2.581  1.00  0.00     0.303 C 
ATOM      3  O   UNL     1       9.500  -0.518  -2.109  1.00  0.00    -0.252 OA
BRANCH   2   4
ATOM      4  O   UNL     1       9.270  -2.457  -3.257  1.00  0.00    -0.481 OA
ATOM      5  H   UNL     1       9.542  -3.293  -2.731  1.00  0.00     0.296 HD
ENDBRANCH   2   4
ENDBRANCH   1   2
BRANCH   1   6
ATOM      6  C   UNL     1       6.947   0.129  -1.936  1.00  0.00     0.047 C 
BRANCH   6   7
ATOM      7  C   UNL     1       6.381   0.174  -0.589  1.00  0.00    -0.047 A 
ATOM      8  C   UNL     1       6.558  -0.874   0.284  1.00  0.00     0.004 A 
ATOM      9  C   UNL     1       5.667   1.283  -0.197  1.00  0.00     0.004 A 
ATOM     10  C   UNL     1       5.991  -0.762   1.555  1.00  0.00     0.000 A 
ATOM     11  C   UNL     1       5.107   1.392   1.060  1.00  0.00     0.000 A 
ATOM     12  C   UNL     1       5.279   0.345   1.940  1.00  0.00     0.000 A 
ENDBRANCH   6   7
ENDBRANCH   1   6
TORSDOF 4
ENDMDL
MODEL 4
REMARK VINA RESULT:      -6.8      3.372      5.074
REMARK SMILES O=C(O)CCc1ccccc1
REMARK SMILES IDX 4 1 2 2 1 3 3 4 5 6 6 7 7 8 11 9 8 10 10 11 9 12
REMARK H PARENT 3 5
REMARK Flexibility Score: inf
ROOT
ATOM      1  C   UNL     1       5.013   1.772   0.672  1.00  0.00     0.127 C 
ENDROOT
BRANCH   1   2
ATOM      2  C   UNL     1       4.503   1.108   1.895  1.00  0.00     0.303 C 
ATOM      3  O   UNL     1       5.164   0.207   2.470  1.00  0.00    -0.252 OA
BRANCH   2   4
ATOM      4  O   UNL     1       3.279   1.463   2.439  1.00  0.00    -0.481 OA
ATOM      5  H   UNL     1       3.090   2.448   2.646  1.00  0.00     0.296 HD
ENDBRANCH   2   4
ENDBRANCH   1   2
BRANCH   1   6
ATOM      6  C   UNL     1       6.510   1.788   0.734  1.00  0.00     0.047 C 
BRANCH   6   7
ATOM      7  C   UNL     1       7.157   1.042  -0.344  1.00  0.00    -0.047 A 
ATOM      8  C   UNL     1       8.487   1.240  -0.636  1.00  0.00     0.004 A 
ATOM      9  C   UNL     1       6.421   0.134  -1.068  1.00  0.00     0.004 A 
ATOM     10  C   UNL     1       9.040   0.492  -1.678  1.00  0.00     0.000 A 
ATOM     11  C   UNL     1       6.969  -0.604  -2.099  1.00  0.00     0.000 A 
ATOM     12  C   UNL     1       8.300  -0.412  -2.398  1.00  0.00     0.000 A 
ENDBRANCH   6   7
ENDBRANCH   1   6
TORSDOF 4
ENDMDL
MODEL 5
REMARK VINA RESULT:      -6.6      1.926      2.617
REMARK SMILES O=C(O)CCc1ccccc1
REMARK SMILES IDX 4 1 2 2 1 3 3 4 5 6 6 7 7 8 11 9 8 10 10 11 9 12
REMARK H PARENT 3 5
REMARK Flexibility Score: inf
ROOT
ATOM      1  C   UNL     1       8.194   0.190  -2.141  1.00  0.00     0.127 C 
ENDROOT
BRANCH   1   2
ATOM      2  C   UNL     1       9.345   0.339  -1.219  1.00  0.00     0.303 C 
ATOM      3  O   UNL     1       9.467  -0.394  -0.206  1.00  0.00    -0.252 OA
BRANCH   2   4
ATOM      4  O   UNL     1      10.321   1.295  -1.450  1.00  0.00    -0.481 OA
ATOM      5  H   UNL     1      10.428   2.071  -0.791  1.00  0.00     0.296 HD
ENDBRANCH   2   4
ENDBRANCH   1   2
BRANCH   1   6
ATOM      6  C   UNL     1       7.131  -0.603  -1.443  1.00  0.00     0.047 C 
BRANCH   6   7
ATOM      7  C   UNL     1       6.349   0.171  -0.480  1.00  0.00    -0.047 A 
ATOM      8  C   UNL     1       5.816   1.391  -0.826  1.00  0.00     0.004 A 
ATOM      9  C   UNL     1       6.146  -0.336   0.783  1.00  0.00     0.004 A 
ATOM     10  C   UNL     1       5.078   2.074   0.144  1.00  0.00     0.000 A 
ATOM     11  C   UNL     1       5.417   0.341   1.740  1.00  0.00     0.000 A 
ATOM     12  C   UNL     1       4.881   1.564   1.402  1.00  0.00     0.000 A 
ENDBRANCH   6   7
ENDBRANCH   1   6
TORSDOF 4
ENDMDL
