@<TRIPOS>MOLECULE
/home/cewinharhar/GITHUB/reincatalyze/data/processed/docking_pred/2023-Apr-26-1657_maxeplen10_maxtrainstep1000_exh32_gamma099_lrac9e-4_lrcr1e-3/97b80f67ae9ab19215981068b7c743dd8d1e9d0d_ligand_2.pdbqt
 12 12 0 0 0
SMALL
GASTEIGER

@<TRIPOS>ATOM
      1  C          5.0130    1.7720    0.6720 C.3     1  UNL1        0.1270
      2  C          4.5030    1.1080    1.8950 C.2     1  UNL1        0.3030
      3  O          5.1640    0.2070    2.4700 O.2     1  UNL1       -0.2520
      4  O          3.2790    1.4630    2.4390 O.3     1  UNL1       -0.4810
      5  H          3.0900    2.4480    2.6460 H       1  UNL1        0.2960
      6  C          6.5100    1.7880    0.7340 C.3     1  UNL1        0.0470
      7  C          7.1570    1.0420   -0.3440 C.2     1  UNL1       -0.0470
      8  C          8.4870    1.2400   -0.6360 C.2     1  UNL1        0.0040
      9  C          6.4210    0.1340   -1.0680 C.2     1  UNL1        0.0040
     10  C          9.0400    0.4920   -1.6780 C.2     1  UNL1        0.0000
     11  C          6.9690   -0.6040   -2.0990 C.2     1  UNL1        0.0000
     12  C          8.3000   -0.4120   -2.3980 C.2     1  UNL1        0.0000
@<TRIPOS>BOND
     1    12    11    2
     2    12    10    1
     3    11     9    1
     4    10     8    2
     5     9     7    2
     6     8     7    1
     7     7     6    1
     8     1     6    1
     9     1     2    1
    10     2     4    1
    11     2     3    2
    12     4     5    1
