@<TRIPOS>MOLECULE
/home/cewinharhar/GITHUB/reincatalyze/data/processed/docking_pred/2023-Apr-26-1657_maxeplen10_maxtrainstep1000_exh32_gamma099_lrac9e-4_lrcr1e-3/97b80f67ae9ab19215981068b7c743dd8d1e9d0d_ligand_2.pdbqt
 12 12 0 0 0
SMALL
GASTEIGER

@<TRIPOS>ATOM
      1  C          8.3890   -0.6240   -2.1140 C.3     1  UNL1        0.1270
      2  C          8.3680   -1.8830   -2.8960 C.2     1  UNL1        0.3030
      3  O          7.2850   -2.4110   -3.2490 O.2     1  UNL1       -0.2520
      4  O          9.5470   -2.5130   -3.2600 O.3     1  UNL1       -0.4810
      5  H         10.4360   -2.1620   -2.8920 H       1  UNL1        0.2960
      6  C          6.9990   -0.0660   -2.0830 C.3     1  UNL1        0.0470
      7  C          6.4500    0.0880   -0.7370 C.2     1  UNL1       -0.0470
      8  C          5.8160    1.2510   -0.3650 C.2     1  UNL1        0.0040
      9  C          6.5710   -0.9480    0.1600 C.2     1  UNL1        0.0040
     10  C          5.3150    1.3280    0.9360 C.2     1  UNL1        0.0000
     11  C          6.0750   -0.8700    1.4460 C.2     1  UNL1        0.0000
     12  C          5.4390    0.2920    1.8270 C.2     1  UNL1        0.0000
@<TRIPOS>BOND
     1     4     2    1
     2     4     5    1
     3     3     2    2
     4     2     1    1
     5     1     6    1
     6     6     7    1
     7     7     8    2
     8     7     9    1
     9     8    10    1
    10     9    11    2
    11    10    12    2
    12    11    12    1
