@<TRIPOS>MOLECULE
/home/cewinharhar/GITHUB/reincatalyze/data/processed/docking_pred/2023-Apr-26-1657_maxeplen10_maxtrainstep1000_exh32_gamma099_lrac9e-4_lrcr1e-3/97b80f67ae9ab19215981068b7c743dd8d1e9d0d_ligand_2.pdbqt
 12 12 0 0 0
SMALL
GASTEIGER

@<TRIPOS>ATOM
      1  C          8.1940    0.1900   -2.1410 C.3     1  UNL1        0.1270
      2  C          9.3450    0.3390   -1.2190 C.2     1  UNL1        0.3030
      3  O          9.4670   -0.3940   -0.2060 O.2     1  UNL1       -0.2520
      4  O         10.3210    1.2950   -1.4500 O.3     1  UNL1       -0.4810
      5  H         10.4280    2.0710   -0.7910 H       1  UNL1        0.2960
      6  C          7.1310   -0.6030   -1.4430 C.3     1  UNL1        0.0470
      7  C          6.3490    0.1710   -0.4800 C.2     1  UNL1       -0.0470
      8  C          5.8160    1.3910   -0.8260 C.2     1  UNL1        0.0040
      9  C          6.1460   -0.3360    0.7830 C.2     1  UNL1        0.0040
     10  C          5.0780    2.0740    0.1440 C.2     1  UNL1        0.0000
     11  C          5.4170    0.3410    1.7400 C.2     1  UNL1        0.0000
     12  C          4.8810    1.5640    1.4020 C.2     1  UNL1        0.0000
@<TRIPOS>BOND
     1     1     6    1
     2     1     2    1
     3     4     2    1
     4     4     5    1
     5     6     7    1
     6     2     3    2
     7     8     7    2
     8     8    10    1
     9     7     9    1
    10    10    12    2
    11     9    11    2
    12    12    11    1
