@<TRIPOS>MOLECULE
/home/cewinharhar/GITHUB/reincatalyze/data/processed/docking_pred/2023-Apr-26-1657_maxeplen10_maxtrainstep1000_exh32_gamma099_lrac9e-4_lrcr1e-3/97b80f67ae9ab19215981068b7c743dd8d1e9d0d_ligand_2.pdbqt
 12 12 0 0 0
SMALL
GASTEIGER

@<TRIPOS>ATOM
      1  C          8.4370   -0.6060   -2.1690 C.3     1  UNL1        0.1270
      2  C          8.4820   -1.8900   -2.9090 C.2     1  UNL1        0.3030
      3  O          9.5670   -2.4950   -3.0960 O.2     1  UNL1       -0.2520
      4  O          7.3250   -2.4580   -3.4170 O.3     1  UNL1       -0.4810
      5  H          7.3520   -2.9180   -4.3310 H       1  UNL1        0.2960
      6  C          7.0150   -0.1360   -2.1300 C.3     1  UNL1        0.0470
      7  C          6.4800    0.0270   -0.7790 C.2     1  UNL1       -0.0470
      8  C          6.6070   -0.9760    0.1540 C.2     1  UNL1        0.0040
      9  C          5.8480    1.2020   -0.4450 C.2     1  UNL1        0.0040
     10  C          6.0730   -0.7510    1.4250 C.2     1  UNL1        0.0000
     11  C          5.3200    1.4230    0.8120 C.2     1  UNL1        0.0000
     12  C          5.4420    0.4230    1.7520 C.2     1  UNL1        0.0000
@<TRIPOS>BOND
     1     5     4    1
     2     4     2    1
     3     3     2    2
     4     2     1    1
     5     1     6    1
     6     6     7    1
     7     7     9    2
     8     7     8    1
     9     9    11    1
    10     8    10    2
    11    11    12    2
    12    10    12    1
