@<TRIPOS>MOLECULE
/home/cewinharhar/GITHUB/reincatalyze/data/processed/docking_pred/2023-Apr-26-1657_maxeplen10_maxtrainstep1000_exh32_gamma099_lrac9e-4_lrcr1e-3/98143cc994f0f1178ca0c26b4d55a54c550f1343_ligand_2.pdbqt
 12 12 0 0 0
SMALL
GASTEIGER

@<TRIPOS>ATOM
      1  C          8.2420    0.1780   -2.1950 C.3     1  UNL1        0.1270
      2  C          9.3670    0.3300   -1.2420 C.2     1  UNL1        0.3030
      3  O          9.4590   -0.3970   -0.2230 O.2     1  UNL1       -0.2520
      4  O         10.3520    1.2820   -1.4520 O.3     1  UNL1       -0.4810
      5  H         10.9320    1.2260   -2.2940 H       1  UNL1        0.2960
      6  C          7.1450   -0.5780   -1.5110 C.3     1  UNL1        0.0470
      7  C          6.3690    0.2230   -0.5670 C.2     1  UNL1       -0.0470
      8  C          6.1540   -0.2160    0.7190 C.2     1  UNL1        0.0040
      9  C          5.8530    1.4310   -0.9770 C.2     1  UNL1        0.0040
     10  C          5.4050    0.6020    1.5670 C.2     1  UNL1        0.0000
     11  C          5.1110    2.2380   -0.1370 C.2     1  UNL1        0.0000
     12  C          4.8910    1.8050    1.1520 C.2     1  UNL1        0.0000
@<TRIPOS>BOND
     1     5     4    1
     2     1     6    1
     3     1     2    1
     4     6     7    1
     5     4     2    1
     6     2     3    2
     7     9     7    2
     8     9    11    1
     9     7     8    1
    10    11    12    2
    11     8    10    2
    12    12    10    1
