@<TRIPOS>MOLECULE
/home/cewinharhar/GITHUB/reincatalyze/data/processed/docking_pred/2023-Apr-26-1657_maxeplen10_maxtrainstep1000_exh32_gamma099_lrac9e-4_lrcr1e-3/98143cc994f0f1178ca0c26b4d55a54c550f1343_ligand_2.pdbqt
 12 12 0 0 0
SMALL
GASTEIGER

@<TRIPOS>ATOM
      1  C          5.0730    1.7280    0.7200 C.3     1  UNL1        0.1270
      2  C          4.5810    1.0350    1.9340 C.2     1  UNL1        0.3030
      3  O          5.2670    0.1480    2.5000 O.2     1  UNL1       -0.2520
      4  O          3.3460    1.3470    2.4790 O.3     1  UNL1       -0.4810
      5  H          2.5620    1.5550    1.8550 H       1  UNL1        0.2960
      6  C          6.5700    1.7310    0.7540 C.3     1  UNL1        0.0470
      7  C          7.1920    0.9930   -0.3440 C.2     1  UNL1       -0.0470
      8  C          8.5040    1.2190   -0.6900 C.2     1  UNL1        0.0040
      9  C          6.4480    0.0630   -1.0330 C.2     1  UNL1        0.0040
     10  C          9.0320    0.4760   -1.7490 C.2     1  UNL1        0.0000
     11  C          6.9720   -0.6700   -2.0800 C.2     1  UNL1        0.0000
     12  C          8.2850   -0.4500   -2.4330 C.2     1  UNL1        0.0000
@<TRIPOS>BOND
     1    12    11    2
     2    12    10    1
     3    11     9    1
     4    10     8    2
     5     9     7    2
     6     8     7    1
     7     7     6    1
     8     1     6    1
     9     1     2    1
    10     5     4    1
    11     2     4    1
    12     2     3    2
