@<TRIPOS>MOLECULE
/home/cewinharhar/GITHUB/reincatalyze/data/processed/docking_pred/2023-Apr-26-1657_maxeplen10_maxtrainstep1000_exh32_gamma099_lrac9e-4_lrcr1e-3/98143cc994f0f1178ca0c26b4d55a54c550f1343_ligand_2.pdbqt
 12 12 0 0 0
SMALL
GASTEIGER

@<TRIPOS>ATOM
      1  C          8.4310   -0.6290   -2.1330 C.3     1  UNL1        0.1270
      2  C          8.4730   -1.8960   -2.9000 C.2     1  UNL1        0.3030
      3  O          9.5550   -2.5040   -3.0930 O.2     1  UNL1       -0.2520
      4  O          7.3160   -2.4450   -3.4290 O.3     1  UNL1       -0.4810
      5  H          6.4660   -1.8770   -3.4700 H       1  UNL1        0.2960
      6  C          7.0160   -0.1370   -2.1150 C.3     1  UNL1        0.0470
      7  C          6.4660    0.0430   -0.7720 C.2     1  UNL1       -0.0470
      8  C          6.5830   -0.9470    0.1750 C.2     1  UNL1        0.0040
      9  C          5.8270    1.2220   -0.4610 C.2     1  UNL1        0.0040
     10  C          6.0350   -0.7060    1.4360 C.2     1  UNL1        0.0000
     11  C          5.2850    1.4580    0.7870 C.2     1  UNL1        0.0000
     12  C          5.3980    0.4700    1.7410 C.2     1  UNL1        0.0000
@<TRIPOS>BOND
     1     5     4    1
     2     4     2    1
     3     3     2    2
     4     2     1    1
     5     1     6    1
     6     6     7    1
     7     7     9    2
     8     7     8    1
     9     9    11    1
    10     8    10    2
    11    11    12    2
    12    10    12    1
