@<TRIPOS>MOLECULE
/home/cewinharhar/GITHUB/reincatalyze/data/processed/docking_pred/2023-Apr-26-1657_maxeplen10_maxtrainstep1000_exh32_gamma099_lrac9e-4_lrcr1e-3/98143cc994f0f1178ca0c26b4d55a54c550f1343_ligand_2.pdbqt
 12 12 0 0 0
SMALL
GASTEIGER

@<TRIPOS>ATOM
      1  C          8.4220   -0.6220   -2.1470 C.3     1  UNL1        0.1270
      2  C          8.4700   -1.8980   -2.9000 C.2     1  UNL1        0.3030
      3  O          9.5550   -2.5030   -3.0850 O.2     1  UNL1       -0.2520
      4  O          7.3160   -2.4580   -3.4220 O.3     1  UNL1       -0.4810
      5  H          7.1960   -3.4750   -3.3950 H       1  UNL1        0.2960
      6  C          7.0020   -0.1430   -2.1240 C.3     1  UNL1        0.0470
      7  C          6.4620    0.0510   -0.7800 C.2     1  UNL1       -0.0470
      8  C          5.8330    1.2250   -0.4370 C.2     1  UNL1        0.0040
      9  C          6.5860   -0.9590    0.1460 C.2     1  UNL1        0.0040
     10  C          5.3400    1.3410    0.8650 C.2     1  UNL1        0.0000
     11  C          6.0980   -0.8430    1.4320 C.2     1  UNL1        0.0000
     12  C          5.4670    0.3300    1.7840 C.2     1  UNL1        0.0000
@<TRIPOS>BOND
     1     4     5    1
     2     4     2    1
     3     3     2    2
     4     2     1    1
     5     1     6    1
     6     6     7    1
     7     7     8    2
     8     7     9    1
     9     8    10    1
    10     9    11    2
    11    10    12    2
    12    11    12    1
