MODEL 1
REMARK VINA RESULT:      -7.4      0.000      0.000
REMARK SMILES O=C(O)CCc1ccccc1
REMARK SMILES IDX 4 1 2 2 1 3 3 4 5 6 6 7 7 8 11 9 8 10 10 11 9 12
REMARK H PARENT 3 5
REMARK Flexibility Score: inf
ROOT
ATOM      1  C   UNL     1       8.431  -0.629  -2.133  1.00  0.00     0.127 C 
ENDROOT
BRANCH   1   2
ATOM      2  C   UNL     1       8.473  -1.896  -2.900  1.00  0.00     0.303 C 
ATOM      3  O   UNL     1       9.555  -2.504  -3.093  1.00  0.00    -0.252 OA
BRANCH   2   4
ATOM      4  O   UNL     1       7.316  -2.445  -3.429  1.00  0.00    -0.481 OA
ATOM      5  H   UNL     1       6.466  -1.877  -3.470  1.00  0.00     0.296 HD
ENDBRANCH   2   4
ENDBRANCH   1   2
BRANCH   1   6
ATOM      6  C   UNL     1       7.016  -0.137  -2.115  1.00  0.00     0.047 C 
BRANCH   6   7
ATOM      7  C   UNL     1       6.466   0.043  -0.772  1.00  0.00    -0.047 A 
ATOM      8  C   UNL     1       6.583  -0.947   0.175  1.00  0.00     0.004 A 
ATOM      9  C   UNL     1       5.827   1.222  -0.461  1.00  0.00     0.004 A 
ATOM     10  C   UNL     1       6.035  -0.706   1.436  1.00  0.00     0.000 A 
ATOM     11  C   UNL     1       5.285   1.458   0.787  1.00  0.00     0.000 A 
ATOM     12  C   UNL     1       5.398   0.470   1.741  1.00  0.00     0.000 A 
ENDBRANCH   6   7
ENDBRANCH   1   6
TORSDOF 4
ENDMDL
MODEL 2
REMARK VINA RESULT:      -7.3      0.082      1.438
REMARK SMILES O=C(O)CCc1ccccc1
REMARK SMILES IDX 4 1 2 2 1 3 3 4 5 6 6 7 7 8 11 9 8 10 10 11 9 12
REMARK H PARENT 3 5
REMARK Flexibility Score: inf
ROOT
ATOM      1  C   UNL     1       8.422  -0.622  -2.147  1.00  0.00     0.127 C 
ENDROOT
BRANCH   1   2
ATOM      2  C   UNL     1       8.470  -1.898  -2.900  1.00  0.00     0.303 C 
ATOM      3  O   UNL     1       9.555  -2.503  -3.085  1.00  0.00    -0.252 OA
BRANCH   2   4
ATOM      4  O   UNL     1       7.316  -2.458  -3.422  1.00  0.00    -0.481 OA
ATOM      5  H   UNL     1       7.196  -3.475  -3.395  1.00  0.00     0.296 HD
ENDBRANCH   2   4
ENDBRANCH   1   2
BRANCH   1   6
ATOM      6  C   UNL     1       7.002  -0.143  -2.124  1.00  0.00     0.047 C 
BRANCH   6   7
ATOM      7  C   UNL     1       6.462   0.051  -0.780  1.00  0.00    -0.047 A 
ATOM      8  C   UNL     1       5.833   1.225  -0.437  1.00  0.00     0.004 A 
ATOM      9  C   UNL     1       6.586  -0.959   0.146  1.00  0.00     0.004 A 
ATOM     10  C   UNL     1       5.340   1.341   0.865  1.00  0.00     0.000 A 
ATOM     11  C   UNL     1       6.098  -0.843   1.432  1.00  0.00     0.000 A 
ATOM     12  C   UNL     1       5.467   0.330   1.784  1.00  0.00     0.000 A 
ENDBRANCH   6   7
ENDBRANCH   1   6
TORSDOF 4
ENDMDL
MODEL 3
REMARK VINA RESULT:      -7.1      0.678      1.863
REMARK SMILES O=C(O)CCc1ccccc1
REMARK SMILES IDX 4 1 2 2 1 3 3 4 5 6 6 7 7 8 11 9 8 10 10 11 9 12
REMARK H PARENT 3 5
REMARK Flexibility Score: inf
ROOT
ATOM      1  C   UNL     1       8.349  -1.017  -1.698  1.00  0.00     0.127 C 
ENDROOT
BRANCH   1   2
ATOM      2  C   UNL     1       8.359  -2.019  -2.790  1.00  0.00     0.303 C 
ATOM      3  O   UNL     1       7.289  -2.436  -3.300  1.00  0.00    -0.252 OA
BRANCH   2   4
ATOM      4  O   UNL     1       9.552  -2.525  -3.279  1.00  0.00    -0.481 OA
ATOM      5  H   UNL     1       9.555  -3.434  -3.750  1.00  0.00     0.296 HD
ENDBRANCH   2   4
ENDBRANCH   1   2
BRANCH   1   6
ATOM      6  C   UNL     1       7.318  -1.427  -0.692  1.00  0.00     0.047 C 
BRANCH   6   7
ATOM      7  C   UNL     1       6.524  -0.317  -0.168  1.00  0.00    -0.047 A 
ATOM      8  C   UNL     1       6.222   0.766  -0.960  1.00  0.00     0.004 A 
ATOM      9  C   UNL     1       6.075  -0.366   1.131  1.00  0.00     0.004 A 
ATOM     10  C   UNL     1       5.458   1.790  -0.395  1.00  0.00     0.000 A 
ATOM     11  C   UNL     1       5.321   0.646   1.689  1.00  0.00     0.000 A 
ATOM     12  C   UNL     1       5.014   1.736   0.902  1.00  0.00     0.000 A 
ENDBRANCH   6   7
ENDBRANCH   1   6
TORSDOF 4
ENDMDL
MODEL 4
REMARK VINA RESULT:      -6.7      3.348      5.057
REMARK SMILES O=C(O)CCc1ccccc1
REMARK SMILES IDX 4 1 2 2 1 3 3 4 5 6 6 7 7 8 11 9 8 10 10 11 9 12
REMARK H PARENT 3 5
REMARK Flexibility Score: inf
ROOT
ATOM      1  C   UNL     1       5.073   1.728   0.720  1.00  0.00     0.127 C 
ENDROOT
BRANCH   1   2
ATOM      2  C   UNL     1       4.581   1.035   1.934  1.00  0.00     0.303 C 
ATOM      3  O   UNL     1       5.267   0.148   2.500  1.00  0.00    -0.252 OA
BRANCH   2   4
ATOM      4  O   UNL     1       3.346   1.347   2.479  1.00  0.00    -0.481 OA
ATOM      5  H   UNL     1       2.562   1.555   1.855  1.00  0.00     0.296 HD
ENDBRANCH   2   4
ENDBRANCH   1   2
BRANCH   1   6
ATOM      6  C   UNL     1       6.570   1.731   0.754  1.00  0.00     0.047 C 
BRANCH   6   7
ATOM      7  C   UNL     1       7.192   0.993  -0.344  1.00  0.00    -0.047 A 
ATOM      8  C   UNL     1       8.504   1.219  -0.690  1.00  0.00     0.004 A 
ATOM      9  C   UNL     1       6.448   0.063  -1.033  1.00  0.00     0.004 A 
ATOM     10  C   UNL     1       9.032   0.476  -1.749  1.00  0.00     0.000 A 
ATOM     11  C   UNL     1       6.972  -0.670  -2.080  1.00  0.00     0.000 A 
ATOM     12  C   UNL     1       8.285  -0.450  -2.433  1.00  0.00     0.000 A 
ENDBRANCH   6   7
ENDBRANCH   1   6
TORSDOF 4
ENDMDL
MODEL 5
REMARK VINA RESULT:      -6.7      1.919      2.274
REMARK SMILES O=C(O)CCc1ccccc1
REMARK SMILES IDX 4 1 2 2 1 3 3 4 5 6 6 7 7 8 11 9 8 10 10 11 9 12
REMARK H PARENT 3 5
REMARK Flexibility Score: inf
ROOT
ATOM      1  C   UNL     1       8.242   0.178  -2.195  1.00  0.00     0.127 C 
ENDROOT
BRANCH   1   2
ATOM      2  C   UNL     1       9.367   0.330  -1.242  1.00  0.00     0.303 C 
ATOM      3  O   UNL     1       9.459  -0.397  -0.223  1.00  0.00    -0.252 OA
BRANCH   2   4
ATOM      4  O   UNL     1      10.352   1.282  -1.452  1.00  0.00    -0.481 OA
ATOM      5  H   UNL     1      10.932   1.226  -2.294  1.00  0.00     0.296 HD
ENDBRANCH   2   4
ENDBRANCH   1   2
BRANCH   1   6
ATOM      6  C   UNL     1       7.145  -0.578  -1.511  1.00  0.00     0.047 C 
BRANCH   6   7
ATOM      7  C   UNL     1       6.369   0.223  -0.567  1.00  0.00    -0.047 A 
ATOM      8  C   UNL     1       6.154  -0.216   0.719  1.00  0.00     0.004 A 
ATOM      9  C   UNL     1       5.853   1.431  -0.977  1.00  0.00     0.004 A 
ATOM     10  C   UNL     1       5.405   0.602   1.567  1.00  0.00     0.000 A 
ATOM     11  C   UNL     1       5.111   2.238  -0.137  1.00  0.00     0.000 A 
ATOM     12  C   UNL     1       4.891   1.805   1.152  1.00  0.00     0.000 A 
ENDBRANCH   6   7
ENDBRANCH   1   6
TORSDOF 4
ENDMDL
