@<TRIPOS>MOLECULE
/home/cewinharhar/GITHUB/reincatalyze/data/processed/docking_pred/2023-Apr-26-1657_maxeplen10_maxtrainstep1000_exh32_gamma099_lrac9e-4_lrcr1e-3/98720eda2f8b5e3d73e45599e80051818594e19a_ligand_2.pdbqt
 12 12 0 0 0
SMALL
GASTEIGER

@<TRIPOS>ATOM
      1  C          5.0140    1.7900    0.6860 C.3     1  UNL1        0.1270
      2  C          4.5080    1.1190    1.9060 C.2     1  UNL1        0.3030
      3  O          5.1790    0.2290    2.4850 O.2     1  UNL1       -0.2520
      4  O          3.2760    1.4560    2.4430 O.3     1  UNL1       -0.4810
      5  H          3.1830    2.3260    2.9750 H       1  UNL1        0.2960
      6  C          6.5110    1.8020    0.7410 C.3     1  UNL1        0.0470
      7  C          7.1520    1.0530   -0.3380 C.2     1  UNL1       -0.0470
      8  C          8.4830    1.2420   -0.6310 C.2     1  UNL1        0.0040
      9  C          6.4090    0.1490   -1.0610 C.2     1  UNL1        0.0040
     10  C          9.0290    0.4910   -1.6750 C.2     1  UNL1        0.0000
     11  C          6.9510   -0.5920   -2.0920 C.2     1  UNL1        0.0000
     12  C          8.2830   -0.4080   -2.3930 C.2     1  UNL1        0.0000
@<TRIPOS>BOND
     1    12    11    2
     2    12    10    1
     3    11     9    1
     4    10     8    2
     5     9     7    2
     6     8     7    1
     7     7     6    1
     8     1     6    1
     9     1     2    1
    10     2     4    1
    11     2     3    2
    12     4     5    1
