MODEL 1
REMARK VINA RESULT:      -7.4      0.000      0.000
REMARK SMILES O=C(O)CCc1ccccc1
REMARK SMILES IDX 4 1 2 2 1 3 3 4 5 6 6 7 7 8 11 9 8 10 10 11 9 12
REMARK H PARENT 3 5
REMARK Flexibility Score: inf
ROOT
ATOM      1  C   UNL     1       8.497  -0.622  -2.141  1.00  0.00     0.127 C 
ENDROOT
BRANCH   1   2
ATOM      2  C   UNL     1       8.508  -1.896  -2.899  1.00  0.00     0.303 C 
ATOM      3  O   UNL     1       9.576  -2.528  -3.093  1.00  0.00    -0.252 OA
BRANCH   2   4
ATOM      4  O   UNL     1       7.336  -2.424  -3.416  1.00  0.00    -0.481 OA
ATOM      5  H   UNL     1       6.637  -2.812  -2.777  1.00  0.00     0.296 HD
ENDBRANCH   2   4
ENDBRANCH   1   2
BRANCH   1   6
ATOM      6  C   UNL     1       7.096  -0.091  -2.134  1.00  0.00     0.047 C 
BRANCH   6   7
ATOM      7  C   UNL     1       6.523   0.056  -0.797  1.00  0.00    -0.047 A 
ATOM      8  C   UNL     1       6.632  -0.955   0.130  1.00  0.00     0.004 A 
ATOM      9  C   UNL     1       5.872   1.222  -0.470  1.00  0.00     0.004 A 
ATOM     10  C   UNL     1       6.061  -0.746   1.387  1.00  0.00     0.000 A 
ATOM     11  C   UNL     1       5.308   1.428   0.773  1.00  0.00     0.000 A 
ATOM     12  C   UNL     1       5.412   0.420   1.707  1.00  0.00     0.000 A 
ENDBRANCH   6   7
ENDBRANCH   1   6
TORSDOF 4
ENDMDL
MODEL 2
REMARK VINA RESULT:      -7.4      0.076      1.438
REMARK SMILES O=C(O)CCc1ccccc1
REMARK SMILES IDX 4 1 2 2 1 3 3 4 5 6 6 7 7 8 11 9 8 10 10 11 9 12
REMARK H PARENT 3 5
REMARK Flexibility Score: inf
ROOT
ATOM      1  C   UNL     1       8.434  -0.701  -2.072  1.00  0.00     0.127 C 
ENDROOT
BRANCH   1   2
ATOM      2  C   UNL     1       8.470  -1.937  -2.889  1.00  0.00     0.303 C 
ATOM      3  O   UNL     1       9.548  -2.543  -3.104  1.00  0.00    -0.252 OA
BRANCH   2   4
ATOM      4  O   UNL     1       7.310  -2.459  -3.438  1.00  0.00    -0.481 OA
ATOM      5  H   UNL     1       6.873  -3.277  -3.003  1.00  0.00     0.296 HD
ENDBRANCH   2   4
ENDBRANCH   1   2
BRANCH   1   6
ATOM      6  C   UNL     1       7.034  -0.165  -2.092  1.00  0.00     0.047 C 
BRANCH   6   7
ATOM      7  C   UNL     1       6.467   0.063  -0.764  1.00  0.00    -0.047 A 
ATOM      8  C   UNL     1       5.820   1.241  -0.468  1.00  0.00     0.004 A 
ATOM      9  C   UNL     1       6.584  -0.917   0.194  1.00  0.00     0.004 A 
ATOM     10  C   UNL     1       5.301   1.390   0.820  1.00  0.00     0.000 A 
ATOM     11  C   UNL     1       6.071  -0.768   1.467  1.00  0.00     0.000 A 
ATOM     12  C   UNL     1       5.422   0.409   1.771  1.00  0.00     0.000 A 
ENDBRANCH   6   7
ENDBRANCH   1   6
TORSDOF 4
ENDMDL
MODEL 3
REMARK VINA RESULT:      -7.2      0.605      1.585
REMARK SMILES O=C(O)CCc1ccccc1
REMARK SMILES IDX 4 1 2 2 1 3 3 4 5 6 6 7 7 8 11 9 8 10 10 11 9 12
REMARK H PARENT 3 5
REMARK Flexibility Score: inf
ROOT
ATOM      1  C   UNL     1       8.170  -0.832  -1.968  1.00  0.00     0.127 C 
ENDROOT
BRANCH   1   2
ATOM      2  C   UNL     1       8.378  -1.982  -2.879  1.00  0.00     0.303 C 
ATOM      3  O   UNL     1       9.527  -2.439  -3.099  1.00  0.00    -0.252 OA
BRANCH   2   4
ATOM      4  O   UNL     1       7.306  -2.586  -3.516  1.00  0.00    -0.481 OA
ATOM      5  H   UNL     1       7.446  -3.482  -3.991  1.00  0.00     0.296 HD
ENDBRANCH   2   4
ENDBRANCH   1   2
BRANCH   1   6
ATOM      6  C   UNL     1       7.324  -1.289  -0.819  1.00  0.00     0.047 C 
BRANCH   6   7
ATOM      7  C   UNL     1       6.516  -0.229  -0.218  1.00  0.00    -0.047 A 
ATOM      8  C   UNL     1       6.132   0.867  -0.955  1.00  0.00     0.004 A 
ATOM      9  C   UNL     1       6.139  -0.339   1.101  1.00  0.00     0.004 A 
ATOM     10  C   UNL     1       5.361   1.840  -0.315  1.00  0.00     0.000 A 
ATOM     11  C   UNL     1       5.377   0.624   1.732  1.00  0.00     0.000 A 
ATOM     12  C   UNL     1       4.989   1.726   1.000  1.00  0.00     0.000 A 
ENDBRANCH   6   7
ENDBRANCH   1   6
TORSDOF 4
ENDMDL
MODEL 4
REMARK VINA RESULT:      -7.1      0.625      1.465
REMARK SMILES O=C(O)CCc1ccccc1
REMARK SMILES IDX 4 1 2 2 1 3 3 4 5 6 6 7 7 8 11 9 8 10 10 11 9 12
REMARK H PARENT 3 5
REMARK Flexibility Score: inf
ROOT
ATOM      1  C   UNL     1       8.207  -0.895  -1.831  1.00  0.00     0.127 C 
ENDROOT
BRANCH   1   2
ATOM      2  C   UNL     1       8.275  -1.971  -2.849  1.00  0.00     0.303 C 
ATOM      3  O   UNL     1       7.235  -2.430  -3.381  1.00  0.00    -0.252 OA
BRANCH   2   4
ATOM      4  O   UNL     1       9.494  -2.500  -3.241  1.00  0.00    -0.481 OA
ATOM      5  H   UNL     1      10.166  -1.901  -3.730  1.00  0.00     0.296 HD
ENDBRANCH   2   4
ENDBRANCH   1   2
BRANCH   1   6
ATOM      6  C   UNL     1       7.331  -1.364  -0.710  1.00  0.00     0.047 C 
BRANCH   6   7
ATOM      7  C   UNL     1       6.514  -0.309  -0.113  1.00  0.00    -0.047 A 
ATOM      8  C   UNL     1       6.057  -0.419   1.180  1.00  0.00     0.004 A 
ATOM      9  C   UNL     1       6.205   0.805  -0.859  1.00  0.00     0.004 A 
ATOM     10  C   UNL     1       5.283   0.627   1.686  1.00  0.00     0.000 A 
ATOM     11  C   UNL     1       5.439   1.838  -0.358  1.00  0.00     0.000 A 
ATOM     12  C   UNL     1       4.977   1.735   0.936  1.00  0.00     0.000 A 
ENDBRANCH   6   7
ENDBRANCH   1   6
TORSDOF 4
ENDMDL
MODEL 5
REMARK VINA RESULT:      -6.8      3.367      5.072
REMARK SMILES O=C(O)CCc1ccccc1
REMARK SMILES IDX 4 1 2 2 1 3 3 4 5 6 6 7 7 8 11 9 8 10 10 11 9 12
REMARK H PARENT 3 5
REMARK Flexibility Score: inf
ROOT
ATOM      1  C   UNL     1       5.014   1.790   0.686  1.00  0.00     0.127 C 
ENDROOT
BRANCH   1   2
ATOM      2  C   UNL     1       4.508   1.119   1.906  1.00  0.00     0.303 C 
ATOM      3  O   UNL     1       5.179   0.229   2.485  1.00  0.00    -0.252 OA
BRANCH   2   4
ATOM      4  O   UNL     1       3.276   1.456   2.443  1.00  0.00    -0.481 OA
ATOM      5  H   UNL     1       3.183   2.326   2.975  1.00  0.00     0.296 HD
ENDBRANCH   2   4
ENDBRANCH   1   2
BRANCH   1   6
ATOM      6  C   UNL     1       6.511   1.802   0.741  1.00  0.00     0.047 C 
BRANCH   6   7
ATOM      7  C   UNL     1       7.152   1.053  -0.338  1.00  0.00    -0.047 A 
ATOM      8  C   UNL     1       8.483   1.242  -0.631  1.00  0.00     0.004 A 
ATOM      9  C   UNL     1       6.409   0.149  -1.061  1.00  0.00     0.004 A 
ATOM     10  C   UNL     1       9.029   0.491  -1.675  1.00  0.00     0.000 A 
ATOM     11  C   UNL     1       6.951  -0.592  -2.092  1.00  0.00     0.000 A 
ATOM     12  C   UNL     1       8.283  -0.408  -2.393  1.00  0.00     0.000 A 
ENDBRANCH   6   7
ENDBRANCH   1   6
TORSDOF 4
ENDMDL
