@<TRIPOS>MOLECULE
/home/cewinharhar/GITHUB/reincatalyze/data/processed/docking_pred/2023-Apr-26-1657_maxeplen10_maxtrainstep1000_exh32_gamma099_lrac9e-4_lrcr1e-3/98720eda2f8b5e3d73e45599e80051818594e19a_ligand_2.pdbqt
 12 12 0 0 0
SMALL
GASTEIGER

@<TRIPOS>ATOM
      1  C          8.4340   -0.7010   -2.0720 C.3     1  UNL1        0.1270
      2  C          8.4700   -1.9370   -2.8890 C.2     1  UNL1        0.3030
      3  O          9.5480   -2.5430   -3.1040 O.2     1  UNL1       -0.2520
      4  O          7.3100   -2.4590   -3.4380 O.3     1  UNL1       -0.4810
      5  H          6.8730   -3.2770   -3.0030 H       1  UNL1        0.2960
      6  C          7.0340   -0.1650   -2.0920 C.3     1  UNL1        0.0470
      7  C          6.4670    0.0630   -0.7640 C.2     1  UNL1       -0.0470
      8  C          5.8200    1.2410   -0.4680 C.2     1  UNL1        0.0040
      9  C          6.5840   -0.9170    0.1940 C.2     1  UNL1        0.0040
     10  C          5.3010    1.3900    0.8200 C.2     1  UNL1        0.0000
     11  C          6.0710   -0.7680    1.4670 C.2     1  UNL1        0.0000
     12  C          5.4220    0.4090    1.7710 C.2     1  UNL1        0.0000
@<TRIPOS>BOND
     1     4     5    1
     2     4     2    1
     3     3     2    2
     4     2     1    1
     5     6     1    1
     6     6     7    1
     7     7     8    2
     8     7     9    1
     9     8    10    1
    10     9    11    2
    11    10    12    2
    12    11    12    1
