@<TRIPOS>MOLECULE
/home/cewinharhar/GITHUB/reincatalyze/data/processed/docking_pred/2023-Apr-26-1657_maxeplen10_maxtrainstep1000_exh32_gamma099_lrac9e-4_lrcr1e-3/98720eda2f8b5e3d73e45599e80051818594e19a_ligand_2.pdbqt
 12 12 0 0 0
SMALL
GASTEIGER

@<TRIPOS>ATOM
      1  C          8.2070   -0.8950   -1.8310 C.3     1  UNL1        0.1270
      2  C          8.2750   -1.9710   -2.8490 C.2     1  UNL1        0.3030
      3  O          7.2350   -2.4300   -3.3810 O.2     1  UNL1       -0.2520
      4  O          9.4940   -2.5000   -3.2410 O.3     1  UNL1       -0.4810
      5  H         10.1660   -1.9010   -3.7300 H       1  UNL1        0.2960
      6  C          7.3310   -1.3640   -0.7100 C.3     1  UNL1        0.0470
      7  C          6.5140   -0.3090   -0.1130 C.2     1  UNL1       -0.0470
      8  C          6.0570   -0.4190    1.1800 C.2     1  UNL1        0.0040
      9  C          6.2050    0.8050   -0.8590 C.2     1  UNL1        0.0040
     10  C          5.2830    0.6270    1.6860 C.2     1  UNL1        0.0000
     11  C          5.4390    1.8380   -0.3580 C.2     1  UNL1        0.0000
     12  C          4.9770    1.7350    0.9360 C.2     1  UNL1        0.0000
@<TRIPOS>BOND
     1     5     4    1
     2     3     2    2
     3     4     2    1
     4     2     1    1
     5     1     6    1
     6     9    11    1
     7     9     7    2
     8     6     7    1
     9    11    12    2
    10     7     8    1
    11    12    10    1
    12     8    10    2
