@<TRIPOS>MOLECULE
/home/cewinharhar/GITHUB/reincatalyze/data/processed/docking_pred/2023-Apr-26-1657_maxeplen10_maxtrainstep1000_exh32_gamma099_lrac9e-4_lrcr1e-3/98720eda2f8b5e3d73e45599e80051818594e19a_ligand_2.pdbqt
 12 12 0 0 0
SMALL
GASTEIGER

@<TRIPOS>ATOM
      1  C          8.4970   -0.6220   -2.1410 C.3     1  UNL1        0.1270
      2  C          8.5080   -1.8960   -2.8990 C.2     1  UNL1        0.3030
      3  O          9.5760   -2.5280   -3.0930 O.2     1  UNL1       -0.2520
      4  O          7.3360   -2.4240   -3.4160 O.3     1  UNL1       -0.4810
      5  H          6.6370   -2.8120   -2.7770 H       1  UNL1        0.2960
      6  C          7.0960   -0.0910   -2.1340 C.3     1  UNL1        0.0470
      7  C          6.5230    0.0560   -0.7970 C.2     1  UNL1       -0.0470
      8  C          6.6320   -0.9550    0.1300 C.2     1  UNL1        0.0040
      9  C          5.8720    1.2220   -0.4700 C.2     1  UNL1        0.0040
     10  C          6.0610   -0.7460    1.3870 C.2     1  UNL1        0.0000
     11  C          5.3080    1.4280    0.7730 C.2     1  UNL1        0.0000
     12  C          5.4120    0.4200    1.7070 C.2     1  UNL1        0.0000
@<TRIPOS>BOND
     1     4     2    1
     2     4     5    1
     3     3     2    2
     4     2     1    1
     5     1     6    1
     6     6     7    1
     7     7     9    2
     8     7     8    1
     9     9    11    1
    10     8    10    2
    11    11    12    2
    12    10    12    1
