@<TRIPOS>MOLECULE
/home/cewinharhar/GITHUB/reincatalyze/data/processed/docking_pred/2023-Apr-26-1657_maxeplen10_maxtrainstep1000_exh32_gamma099_lrac9e-4_lrcr1e-3/98720eda2f8b5e3d73e45599e80051818594e19a_ligand_2.pdbqt
 12 12 0 0 0
SMALL
GASTEIGER

@<TRIPOS>ATOM
      1  C          8.1700   -0.8320   -1.9680 C.3     1  UNL1        0.1270
      2  C          8.3780   -1.9820   -2.8790 C.2     1  UNL1        0.3030
      3  O          9.5270   -2.4390   -3.0990 O.2     1  UNL1       -0.2520
      4  O          7.3060   -2.5860   -3.5160 O.3     1  UNL1       -0.4810
      5  H          7.4460   -3.4820   -3.9910 H       1  UNL1        0.2960
      6  C          7.3240   -1.2890   -0.8190 C.3     1  UNL1        0.0470
      7  C          6.5160   -0.2290   -0.2180 C.2     1  UNL1       -0.0470
      8  C          6.1320    0.8670   -0.9550 C.2     1  UNL1        0.0040
      9  C          6.1390   -0.3390    1.1010 C.2     1  UNL1        0.0040
     10  C          5.3610    1.8400   -0.3150 C.2     1  UNL1        0.0000
     11  C          5.3770    0.6240    1.7320 C.2     1  UNL1        0.0000
     12  C          4.9890    1.7260    1.0000 C.2     1  UNL1        0.0000
@<TRIPOS>BOND
     1     5     4    1
     2     4     2    1
     3     3     2    2
     4     2     1    1
     5     1     6    1
     6     8    10    1
     7     8     7    2
     8     6     7    1
     9    10    12    2
    10     7     9    1
    11    12    11    1
    12     9    11    2
