@<TRIPOS>MOLECULE
/home/cewinharhar/GITHUB/reincatalyze/data/processed/docking_pred/2023-Apr-26-1657_maxeplen10_maxtrainstep1000_exh32_gamma099_lrac9e-4_lrcr1e-3/988f01d9ae77b71bc9958a913f22cd4823a9f0c4_ligand_2.pdbqt
 12 12 0 0 0
SMALL
GASTEIGER

@<TRIPOS>ATOM
      1  C          5.0110    1.7210    0.6540 C.3     1  UNL1        0.1270
      2  C          4.5020    1.0940    1.8970 C.2     1  UNL1        0.3030
      3  O          5.1600    0.2090    2.4960 O.2     1  UNL1       -0.2520
      4  O          3.2790    1.4690    2.4310 O.3     1  UNL1       -0.4810
      5  H          2.9560    1.0310    3.2980 H       1  UNL1        0.2960
      6  C          6.5080    1.7500    0.7220 C.3     1  UNL1        0.0470
      7  C          7.1660    1.0100   -0.3530 C.2     1  UNL1       -0.0470
      8  C          8.4940    1.2220   -0.6440 C.2     1  UNL1        0.0040
      9  C          6.4410    0.0900   -1.0760 C.2     1  UNL1        0.0040
     10  C          9.0570    0.4780   -1.6830 C.2     1  UNL1        0.0000
     11  C          7.0000   -0.6440   -2.1040 C.2     1  UNL1        0.0000
     12  C          8.3290   -0.4370   -2.4010 C.2     1  UNL1        0.0000
@<TRIPOS>BOND
     1    12    11    2
     2    12    10    1
     3    11     9    1
     4    10     8    2
     5     9     7    2
     6     8     7    1
     7     7     6    1
     8     1     6    1
     9     1     2    1
    10     2     4    1
    11     2     3    2
    12     4     5    1
