@<TRIPOS>MOLECULE
/home/cewinharhar/GITHUB/reincatalyze/data/processed/docking_pred/2023-Apr-26-1657_maxeplen10_maxtrainstep1000_exh32_gamma099_lrac9e-4_lrcr1e-3/988f01d9ae77b71bc9958a913f22cd4823a9f0c4_ligand_2.pdbqt
 12 12 0 0 0
SMALL
GASTEIGER

@<TRIPOS>ATOM
      1  C          8.2000    0.2790   -2.0760 C.3     1  UNL1        0.1270
      2  C          9.3710    0.3650   -1.1710 C.2     1  UNL1        0.3030
      3  O          9.4820   -0.3940   -0.1760 O.2     1  UNL1       -0.2520
      4  O         10.3790    1.2880   -1.4000 O.3     1  UNL1       -0.4810
      5  H         10.2000    2.2800   -1.2200 H       1  UNL1        0.2960
      6  C          7.1570   -0.5700   -1.4160 C.3     1  UNL1        0.0470
      7  C          6.3660    0.1350   -0.4100 C.2     1  UNL1       -0.0470
      8  C          5.8100    1.3630   -0.6860 C.2     1  UNL1        0.0040
      9  C          6.1790   -0.4440    0.8240 C.2     1  UNL1        0.0040
     10  C          5.0650    1.9790    0.3230 C.2     1  UNL1        0.0000
     11  C          5.4430    0.1670    1.8200 C.2     1  UNL1        0.0000
     12  C          4.8830    1.3970    1.5520 C.2     1  UNL1        0.0000
@<TRIPOS>BOND
     1     1     6    1
     2     1     2    1
     3     6     7    1
     4     4     5    1
     5     4     2    1
     6     2     3    2
     7     8     7    2
     8     8    10    1
     9     7     9    1
    10    10    12    2
    11     9    11    2
    12    12    11    1
