MODEL 1
REMARK VINA RESULT:      -7.4      0.000      0.000
REMARK SMILES O=C(O)CCc1ccccc1
REMARK SMILES IDX 4 1 2 2 1 3 3 4 5 6 6 7 7 8 11 9 8 10 10 11 9 12
REMARK H PARENT 3 5
REMARK Flexibility Score: inf
ROOT
ATOM      1  C   UNL     1       8.456  -0.565  -2.174  1.00  0.00     0.127 C 
ENDROOT
BRANCH   1   2
ATOM      2  C   UNL     1       8.497  -1.850  -2.910  1.00  0.00     0.303 C 
ATOM      3  O   UNL     1       9.580  -2.455  -3.105  1.00  0.00    -0.252 OA
BRANCH   2   4
ATOM      4  O   UNL     1       7.336  -2.421  -3.407  1.00  0.00    -0.481 OA
ATOM      5  H   UNL     1       7.132  -2.351  -4.408  1.00  0.00     0.296 HD
ENDBRANCH   2   4
ENDBRANCH   1   2
BRANCH   1   6
ATOM      6  C   UNL     1       7.037  -0.085  -2.142  1.00  0.00     0.047 C 
BRANCH   6   7
ATOM      7  C   UNL     1       6.490   0.065  -0.795  1.00  0.00    -0.047 A 
ATOM      8  C   UNL     1       6.631  -0.937   0.136  1.00  0.00     0.004 A 
ATOM      9  C   UNL     1       5.829   1.225  -0.464  1.00  0.00     0.004 A 
ATOM     10  C   UNL     1       6.083  -0.726   1.404  1.00  0.00     0.000 A 
ATOM     11  C   UNL     1       5.289   1.433   0.790  1.00  0.00     0.000 A 
ATOM     12  C   UNL     1       5.425   0.433   1.729  1.00  0.00     0.000 A 
ENDBRANCH   6   7
ENDBRANCH   1   6
TORSDOF 4
ENDMDL
MODEL 2
REMARK VINA RESULT:      -7.3      0.120      1.732
REMARK SMILES O=C(O)CCc1ccccc1
REMARK SMILES IDX 4 1 2 2 1 3 3 4 5 6 6 7 7 8 11 9 8 10 10 11 9 12
REMARK H PARENT 3 5
REMARK Flexibility Score: inf
ROOT
ATOM      1  C   UNL     1       8.394  -0.643  -2.088  1.00  0.00     0.127 C 
ENDROOT
BRANCH   1   2
ATOM      2  C   UNL     1       8.365  -1.894  -2.881  1.00  0.00     0.303 C 
ATOM      3  O   UNL     1       7.279  -2.404  -3.253  1.00  0.00    -0.252 OA
BRANCH   2   4
ATOM      4  O   UNL     1       9.540  -2.538  -3.234  1.00  0.00    -0.481 OA
ATOM      5  H   UNL     1      10.058  -2.219  -4.057  1.00  0.00     0.296 HD
ENDBRANCH   2   4
ENDBRANCH   1   2
BRANCH   1   6
ATOM      6  C   UNL     1       7.013  -0.060  -2.078  1.00  0.00     0.047 C 
BRANCH   6   7
ATOM      7  C   UNL     1       6.450   0.110  -0.740  1.00  0.00    -0.047 A 
ATOM      8  C   UNL     1       5.792   1.269  -0.396  1.00  0.00     0.004 A 
ATOM      9  C   UNL     1       6.581  -0.906   0.178  1.00  0.00     0.004 A 
ATOM     10  C   UNL     1       5.278   1.362   0.900  1.00  0.00     0.000 A 
ATOM     11  C   UNL     1       6.073  -0.812   1.458  1.00  0.00     0.000 A 
ATOM     12  C   UNL     1       5.413   0.345   1.812  1.00  0.00     0.000 A 
ENDBRANCH   6   7
ENDBRANCH   1   6
TORSDOF 4
ENDMDL
MODEL 3
REMARK VINA RESULT:      -7.3      0.609      1.065
REMARK SMILES O=C(O)CCc1ccccc1
REMARK SMILES IDX 4 1 2 2 1 3 3 4 5 6 6 7 7 8 11 9 8 10 10 11 9 12
REMARK H PARENT 3 5
REMARK Flexibility Score: inf
ROOT
ATOM      1  C   UNL     1       8.185  -0.873  -1.933  1.00  0.00     0.127 C 
ENDROOT
BRANCH   1   2
ATOM      2  C   UNL     1       8.360  -2.008  -2.870  1.00  0.00     0.303 C 
ATOM      3  O   UNL     1       9.492  -2.507  -3.083  1.00  0.00    -0.252 OA
BRANCH   2   4
ATOM      4  O   UNL     1       7.274  -2.550  -3.539  1.00  0.00    -0.481 OA
ATOM      5  H   UNL     1       7.420  -3.002  -4.446  1.00  0.00     0.296 HD
ENDBRANCH   2   4
ENDBRANCH   1   2
BRANCH   1   6
ATOM      6  C   UNL     1       7.418  -1.361  -0.741  1.00  0.00     0.047 C 
BRANCH   6   7
ATOM      7  C   UNL     1       6.579  -0.340  -0.115  1.00  0.00    -0.047 A 
ATOM      8  C   UNL     1       6.141  -0.488   1.181  1.00  0.00     0.004 A 
ATOM      9  C   UNL     1       6.231   0.778  -0.837  1.00  0.00     0.004 A 
ATOM     10  C   UNL     1       5.344   0.528   1.715  1.00  0.00     0.000 A 
ATOM     11  C   UNL     1       5.443   1.780  -0.308  1.00  0.00     0.000 A 
ATOM     12  C   UNL     1       5.000   1.640   0.990  1.00  0.00     0.000 A 
ENDBRANCH   6   7
ENDBRANCH   1   6
TORSDOF 4
ENDMDL
MODEL 4
REMARK VINA RESULT:      -6.8      3.362      5.066
REMARK SMILES O=C(O)CCc1ccccc1
REMARK SMILES IDX 4 1 2 2 1 3 3 4 5 6 6 7 7 8 11 9 8 10 10 11 9 12
REMARK H PARENT 3 5
REMARK Flexibility Score: inf
ROOT
ATOM      1  C   UNL     1       5.011   1.721   0.654  1.00  0.00     0.127 C 
ENDROOT
BRANCH   1   2
ATOM      2  C   UNL     1       4.502   1.094   1.897  1.00  0.00     0.303 C 
ATOM      3  O   UNL     1       5.160   0.209   2.496  1.00  0.00    -0.252 OA
BRANCH   2   4
ATOM      4  O   UNL     1       3.279   1.469   2.431  1.00  0.00    -0.481 OA
ATOM      5  H   UNL     1       2.956   1.031   3.298  1.00  0.00     0.296 HD
ENDBRANCH   2   4
ENDBRANCH   1   2
BRANCH   1   6
ATOM      6  C   UNL     1       6.508   1.750   0.722  1.00  0.00     0.047 C 
BRANCH   6   7
ATOM      7  C   UNL     1       7.166   1.010  -0.353  1.00  0.00    -0.047 A 
ATOM      8  C   UNL     1       8.494   1.222  -0.644  1.00  0.00     0.004 A 
ATOM      9  C   UNL     1       6.441   0.090  -1.076  1.00  0.00     0.004 A 
ATOM     10  C   UNL     1       9.057   0.478  -1.683  1.00  0.00     0.000 A 
ATOM     11  C   UNL     1       7.000  -0.644  -2.104  1.00  0.00     0.000 A 
ATOM     12  C   UNL     1       8.329  -0.437  -2.401  1.00  0.00     0.000 A 
ENDBRANCH   6   7
ENDBRANCH   1   6
TORSDOF 4
ENDMDL
MODEL 5
REMARK VINA RESULT:      -6.6      1.933      2.611
REMARK SMILES O=C(O)CCc1ccccc1
REMARK SMILES IDX 4 1 2 2 1 3 3 4 5 6 6 7 7 8 11 9 8 10 10 11 9 12
REMARK H PARENT 3 5
REMARK Flexibility Score: inf
ROOT
ATOM      1  C   UNL     1       8.200   0.279  -2.076  1.00  0.00     0.127 C 
ENDROOT
BRANCH   1   2
ATOM      2  C   UNL     1       9.371   0.365  -1.171  1.00  0.00     0.303 C 
ATOM      3  O   UNL     1       9.482  -0.394  -0.176  1.00  0.00    -0.252 OA
BRANCH   2   4
ATOM      4  O   UNL     1      10.379   1.288  -1.400  1.00  0.00    -0.481 OA
ATOM      5  H   UNL     1      10.200   2.280  -1.220  1.00  0.00     0.296 HD
ENDBRANCH   2   4
ENDBRANCH   1   2
BRANCH   1   6
ATOM      6  C   UNL     1       7.157  -0.570  -1.416  1.00  0.00     0.047 C 
BRANCH   6   7
ATOM      7  C   UNL     1       6.366   0.135  -0.410  1.00  0.00    -0.047 A 
ATOM      8  C   UNL     1       5.810   1.363  -0.686  1.00  0.00     0.004 A 
ATOM      9  C   UNL     1       6.179  -0.444   0.824  1.00  0.00     0.004 A 
ATOM     10  C   UNL     1       5.065   1.979   0.323  1.00  0.00     0.000 A 
ATOM     11  C   UNL     1       5.443   0.167   1.820  1.00  0.00     0.000 A 
ATOM     12  C   UNL     1       4.883   1.397   1.552  1.00  0.00     0.000 A 
ENDBRANCH   6   7
ENDBRANCH   1   6
TORSDOF 4
ENDMDL
