@<TRIPOS>MOLECULE
/home/cewinharhar/GITHUB/reincatalyze/data/processed/docking_pred/2023-Apr-26-1657_maxeplen10_maxtrainstep1000_exh32_gamma099_lrac9e-4_lrcr1e-3/988f01d9ae77b71bc9958a913f22cd4823a9f0c4_ligand_2.pdbqt
 12 12 0 0 0
SMALL
GASTEIGER

@<TRIPOS>ATOM
      1  C          8.3940   -0.6430   -2.0880 C.3     1  UNL1        0.1270
      2  C          8.3650   -1.8940   -2.8810 C.2     1  UNL1        0.3030
      3  O          7.2790   -2.4040   -3.2530 O.2     1  UNL1       -0.2520
      4  O          9.5400   -2.5380   -3.2340 O.3     1  UNL1       -0.4810
      5  H         10.0580   -2.2190   -4.0570 H       1  UNL1        0.2960
      6  C          7.0130   -0.0600   -2.0780 C.3     1  UNL1        0.0470
      7  C          6.4500    0.1100   -0.7400 C.2     1  UNL1       -0.0470
      8  C          5.7920    1.2690   -0.3960 C.2     1  UNL1        0.0040
      9  C          6.5810   -0.9060    0.1780 C.2     1  UNL1        0.0040
     10  C          5.2780    1.3620    0.9000 C.2     1  UNL1        0.0000
     11  C          6.0730   -0.8120    1.4580 C.2     1  UNL1        0.0000
     12  C          5.4130    0.3450    1.8120 C.2     1  UNL1        0.0000
@<TRIPOS>BOND
     1     5     4    1
     2     3     2    2
     3     4     2    1
     4     2     1    1
     5     1     6    1
     6     6     7    1
     7     7     8    2
     8     7     9    1
     9     8    10    1
    10     9    11    2
    11    10    12    2
    12    11    12    1
