@<TRIPOS>MOLECULE
/home/cewinharhar/GITHUB/reincatalyze/data/processed/docking_pred/2023-Apr-26-1657_maxeplen10_maxtrainstep1000_exh32_gamma099_lrac9e-4_lrcr1e-3/988f01d9ae77b71bc9958a913f22cd4823a9f0c4_ligand_2.pdbqt
 12 12 0 0 0
SMALL
GASTEIGER

@<TRIPOS>ATOM
      1  C          8.1850   -0.8730   -1.9330 C.3     1  UNL1        0.1270
      2  C          8.3600   -2.0080   -2.8700 C.2     1  UNL1        0.3030
      3  O          9.4920   -2.5070   -3.0830 O.2     1  UNL1       -0.2520
      4  O          7.2740   -2.5500   -3.5390 O.3     1  UNL1       -0.4810
      5  H          7.4200   -3.0020   -4.4460 H       1  UNL1        0.2960
      6  C          7.4180   -1.3610   -0.7410 C.3     1  UNL1        0.0470
      7  C          6.5790   -0.3400   -0.1150 C.2     1  UNL1       -0.0470
      8  C          6.1410   -0.4880    1.1810 C.2     1  UNL1        0.0040
      9  C          6.2310    0.7780   -0.8370 C.2     1  UNL1        0.0040
     10  C          5.3440    0.5280    1.7150 C.2     1  UNL1        0.0000
     11  C          5.4430    1.7800   -0.3080 C.2     1  UNL1        0.0000
     12  C          5.0000    1.6400    0.9900 C.2     1  UNL1        0.0000
@<TRIPOS>BOND
     1     5     4    1
     2     4     2    1
     3     3     2    2
     4     2     1    1
     5     1     6    1
     6     9    11    1
     7     9     7    2
     8     6     7    1
     9    11    12    2
    10     7     8    1
    11    12    10    1
    12     8    10    2
