@<TRIPOS>MOLECULE
/home/cewinharhar/GITHUB/reincatalyze/data/processed/docking_pred/2023-Apr-26-1657_maxeplen10_maxtrainstep1000_exh32_gamma099_lrac9e-4_lrcr1e-3/988f01d9ae77b71bc9958a913f22cd4823a9f0c4_ligand_2.pdbqt
 12 12 0 0 0
SMALL
GASTEIGER

@<TRIPOS>ATOM
      1  C          8.4560   -0.5650   -2.1740 C.3     1  UNL1        0.1270
      2  C          8.4970   -1.8500   -2.9100 C.2     1  UNL1        0.3030
      3  O          9.5800   -2.4550   -3.1050 O.2     1  UNL1       -0.2520
      4  O          7.3360   -2.4210   -3.4070 O.3     1  UNL1       -0.4810
      5  H          7.1320   -2.3510   -4.4080 H       1  UNL1        0.2960
      6  C          7.0370   -0.0850   -2.1420 C.3     1  UNL1        0.0470
      7  C          6.4900    0.0650   -0.7950 C.2     1  UNL1       -0.0470
      8  C          6.6310   -0.9370    0.1360 C.2     1  UNL1        0.0040
      9  C          5.8290    1.2250   -0.4640 C.2     1  UNL1        0.0040
     10  C          6.0830   -0.7260    1.4040 C.2     1  UNL1        0.0000
     11  C          5.2890    1.4330    0.7900 C.2     1  UNL1        0.0000
     12  C          5.4250    0.4330    1.7290 C.2     1  UNL1        0.0000
@<TRIPOS>BOND
     1     5     4    1
     2     4     2    1
     3     3     2    2
     4     2     1    1
     5     1     6    1
     6     6     7    1
     7     7     9    2
     8     7     8    1
     9     9    11    1
    10     8    10    2
    11    11    12    2
    12    10    12    1
