@<TRIPOS>MOLECULE
/home/cewinharhar/GITHUB/reincatalyze/data/processed/docking_pred/2023-Apr-26-1657_maxeplen10_maxtrainstep1000_exh32_gamma099_lrac9e-4_lrcr1e-3/98ce2146f260201d1ebb2f82702d5d512d51d1e1_ligand_2.pdbqt
 12 12 0 0 0
SMALL
GASTEIGER

@<TRIPOS>ATOM
      1  C          5.4680    2.9020    0.0070 C.3     1  UNL1        0.1270
      2  C          6.2630    3.8540    0.8170 C.2     1  UNL1        0.3030
      3  O          6.9250    4.7740    0.2760 O.2     1  UNL1       -0.2520
      4  O          6.2990    3.7530    2.1980 O.3     1  UNL1       -0.4810
      5  H          6.3560    2.8280    2.6320 H       1  UNL1        0.2960
      6  C          4.9310    1.8410    0.9190 C.3     1  UNL1        0.0470
      7  C          5.7120    0.6050    0.9170 C.2     1  UNL1       -0.0470
      8  C          6.3660    0.1880   -0.2190 C.2     1  UNL1        0.0040
      9  C          5.7900   -0.1410    2.0700 C.2     1  UNL1        0.0040
     10  C          7.0940   -1.0020   -0.1470 C.2     1  UNL1        0.0000
     11  C          6.5090   -1.3180    2.1390 C.2     1  UNL1        0.0000
     12  C          7.1670   -1.7430    1.0050 C.2     1  UNL1        0.0000
@<TRIPOS>BOND
     1     8    10    1
     2     8     7    2
     3    10    12    2
     4     1     2    1
     5     1     6    1
     6     3     2    2
     7     2     4    1
     8     7     6    1
     9     7     9    1
    10    12    11    1
    11     9    11    2
    12     4     5    1
