@<TRIPOS>MOLECULE
/home/cewinharhar/GITHUB/reincatalyze/data/processed/docking_pred/2023-Apr-26-1657_maxeplen10_maxtrainstep1000_exh32_gamma099_lrac9e-4_lrcr1e-3/98ce2146f260201d1ebb2f82702d5d512d51d1e1_ligand_2.pdbqt
 12 12 0 0 0
SMALL
GASTEIGER

@<TRIPOS>ATOM
      1  C          8.3940   -0.6650   -2.0630 C.3     1  UNL1        0.1270
      2  C          8.3700   -1.9050   -2.8750 C.2     1  UNL1        0.3030
      3  O          7.2860   -2.4140   -3.2530 O.2     1  UNL1       -0.2520
      4  O          9.5480   -2.5380   -3.2380 O.3     1  UNL1       -0.4810
      5  H          9.7500   -3.4710   -2.8680 H       1  UNL1        0.2960
      6  C          7.0160   -0.0760   -2.0630 C.3     1  UNL1        0.0470
      7  C          6.4450    0.0990   -0.7280 C.2     1  UNL1       -0.0470
      8  C          5.7980    1.2650   -0.3880 C.2     1  UNL1        0.0040
      9  C          6.5590   -0.9190    0.1900 C.2     1  UNL1        0.0040
     10  C          5.2760    1.3630    0.9040 C.2     1  UNL1        0.0000
     11  C          6.0430   -0.8200    1.4670 C.2     1  UNL1        0.0000
     12  C          5.3930    0.3440    1.8160 C.2     1  UNL1        0.0000
@<TRIPOS>BOND
     1     3     2    2
     2     4     2    1
     3     4     5    1
     4     2     1    1
     5     1     6    1
     6     6     7    1
     7     7     8    2
     8     7     9    1
     9     8    10    1
    10     9    11    2
    11    10    12    2
    12    11    12    1
