@<TRIPOS>MOLECULE
/home/cewinharhar/GITHUB/reincatalyze/data/processed/docking_pred/2023-Apr-26-1657_maxeplen10_maxtrainstep1000_exh32_gamma099_lrac9e-4_lrcr1e-3/98ce2146f260201d1ebb2f82702d5d512d51d1e1_ligand_2.pdbqt
 12 12 0 0 0
SMALL
GASTEIGER

@<TRIPOS>ATOM
      1  C          4.9890    1.8110    0.6760 C.3     1  UNL1        0.1270
      2  C          4.4940    1.1270    1.8940 C.2     1  UNL1        0.3030
      3  O          5.1640    0.2230    2.4510 O.2     1  UNL1       -0.2520
      4  O          3.2720    1.4680    2.4520 O.3     1  UNL1       -0.4810
      5  H          2.8570    0.8560    3.1600 H       1  UNL1        0.2960
      6  C          6.4870    1.8150    0.7150 C.3     1  UNL1        0.0470
      7  C          7.1120    1.0440   -0.3590 C.2     1  UNL1       -0.0470
      8  C          6.3760    0.1530   -1.1050 C.2     1  UNL1        0.0040
      9  C          8.4510    1.2200   -0.6200 C.2     1  UNL1        0.0040
     10  C          7.0380   -0.5490   -2.1150 C.2     1  UNL1        0.0000
     11  C          9.1040    0.5250   -1.6190 C.2     1  UNL1        0.0000
     12  C          8.3740   -0.3700   -2.3700 C.2     1  UNL1        0.0000
@<TRIPOS>BOND
     1    12    10    2
     2    12    11    1
     3    10     8    1
     4    11     9    2
     5     8     7    2
     6     9     7    1
     7     7     6    1
     8     1     6    1
     9     1     2    1
    10     2     3    2
    11     2     4    1
    12     4     5    1
