@<TRIPOS>MOLECULE
/home/cewinharhar/GITHUB/reincatalyze/data/processed/docking_pred/2023-Apr-26-1657_maxeplen10_maxtrainstep1000_exh32_gamma099_lrac9e-4_lrcr1e-3/98ce2146f260201d1ebb2f82702d5d512d51d1e1_ligand_2.pdbqt
 12 12 0 0 0
SMALL
GASTEIGER

@<TRIPOS>ATOM
      1  C          8.4890   -0.5980   -2.1850 C.3     1  UNL1        0.1270
      2  C          8.5050   -1.8860   -2.9180 C.2     1  UNL1        0.3030
      3  O          9.5750   -2.5170   -3.1020 O.2     1  UNL1       -0.2520
      4  O          7.3350   -2.4310   -3.4220 O.3     1  UNL1       -0.4810
      5  H          7.1030   -3.4050   -3.2070 H       1  UNL1        0.2960
      6  C          7.0810   -0.0880   -2.1600 C.3     1  UNL1        0.0470
      7  C          6.5230    0.0520   -0.8160 C.2     1  UNL1       -0.0470
      8  C          6.6510   -0.9600    0.1070 C.2     1  UNL1        0.0040
      9  C          5.8650    1.2120   -0.4800 C.2     1  UNL1        0.0040
     10  C          6.0940   -0.7580    1.3720 C.2     1  UNL1        0.0000
     11  C          5.3150    1.4100    0.7710 C.2     1  UNL1        0.0000
     12  C          5.4390    0.4020    1.7020 C.2     1  UNL1        0.0000
@<TRIPOS>BOND
     1     4     5    1
     2     4     2    1
     3     3     2    2
     4     2     1    1
     5     1     6    1
     6     6     7    1
     7     7     9    2
     8     7     8    1
     9     9    11    1
    10     8    10    2
    11    11    12    2
    12    10    12    1
