@<TRIPOS>MOLECULE
/home/cewinharhar/GITHUB/reincatalyze/data/processed/docking_pred/2023-Apr-26-1657_maxeplen10_maxtrainstep1000_exh32_gamma099_lrac9e-4_lrcr1e-3/98ce2146f260201d1ebb2f82702d5d512d51d1e1_ligand_2.pdbqt
 12 12 0 0 0
SMALL
GASTEIGER

@<TRIPOS>ATOM
      1  C          8.1790   -1.5220    1.0780 C.3     1  UNL1        0.1270
      2  C          8.4560   -2.7440    0.2850 C.2     1  UNL1        0.3030
      3  O          9.0810   -3.7130    0.7810 O.2     1  UNL1       -0.2520
      4  O          8.0300   -2.8490   -1.0290 O.3     1  UNL1       -0.4810
      5  H          7.2630   -2.2550   -1.3560 H       1  UNL1        0.2960
      6  C          6.6970   -1.4050    1.2600 C.3     1  UNL1        0.0470
      7  C          6.1350   -0.1470    0.7700 C.2     1  UNL1       -0.0470
      8  C          5.3590    0.6420    1.5870 C.2     1  UNL1        0.0040
      9  C          6.3930    0.2450   -0.5230 C.2     1  UNL1        0.0040
     10  C          4.8560    1.8300    1.0530 C.2     1  UNL1        0.0000
     11  C          5.8950    1.4200   -1.0500 C.2     1  UNL1        0.0000
     12  C          5.1160    2.2160   -0.2380 C.2     1  UNL1        0.0000
@<TRIPOS>BOND
     1     5     4    1
     2    11     9    1
     3    11    12    2
     4     4     2    1
     5     9     7    2
     6    12    10    1
     7     2     3    2
     8     2     1    1
     9     7     6    1
    10     7     8    1
    11    10     8    2
    12     1     6    1
