@<TRIPOS>MOLECULE
/home/cewinharhar/GITHUB/reincatalyze/data/processed/docking_pred/2023-Apr-26-1657_maxeplen10_maxtrainstep1000_exh32_gamma099_lrac9e-4_lrcr1e-3/9a7d3f5f853688f06c0e35b58fb12e655ab1ce10_ligand_2.pdbqt
 12 12 0 0 0
SMALL
GASTEIGER

@<TRIPOS>ATOM
      1  C          5.5930    2.8580   -0.0950 C.3     1  UNL1        0.1270
      2  C          6.2970    3.8430    0.7590 C.2     1  UNL1        0.3030
      3  O          6.9730    4.7750    0.2560 O.2     1  UNL1       -0.2520
      4  O          6.2280    3.7630    2.1410 O.3     1  UNL1       -0.4810
      5  H          5.9700    4.5950    2.6790 H       1  UNL1        0.2960
      6  C          4.9650    1.8280    0.7940 C.3     1  UNL1        0.0470
      7  C          5.7210    0.5810    0.8870 C.2     1  UNL1       -0.0470
      8  C          6.3680    0.0670   -0.2130 C.2     1  UNL1        0.0040
      9  C          5.7820   -0.0790    2.0920 C.2     1  UNL1        0.0040
     10  C          7.0730   -1.1280   -0.0510 C.2     1  UNL1        0.0000
     11  C          6.4790   -1.2610    2.2500 C.2     1  UNL1        0.0000
     12  C          7.1300   -1.7820    1.1530 C.2     1  UNL1        0.0000
@<TRIPOS>BOND
     1     8    10    1
     2     8     7    2
     3     1     2    1
     4     1     6    1
     5    10    12    2
     6     3     2    2
     7     2     4    1
     8     6     7    1
     9     7     9    1
    10    12    11    1
    11     9    11    2
    12     4     5    1
