@<TRIPOS>MOLECULE
/home/cewinharhar/GITHUB/reincatalyze/data/processed/docking_pred/2023-Apr-26-1657_maxeplen10_maxtrainstep1000_exh32_gamma099_lrac9e-4_lrcr1e-3/9a7d3f5f853688f06c0e35b58fb12e655ab1ce10_ligand_2.pdbqt
 12 12 0 0 0
SMALL
GASTEIGER

@<TRIPOS>ATOM
      1  C          8.3990   -0.6370   -2.1000 C.3     1  UNL1        0.1270
      2  C          8.3650   -1.8910   -2.8880 C.2     1  UNL1        0.3030
      3  O          7.2770   -2.4020   -3.2510 O.2     1  UNL1       -0.2520
      4  O          9.5370   -2.5360   -3.2470 O.3     1  UNL1       -0.4810
      5  H          9.6980   -3.4960   -2.9310 H       1  UNL1        0.2960
      6  C          7.0170   -0.0590   -2.0750 C.3     1  UNL1        0.0470
      7  C          6.4620    0.0960   -0.7310 C.2     1  UNL1       -0.0470
      8  C          5.8090    1.2510   -0.3690 C.2     1  UNL1        0.0040
      9  C          6.5980   -0.9320    0.1740 C.2     1  UNL1        0.0040
     10  C          5.3030    1.3290    0.9310 C.2     1  UNL1        0.0000
     11  C          6.0980   -0.8520    1.4580 C.2     1  UNL1        0.0000
     12  C          5.4430    0.3020    1.8300 C.2     1  UNL1        0.0000
@<TRIPOS>BOND
     1     3     2    2
     2     4     5    1
     3     4     2    1
     4     2     1    1
     5     1     6    1
     6     6     7    1
     7     7     8    2
     8     7     9    1
     9     8    10    1
    10     9    11    2
    11    10    12    2
    12    11    12    1
