@<TRIPOS>MOLECULE
/home/cewinharhar/GITHUB/reincatalyze/data/processed/docking_pred/2023-Apr-26-1657_maxeplen10_maxtrainstep1000_exh32_gamma099_lrac9e-4_lrcr1e-3/9a7d3f5f853688f06c0e35b58fb12e655ab1ce10_ligand_2.pdbqt
 12 12 0 0 0
SMALL
GASTEIGER

@<TRIPOS>ATOM
      1  C          8.2220    0.2430   -2.2450 C.3     1  UNL1        0.1270
      2  C          9.3410    0.3530   -1.2790 C.2     1  UNL1        0.3030
      3  O          9.4260   -0.4190   -0.2910 O.2     1  UNL1       -0.2520
      4  O         10.3260    1.3140   -1.4390 O.3     1  UNL1       -0.4810
      5  H         10.0670    2.2450   -1.7770 H       1  UNL1        0.2960
      6  C          7.0970   -0.4900   -1.5810 C.3     1  UNL1        0.0470
      7  C          6.3230    0.3280   -0.6480 C.2     1  UNL1       -0.0470
      8  C          5.8120    1.5450   -1.0360 C.2     1  UNL1        0.0040
      9  C          6.1070   -0.1340    0.6300 C.2     1  UNL1        0.0040
     10  C          5.0820    2.2720   -0.0940 C.2     1  UNL1        0.0000
     11  C          5.3850    0.5860    1.5610 C.2     1  UNL1        0.0000
     12  C          4.8700    1.8070    1.1800 C.2     1  UNL1        0.0000
@<TRIPOS>BOND
     1     1     6    1
     2     1     2    1
     3     5     4    1
     4     6     7    1
     5     4     2    1
     6     2     3    2
     7     8     7    2
     8     8    10    1
     9     7     9    1
    10    10    12    2
    11     9    11    2
    12    12    11    1
