@<TRIPOS>MOLECULE
/home/cewinharhar/GITHUB/reincatalyze/data/processed/docking_pred/2023-Apr-26-1657_maxeplen10_maxtrainstep1000_exh32_gamma099_lrac9e-4_lrcr1e-3/9a7d3f5f853688f06c0e35b58fb12e655ab1ce10_ligand_2.pdbqt
 12 12 0 0 0
SMALL
GASTEIGER

@<TRIPOS>ATOM
      1  C          5.0190    1.8040    0.6980 C.3     1  UNL1        0.1270
      2  C          4.5030    1.1170    1.9060 C.2     1  UNL1        0.3030
      3  O          5.1640    0.2110    2.4710 O.2     1  UNL1       -0.2520
      4  O          3.2720    1.4560    2.4440 O.3     1  UNL1       -0.4810
      5  H          2.9570    0.9950    3.3020 H       1  UNL1        0.2960
      6  C          6.5160    1.7980    0.7570 C.3     1  UNL1        0.0470
      7  C          7.1510    1.0540   -0.3290 C.2     1  UNL1       -0.0470
      8  C          8.4750    1.2570   -0.6410 C.2     1  UNL1        0.0040
      9  C          6.4080    0.1410   -1.0410 C.2     1  UNL1        0.0040
     10  C          9.0160    0.5100   -1.6900 C.2     1  UNL1        0.0000
     11  C          6.9440   -0.5960   -2.0790 C.2     1  UNL1        0.0000
     12  C          8.2700   -0.3980   -2.3980 C.2     1  UNL1        0.0000
@<TRIPOS>BOND
     1    12    11    2
     2    12    10    1
     3    11     9    1
     4    10     8    2
     5     9     7    2
     6     8     7    1
     7     7     6    1
     8     1     6    1
     9     1     2    1
    10     2     4    1
    11     2     3    2
    12     4     5    1
