@<TRIPOS>MOLECULE
/home/cewinharhar/GITHUB/reincatalyze/data/processed/docking_pred/2023-Apr-26-1657_maxeplen10_maxtrainstep1000_exh32_gamma099_lrac9e-4_lrcr1e-3/9c92d7019ca479aa147a964f0da84773825070a7_ligand_2.pdbqt
 12 12 0 0 0
SMALL
GASTEIGER

@<TRIPOS>ATOM
      1  C          8.4470   -0.5860   -2.1960 C.3     1  UNL1        0.1270
      2  C          8.4920   -1.8780   -2.9200 C.2     1  UNL1        0.3030
      3  O          9.5770   -2.4830   -3.1060 O.2     1  UNL1       -0.2520
      4  O          7.3330   -2.4560   -3.4130 O.3     1  UNL1       -0.4810
      5  H          6.6620   -2.8690   -2.7590 H       1  UNL1        0.2960
      6  C          7.0250   -0.1180   -2.1560 C.3     1  UNL1        0.0470
      7  C          6.4930    0.0520   -0.8050 C.2     1  UNL1       -0.0470
      8  C          5.8620    1.2190   -0.4390 C.2     1  UNL1        0.0040
      9  C          6.6270   -0.9720    0.1030 C.2     1  UNL1        0.0040
     10  C          5.3770    1.3110    0.8670 C.2     1  UNL1        0.0000
     11  C          6.1470   -0.8790    1.3940 C.2     1  UNL1        0.0000
     12  C          5.5150    0.2860    1.7690 C.2     1  UNL1        0.0000
@<TRIPOS>BOND
     1     4     2    1
     2     4     5    1
     3     3     2    2
     4     2     1    1
     5     1     6    1
     6     6     7    1
     7     7     8    2
     8     7     9    1
     9     8    10    1
    10     9    11    2
    11    10    12    2
    12    11    12    1
