@<TRIPOS>MOLECULE
/home/cewinharhar/GITHUB/reincatalyze/data/processed/docking_pred/2023-Apr-26-1657_maxeplen10_maxtrainstep1000_exh32_gamma099_lrac9e-4_lrcr1e-3/9c92d7019ca479aa147a964f0da84773825070a7_ligand_2.pdbqt
 12 12 0 0 0
SMALL
GASTEIGER

@<TRIPOS>ATOM
      1  C          8.2060   -1.5800    1.1150 C.3     1  UNL1        0.1270
      2  C          8.4950   -2.8070    0.3360 C.2     1  UNL1        0.3030
      3  O          9.1340   -3.7640    0.8410 O.2     1  UNL1       -0.2520
      4  O          8.0680   -2.9320   -0.9760 O.3     1  UNL1       -0.4810
      5  H          7.7350   -3.8400   -1.3100 H       1  UNL1        0.2960
      6  C          6.7210   -1.4650    1.2780 C.3     1  UNL1        0.0470
      7  C          6.1660   -0.2050    0.7880 C.2     1  UNL1       -0.0470
      8  C          5.4090    0.5980    1.6100 C.2     1  UNL1        0.0040
      9  C          6.4090    0.1760   -0.5120 C.2     1  UNL1        0.0040
     10  C          4.9110    1.7880    1.0760 C.2     1  UNL1        0.0000
     11  C          5.9150    1.3530   -1.0390 C.2     1  UNL1        0.0000
     12  C          5.1560    2.1620   -0.2220 C.2     1  UNL1        0.0000
@<TRIPOS>BOND
     1     5     4    1
     2    11     9    1
     3    11    12    2
     4     4     2    1
     5     9     7    2
     6    12    10    1
     7     2     3    2
     8     2     1    1
     9     7     6    1
    10     7     8    1
    11    10     8    2
    12     1     6    1
