@<TRIPOS>MOLECULE
/home/cewinharhar/GITHUB/reincatalyze/data/processed/docking_pred/2023-Apr-26-1657_maxeplen10_maxtrainstep1000_exh32_gamma099_lrac9e-4_lrcr1e-3/9c92d7019ca479aa147a964f0da84773825070a7_ligand_2.pdbqt
 12 12 0 0 0
SMALL
GASTEIGER

@<TRIPOS>ATOM
      1  C          8.4040   -0.6080   -2.1580 C.3     1  UNL1        0.1270
      2  C          8.3750   -1.8850   -2.9100 C.2     1  UNL1        0.3030
      3  O          7.2880   -2.4150   -3.2500 O.2     1  UNL1       -0.2520
      4  O          9.5500   -2.5310   -3.2580 O.3     1  UNL1       -0.4810
      5  H         10.4140   -2.3010   -2.7600 H       1  UNL1        0.2960
      6  C          7.0120   -0.0560   -2.1130 C.3     1  UNL1        0.0470
      7  C          6.4690    0.0800   -0.7630 C.2     1  UNL1       -0.0470
      8  C          6.5970   -0.9390    0.1520 C.2     1  UNL1        0.0040
      9  C          5.8260    1.2450   -0.4120 C.2     1  UNL1        0.0040
     10  C          6.0550   -0.7400    1.4240 C.2     1  UNL1        0.0000
     11  C          5.2910    1.4400    0.8460 C.2     1  UNL1        0.0000
     12  C          5.4140    0.4230    1.7690 C.2     1  UNL1        0.0000
@<TRIPOS>BOND
     1     4     2    1
     2     4     5    1
     3     3     2    2
     4     2     1    1
     5     1     6    1
     6     6     7    1
     7     7     9    2
     8     7     8    1
     9     9    11    1
    10     8    10    2
    11    11    12    2
    12    10    12    1
