@<TRIPOS>MOLECULE
/home/cewinharhar/GITHUB/reincatalyze/data/processed/docking_pred/2023-Apr-26-1657_maxeplen10_maxtrainstep1000_exh32_gamma099_lrac9e-4_lrcr1e-3/9c92d7019ca479aa147a964f0da84773825070a7_ligand_2.pdbqt
 12 12 0 0 0
SMALL
GASTEIGER

@<TRIPOS>ATOM
      1  C          5.0170    1.7820    0.6670 C.3     1  UNL1        0.1270
      2  C          4.5140    1.1180    1.8920 C.2     1  UNL1        0.3030
      3  O          5.1860    0.2310    2.4740 O.2     1  UNL1       -0.2520
      4  O          3.2840    1.4600    2.4320 O.3     1  UNL1       -0.4810
      5  H          2.7780    2.2640    2.0530 H       1  UNL1        0.2960
      6  C          6.5140    1.8030    0.7220 C.3     1  UNL1        0.0470
      7  C          7.1590    1.0480   -0.3500 C.2     1  UNL1       -0.0470
      8  C          8.4940    1.2260   -0.6300 C.2     1  UNL1        0.0040
      9  C          6.4160    0.1490   -1.0790 C.2     1  UNL1        0.0040
     10  C          9.0450    0.4700   -1.6680 C.2     1  UNL1        0.0000
     11  C          6.9620   -0.5980   -2.1040 C.2     1  UNL1        0.0000
     12  C          8.2990   -0.4240   -2.3930 C.2     1  UNL1        0.0000
@<TRIPOS>BOND
     1    12    11    2
     2    12    10    1
     3    11     9    1
     4    10     8    2
     5     9     7    2
     6     8     7    1
     7     7     6    1
     8     1     6    1
     9     1     2    1
    10     2     4    1
    11     2     3    2
    12     5     4    1
