@<TRIPOS>MOLECULE
/home/cewinharhar/GITHUB/reincatalyze/data/processed/docking_pred/2023-Apr-26-1657_maxeplen10_maxtrainstep1000_exh32_gamma099_lrac9e-4_lrcr1e-3/9c92d7019ca479aa147a964f0da84773825070a7_ligand_2.pdbqt
 12 12 0 0 0
SMALL
GASTEIGER

@<TRIPOS>ATOM
      1  C          8.3210    0.3410   -2.0330 C.3     1  UNL1        0.1270
      2  C          9.4620    0.4200   -1.0910 C.2     1  UNL1        0.3030
      3  O          9.5320   -0.3370   -0.0910 O.2     1  UNL1       -0.2520
      4  O         10.4840    1.3330   -1.2880 O.3     1  UNL1       -0.4810
      5  H         10.6070    2.1000   -0.6200 H       1  UNL1        0.2960
      6  C          7.2560   -0.5120   -1.4140 C.3     1  UNL1        0.0470
      7  C          6.4250    0.1890   -0.4380 C.2     1  UNL1       -0.0470
      8  C          6.2110   -0.3410    0.8130 C.2     1  UNL1        0.0040
      9  C          5.8570    1.3940   -0.7820 C.2     1  UNL1        0.0040
     10  C          5.4070    0.3840    1.6960 C.2     1  UNL1        0.0000
     11  C          5.0620    2.1090    0.0920 C.2     1  UNL1        0.0000
     12  C          4.8420    1.5850    1.3470 C.2     1  UNL1        0.0000
@<TRIPOS>BOND
     1     1     6    1
     2     1     2    1
     3     6     7    1
     4     4     2    1
     5     4     5    1
     6     2     3    2
     7     9     7    2
     8     9    11    1
     9     7     8    1
    10    11    12    2
    11     8    10    2
    12    12    10    1
