MODEL 1
REMARK VINA RESULT:      -7.3      0.000      0.000
REMARK SMILES O=C(O)CCc1ccccc1
REMARK SMILES IDX 4 1 2 2 1 3 3 4 5 6 6 7 7 8 11 9 8 10 10 11 9 12
REMARK H PARENT 3 5
REMARK Flexibility Score: inf
ROOT
ATOM      1  C   UNL     1       8.447  -0.586  -2.196  1.00  0.00     0.127 C 
ENDROOT
BRANCH   1   2
ATOM      2  C   UNL     1       8.492  -1.878  -2.920  1.00  0.00     0.303 C 
ATOM      3  O   UNL     1       9.577  -2.483  -3.106  1.00  0.00    -0.252 OA
BRANCH   2   4
ATOM      4  O   UNL     1       7.333  -2.456  -3.413  1.00  0.00    -0.481 OA
ATOM      5  H   UNL     1       6.662  -2.869  -2.759  1.00  0.00     0.296 HD
ENDBRANCH   2   4
ENDBRANCH   1   2
BRANCH   1   6
ATOM      6  C   UNL     1       7.025  -0.118  -2.156  1.00  0.00     0.047 C 
BRANCH   6   7
ATOM      7  C   UNL     1       6.493   0.052  -0.805  1.00  0.00    -0.047 A 
ATOM      8  C   UNL     1       5.862   1.219  -0.439  1.00  0.00     0.004 A 
ATOM      9  C   UNL     1       6.627  -0.972   0.103  1.00  0.00     0.004 A 
ATOM     10  C   UNL     1       5.377   1.311   0.867  1.00  0.00     0.000 A 
ATOM     11  C   UNL     1       6.147  -0.879   1.394  1.00  0.00     0.000 A 
ATOM     12  C   UNL     1       5.515   0.286   1.769  1.00  0.00     0.000 A 
ENDBRANCH   6   7
ENDBRANCH   1   6
TORSDOF 4
ENDMDL
MODEL 2
REMARK VINA RESULT:      -7.3      0.125      1.732
REMARK SMILES O=C(O)CCc1ccccc1
REMARK SMILES IDX 4 1 2 2 1 3 3 4 5 6 6 7 7 8 11 9 8 10 10 11 9 12
REMARK H PARENT 3 5
REMARK Flexibility Score: inf
ROOT
ATOM      1  C   UNL     1       8.404  -0.608  -2.158  1.00  0.00     0.127 C 
ENDROOT
BRANCH   1   2
ATOM      2  C   UNL     1       8.375  -1.885  -2.910  1.00  0.00     0.303 C 
ATOM      3  O   UNL     1       7.288  -2.415  -3.250  1.00  0.00    -0.252 OA
BRANCH   2   4
ATOM      4  O   UNL     1       9.550  -2.531  -3.258  1.00  0.00    -0.481 OA
ATOM      5  H   UNL     1      10.414  -2.301  -2.760  1.00  0.00     0.296 HD
ENDBRANCH   2   4
ENDBRANCH   1   2
BRANCH   1   6
ATOM      6  C   UNL     1       7.012  -0.056  -2.113  1.00  0.00     0.047 C 
BRANCH   6   7
ATOM      7  C   UNL     1       6.469   0.080  -0.763  1.00  0.00    -0.047 A 
ATOM      8  C   UNL     1       6.597  -0.939   0.152  1.00  0.00     0.004 A 
ATOM      9  C   UNL     1       5.826   1.245  -0.412  1.00  0.00     0.004 A 
ATOM     10  C   UNL     1       6.055  -0.740   1.424  1.00  0.00     0.000 A 
ATOM     11  C   UNL     1       5.291   1.440   0.846  1.00  0.00     0.000 A 
ATOM     12  C   UNL     1       5.414   0.423   1.769  1.00  0.00     0.000 A 
ENDBRANCH   6   7
ENDBRANCH   1   6
TORSDOF 4
ENDMDL
MODEL 3
REMARK VINA RESULT:      -6.8      3.374      5.044
REMARK SMILES O=C(O)CCc1ccccc1
REMARK SMILES IDX 4 1 2 2 1 3 3 4 5 6 6 7 7 8 11 9 8 10 10 11 9 12
REMARK H PARENT 3 5
REMARK Flexibility Score: inf
ROOT
ATOM      1  C   UNL     1       5.017   1.782   0.667  1.00  0.00     0.127 C 
ENDROOT
BRANCH   1   2
ATOM      2  C   UNL     1       4.514   1.118   1.892  1.00  0.00     0.303 C 
ATOM      3  O   UNL     1       5.186   0.231   2.474  1.00  0.00    -0.252 OA
BRANCH   2   4
ATOM      4  O   UNL     1       3.284   1.460   2.432  1.00  0.00    -0.481 OA
ATOM      5  H   UNL     1       2.778   2.264   2.053  1.00  0.00     0.296 HD
ENDBRANCH   2   4
ENDBRANCH   1   2
BRANCH   1   6
ATOM      6  C   UNL     1       6.514   1.803   0.722  1.00  0.00     0.047 C 
BRANCH   6   7
ATOM      7  C   UNL     1       7.159   1.048  -0.350  1.00  0.00    -0.047 A 
ATOM      8  C   UNL     1       8.494   1.226  -0.630  1.00  0.00     0.004 A 
ATOM      9  C   UNL     1       6.416   0.149  -1.079  1.00  0.00     0.004 A 
ATOM     10  C   UNL     1       9.045   0.470  -1.668  1.00  0.00     0.000 A 
ATOM     11  C   UNL     1       6.962  -0.598  -2.104  1.00  0.00     0.000 A 
ATOM     12  C   UNL     1       8.299  -0.424  -2.393  1.00  0.00     0.000 A 
ENDBRANCH   6   7
ENDBRANCH   1   6
TORSDOF 4
ENDMDL
MODEL 4
REMARK VINA RESULT:      -6.6      2.001      2.708
REMARK SMILES O=C(O)CCc1ccccc1
REMARK SMILES IDX 4 1 2 2 1 3 3 4 5 6 6 7 7 8 11 9 8 10 10 11 9 12
REMARK H PARENT 3 5
REMARK Flexibility Score: inf
ROOT
ATOM      1  C   UNL     1       8.321   0.341  -2.033  1.00  0.00     0.127 C 
ENDROOT
BRANCH   1   2
ATOM      2  C   UNL     1       9.462   0.420  -1.091  1.00  0.00     0.303 C 
ATOM      3  O   UNL     1       9.532  -0.337  -0.091  1.00  0.00    -0.252 OA
BRANCH   2   4
ATOM      4  O   UNL     1      10.484   1.333  -1.288  1.00  0.00    -0.481 OA
ATOM      5  H   UNL     1      10.607   2.100  -0.620  1.00  0.00     0.296 HD
ENDBRANCH   2   4
ENDBRANCH   1   2
BRANCH   1   6
ATOM      6  C   UNL     1       7.256  -0.512  -1.414  1.00  0.00     0.047 C 
BRANCH   6   7
ATOM      7  C   UNL     1       6.425   0.189  -0.438  1.00  0.00    -0.047 A 
ATOM      8  C   UNL     1       6.211  -0.341   0.813  1.00  0.00     0.004 A 
ATOM      9  C   UNL     1       5.857   1.394  -0.782  1.00  0.00     0.004 A 
ATOM     10  C   UNL     1       5.407   0.384   1.696  1.00  0.00     0.000 A 
ATOM     11  C   UNL     1       5.062   2.109   0.092  1.00  0.00     0.000 A 
ATOM     12  C   UNL     1       4.842   1.585   1.347  1.00  0.00     0.000 A 
ENDBRANCH   6   7
ENDBRANCH   1   6
TORSDOF 4
ENDMDL
MODEL 5
REMARK VINA RESULT:      -6.6      1.883      2.854
REMARK SMILES O=C(O)CCc1ccccc1
REMARK SMILES IDX 4 1 2 2 1 3 3 4 5 6 6 7 7 8 11 9 8 10 10 11 9 12
REMARK H PARENT 3 5
REMARK Flexibility Score: inf
ROOT
ATOM      1  C   UNL     1       8.206  -1.580   1.115  1.00  0.00     0.127 C 
ENDROOT
BRANCH   1   2
ATOM      2  C   UNL     1       8.495  -2.807   0.336  1.00  0.00     0.303 C 
ATOM      3  O   UNL     1       9.134  -3.764   0.841  1.00  0.00    -0.252 OA
BRANCH   2   4
ATOM      4  O   UNL     1       8.068  -2.932  -0.976  1.00  0.00    -0.481 OA
ATOM      5  H   UNL     1       7.735  -3.840  -1.310  1.00  0.00     0.296 HD
ENDBRANCH   2   4
ENDBRANCH   1   2
BRANCH   1   6
ATOM      6  C   UNL     1       6.721  -1.465   1.278  1.00  0.00     0.047 C 
BRANCH   6   7
ATOM      7  C   UNL     1       6.166  -0.205   0.788  1.00  0.00    -0.047 A 
ATOM      8  C   UNL     1       5.409   0.598   1.610  1.00  0.00     0.004 A 
ATOM      9  C   UNL     1       6.409   0.176  -0.512  1.00  0.00     0.004 A 
ATOM     10  C   UNL     1       4.911   1.788   1.076  1.00  0.00     0.000 A 
ATOM     11  C   UNL     1       5.915   1.353  -1.039  1.00  0.00     0.000 A 
ATOM     12  C   UNL     1       5.156   2.162  -0.222  1.00  0.00     0.000 A 
ENDBRANCH   6   7
ENDBRANCH   1   6
TORSDOF 4
ENDMDL
