@<TRIPOS>MOLECULE
/home/cewinharhar/GITHUB/reincatalyze/data/processed/docking_pred/2023-Apr-26-1657_maxeplen10_maxtrainstep1000_exh32_gamma099_lrac9e-4_lrcr1e-3/9cf679a9c5542d052f5b9fd38195e755841f8057_ligand_2.pdbqt
 12 12 0 0 0
SMALL
GASTEIGER

@<TRIPOS>ATOM
      1  C          8.2020    0.2120   -2.1330 C.3     1  UNL1        0.1270
      2  C          9.3460    0.3440   -1.2000 C.2     1  UNL1        0.3030
      3  O          9.4600   -0.4080   -0.2000 O.2     1  UNL1       -0.2520
      4  O         10.3230    1.3050   -1.4050 O.3     1  UNL1       -0.4810
      5  H         10.0900    2.1500   -1.9340 H       1  UNL1        0.2960
      6  C          7.1210   -0.5650   -1.4450 C.3     1  UNL1        0.0470
      7  C          6.3330    0.2220   -0.4980 C.2     1  UNL1       -0.0470
      8  C          6.1240   -0.2250    0.7860 C.2     1  UNL1        0.0040
      9  C          5.8000    1.4240   -0.9040 C.2     1  UNL1        0.0040
     10  C          5.3630    0.5800    1.6370 C.2     1  UNL1        0.0000
     11  C          5.0480    2.2180   -0.0620 C.2     1  UNL1        0.0000
     12  C          4.8330    1.7770    1.2260 C.2     1  UNL1        0.0000
@<TRIPOS>BOND
     1     1     6    1
     2     1     2    1
     3     5     4    1
     4     6     7    1
     5     4     2    1
     6     2     3    2
     7     9     7    2
     8     9    11    1
     9     7     8    1
    10    11    12    2
    11     8    10    2
    12    12    10    1
