MODEL 1
REMARK VINA RESULT:      -7.3      0.000      0.000
REMARK SMILES O=C(O)CCc1ccccc1
REMARK SMILES IDX 4 1 2 2 1 3 3 4 5 6 6 7 7 8 11 9 8 10 10 11 9 12
REMARK H PARENT 3 5
REMARK Flexibility Score: inf
ROOT
ATOM      1  C   UNL     1       8.497  -0.673  -2.068  1.00  0.00     0.127 C 
ENDROOT
BRANCH   1   2
ATOM      2  C   UNL     1       8.515  -1.913  -2.879  1.00  0.00     0.303 C 
ATOM      3  O   UNL     1       9.589  -2.520  -3.115  1.00  0.00    -0.252 OA
BRANCH   2   4
ATOM      4  O   UNL     1       7.344  -2.438  -3.400  1.00  0.00    -0.481 OA
ATOM      5  H   UNL     1       7.389  -3.044  -4.224  1.00  0.00     0.296 HD
ENDBRANCH   2   4
ENDBRANCH   1   2
BRANCH   1   6
ATOM      6  C   UNL     1       7.114  -0.099  -2.117  1.00  0.00     0.047 C 
BRANCH   6   7
ATOM      7  C   UNL     1       6.509   0.107  -0.802  1.00  0.00    -0.047 A 
ATOM      8  C   UNL     1       5.831   1.269  -0.514  1.00  0.00     0.004 A 
ATOM      9  C   UNL     1       6.622  -0.879   0.151  1.00  0.00     0.004 A 
ATOM     10  C   UNL     1       5.278   1.397   0.762  1.00  0.00     0.000 A 
ATOM     11  C   UNL     1       6.075  -0.750   1.412  1.00  0.00     0.000 A 
ATOM     12  C   UNL     1       5.395   0.411   1.709  1.00  0.00     0.000 A 
ENDBRANCH   6   7
ENDBRANCH   1   6
TORSDOF 4
ENDMDL
MODEL 2
REMARK VINA RESULT:      -7.2      0.104      1.732
REMARK SMILES O=C(O)CCc1ccccc1
REMARK SMILES IDX 4 1 2 2 1 3 3 4 5 6 6 7 7 8 11 9 8 10 10 11 9 12
REMARK H PARENT 3 5
REMARK Flexibility Score: inf
ROOT
ATOM      1  C   UNL     1       8.420  -0.654  -2.086  1.00  0.00     0.127 C 
ENDROOT
BRANCH   1   2
ATOM      2  C   UNL     1       8.382  -1.902  -2.885  1.00  0.00     0.303 C 
ATOM      3  O   UNL     1       7.292  -2.405  -3.255  1.00  0.00    -0.252 OA
BRANCH   2   4
ATOM      4  O   UNL     1       9.552  -2.549  -3.246  1.00  0.00    -0.481 OA
ATOM      5  H   UNL     1       9.971  -2.355  -4.160  1.00  0.00     0.296 HD
ENDBRANCH   2   4
ENDBRANCH   1   2
BRANCH   1   6
ATOM      6  C   UNL     1       7.045  -0.058  -2.078  1.00  0.00     0.047 C 
BRANCH   6   7
ATOM      7  C   UNL     1       6.471   0.094  -0.742  1.00  0.00    -0.047 A 
ATOM      8  C   UNL     1       6.593  -0.907   0.194  1.00  0.00     0.004 A 
ATOM      9  C   UNL     1       5.806   1.256  -0.425  1.00  0.00     0.004 A 
ATOM     10  C   UNL     1       6.021  -0.693   1.450  1.00  0.00     0.000 A 
ATOM     11  C   UNL     1       5.241   1.465   0.817  1.00  0.00     0.000 A 
ATOM     12  C   UNL     1       5.358   0.468   1.760  1.00  0.00     0.000 A 
ENDBRANCH   6   7
ENDBRANCH   1   6
TORSDOF 4
ENDMDL
MODEL 3
REMARK VINA RESULT:      -6.7      3.330      5.022
REMARK SMILES O=C(O)CCc1ccccc1
REMARK SMILES IDX 4 1 2 2 1 3 3 4 5 6 6 7 7 8 11 9 8 10 10 11 9 12
REMARK H PARENT 3 5
REMARK Flexibility Score: inf
ROOT
ATOM      1  C   UNL     1       5.040   1.740   0.669  1.00  0.00     0.127 C 
ENDROOT
BRANCH   1   2
ATOM      2  C   UNL     1       4.599   1.053   1.906  1.00  0.00     0.303 C 
ATOM      3  O   UNL     1       5.329   0.203   2.474  1.00  0.00    -0.252 OA
BRANCH   2   4
ATOM      4  O   UNL     1       3.365   1.331   2.471  1.00  0.00    -0.481 OA
ATOM      5  H   UNL     1       2.561   1.499   1.860  1.00  0.00     0.296 HD
ENDBRANCH   2   4
ENDBRANCH   1   2
BRANCH   1   6
ATOM      6  C   UNL     1       6.537   1.811   0.678  1.00  0.00     0.047 C 
BRANCH   6   7
ATOM      7  C   UNL     1       7.176   1.035  -0.383  1.00  0.00    -0.047 A 
ATOM      8  C   UNL     1       8.514   1.192  -0.662  1.00  0.00     0.004 A 
ATOM      9  C   UNL     1       6.423   0.138  -1.105  1.00  0.00     0.004 A 
ATOM     10  C   UNL     1       9.057   0.417  -1.689  1.00  0.00     0.000 A 
ATOM     11  C   UNL     1       6.962  -0.627  -2.120  1.00  0.00     0.000 A 
ATOM     12  C   UNL     1       8.301  -0.475  -2.406  1.00  0.00     0.000 A 
ENDBRANCH   6   7
ENDBRANCH   1   6
TORSDOF 4
ENDMDL
MODEL 4
REMARK VINA RESULT:      -6.6      1.935      2.648
REMARK SMILES O=C(O)CCc1ccccc1
REMARK SMILES IDX 4 1 2 2 1 3 3 4 5 6 6 7 7 8 11 9 8 10 10 11 9 12
REMARK H PARENT 3 5
REMARK Flexibility Score: inf
ROOT
ATOM      1  C   UNL     1       8.202   0.212  -2.133  1.00  0.00     0.127 C 
ENDROOT
BRANCH   1   2
ATOM      2  C   UNL     1       9.346   0.344  -1.200  1.00  0.00     0.303 C 
ATOM      3  O   UNL     1       9.460  -0.408  -0.200  1.00  0.00    -0.252 OA
BRANCH   2   4
ATOM      4  O   UNL     1      10.323   1.305  -1.405  1.00  0.00    -0.481 OA
ATOM      5  H   UNL     1      10.090   2.150  -1.934  1.00  0.00     0.296 HD
ENDBRANCH   2   4
ENDBRANCH   1   2
BRANCH   1   6
ATOM      6  C   UNL     1       7.121  -0.565  -1.445  1.00  0.00     0.047 C 
BRANCH   6   7
ATOM      7  C   UNL     1       6.333   0.222  -0.498  1.00  0.00    -0.047 A 
ATOM      8  C   UNL     1       6.124  -0.225   0.786  1.00  0.00     0.004 A 
ATOM      9  C   UNL     1       5.800   1.424  -0.904  1.00  0.00     0.004 A 
ATOM     10  C   UNL     1       5.363   0.580   1.637  1.00  0.00     0.000 A 
ATOM     11  C   UNL     1       5.048   2.218  -0.062  1.00  0.00     0.000 A 
ATOM     12  C   UNL     1       4.833   1.777   1.226  1.00  0.00     0.000 A 
ENDBRANCH   6   7
ENDBRANCH   1   6
TORSDOF 4
ENDMDL
MODEL 5
REMARK VINA RESULT:      -6.5      1.880      2.800
REMARK SMILES O=C(O)CCc1ccccc1
REMARK SMILES IDX 4 1 2 2 1 3 3 4 5 6 6 7 7 8 11 9 8 10 10 11 9 12
REMARK H PARENT 3 5
REMARK Flexibility Score: inf
ROOT
ATOM      1  C   UNL     1       8.264  -1.530   1.047  1.00  0.00     0.127 C 
ENDROOT
BRANCH   1   2
ATOM      2  C   UNL     1       8.510  -2.781   0.290  1.00  0.00     0.303 C 
ATOM      3  O   UNL     1       9.114  -3.749   0.813  1.00  0.00    -0.252 OA
BRANCH   2   4
ATOM      4  O   UNL     1       8.078  -2.915  -1.019  1.00  0.00    -0.481 OA
ATOM      5  H   UNL     1       7.462  -3.694  -1.267  1.00  0.00     0.296 HD
ENDBRANCH   2   4
ENDBRANCH   1   2
BRANCH   1   6
ATOM      6  C   UNL     1       6.788  -1.393   1.263  1.00  0.00     0.047 C 
BRANCH   6   7
ATOM      7  C   UNL     1       6.220  -0.157   0.727  1.00  0.00    -0.047 A 
ATOM      8  C   UNL     1       6.458   0.220  -0.574  1.00  0.00     0.004 A 
ATOM      9  C   UNL     1       5.439   0.631   1.541  1.00  0.00     0.004 A 
ATOM     10  C   UNL     1       5.883   1.413  -1.019  1.00  0.00     0.000 A 
ATOM     11  C   UNL     1       4.872   1.810   1.100  1.00  0.00     0.000 A 
ATOM     12  C   UNL     1       5.106   2.195  -0.202  1.00  0.00     0.000 A 
ENDBRANCH   6   7
ENDBRANCH   1   6
TORSDOF 4
ENDMDL
