@<TRIPOS>MOLECULE
/home/cewinharhar/GITHUB/reincatalyze/data/processed/docking_pred/2023-Apr-26-1657_maxeplen10_maxtrainstep1000_exh32_gamma099_lrac9e-4_lrcr1e-3/9cf679a9c5542d052f5b9fd38195e755841f8057_ligand_2.pdbqt
 12 12 0 0 0
SMALL
GASTEIGER

@<TRIPOS>ATOM
      1  C          8.4970   -0.6730   -2.0680 C.3     1  UNL1        0.1270
      2  C          8.5150   -1.9130   -2.8790 C.2     1  UNL1        0.3030
      3  O          9.5890   -2.5200   -3.1150 O.2     1  UNL1       -0.2520
      4  O          7.3440   -2.4380   -3.4000 O.3     1  UNL1       -0.4810
      5  H          7.3890   -3.0440   -4.2240 H       1  UNL1        0.2960
      6  C          7.1140   -0.0990   -2.1170 C.3     1  UNL1        0.0470
      7  C          6.5090    0.1070   -0.8020 C.2     1  UNL1       -0.0470
      8  C          5.8310    1.2690   -0.5140 C.2     1  UNL1        0.0040
      9  C          6.6220   -0.8790    0.1510 C.2     1  UNL1        0.0040
     10  C          5.2780    1.3970    0.7620 C.2     1  UNL1        0.0000
     11  C          6.0750   -0.7500    1.4120 C.2     1  UNL1        0.0000
     12  C          5.3950    0.4110    1.7090 C.2     1  UNL1        0.0000
@<TRIPOS>BOND
     1     5     4    1
     2     4     2    1
     3     3     2    2
     4     2     1    1
     5     6     1    1
     6     6     7    1
     7     7     8    2
     8     7     9    1
     9     8    10    1
    10     9    11    2
    11    10    12    2
    12    11    12    1
