@<TRIPOS>MOLECULE
/home/cewinharhar/GITHUB/reincatalyze/data/processed/docking_pred/2023-Apr-26-1657_maxeplen10_maxtrainstep1000_exh32_gamma099_lrac9e-4_lrcr1e-3/9cf679a9c5542d052f5b9fd38195e755841f8057_ligand_2.pdbqt
 12 12 0 0 0
SMALL
GASTEIGER

@<TRIPOS>ATOM
      1  C          8.2640   -1.5300    1.0470 C.3     1  UNL1        0.1270
      2  C          8.5100   -2.7810    0.2900 C.2     1  UNL1        0.3030
      3  O          9.1140   -3.7490    0.8130 O.2     1  UNL1       -0.2520
      4  O          8.0780   -2.9150   -1.0190 O.3     1  UNL1       -0.4810
      5  H          7.4620   -3.6940   -1.2670 H       1  UNL1        0.2960
      6  C          6.7880   -1.3930    1.2630 C.3     1  UNL1        0.0470
      7  C          6.2200   -0.1570    0.7270 C.2     1  UNL1       -0.0470
      8  C          6.4580    0.2200   -0.5740 C.2     1  UNL1        0.0040
      9  C          5.4390    0.6310    1.5410 C.2     1  UNL1        0.0040
     10  C          5.8830    1.4130   -1.0190 C.2     1  UNL1        0.0000
     11  C          4.8720    1.8100    1.1000 C.2     1  UNL1        0.0000
     12  C          5.1060    2.1950   -0.2020 C.2     1  UNL1        0.0000
@<TRIPOS>BOND
     1     5     4    1
     2     4     2    1
     3    10     8    1
     4    10    12    2
     5     8     7    2
     6    12    11    1
     7     2     3    2
     8     2     1    1
     9     7     6    1
    10     7     9    1
    11     1     6    1
    12    11     9    2
