@<TRIPOS>MOLECULE
/home/cewinharhar/GITHUB/reincatalyze/data/processed/docking_pred/2023-Apr-26-1657_maxeplen10_maxtrainstep1000_exh32_gamma099_lrac9e-4_lrcr1e-3/9cf679a9c5542d052f5b9fd38195e755841f8057_ligand_2.pdbqt
 12 12 0 0 0
SMALL
GASTEIGER

@<TRIPOS>ATOM
      1  C          5.0400    1.7400    0.6690 C.3     1  UNL1        0.1270
      2  C          4.5990    1.0530    1.9060 C.2     1  UNL1        0.3030
      3  O          5.3290    0.2030    2.4740 O.2     1  UNL1       -0.2520
      4  O          3.3650    1.3310    2.4710 O.3     1  UNL1       -0.4810
      5  H          2.5610    1.4990    1.8600 H       1  UNL1        0.2960
      6  C          6.5370    1.8110    0.6780 C.3     1  UNL1        0.0470
      7  C          7.1760    1.0350   -0.3830 C.2     1  UNL1       -0.0470
      8  C          8.5140    1.1920   -0.6620 C.2     1  UNL1        0.0040
      9  C          6.4230    0.1380   -1.1050 C.2     1  UNL1        0.0040
     10  C          9.0570    0.4170   -1.6890 C.2     1  UNL1        0.0000
     11  C          6.9620   -0.6270   -2.1200 C.2     1  UNL1        0.0000
     12  C          8.3010   -0.4750   -2.4060 C.2     1  UNL1        0.0000
@<TRIPOS>BOND
     1    12    11    2
     2    12    10    1
     3    11     9    1
     4    10     8    2
     5     9     7    2
     6     8     7    1
     7     7     6    1
     8     1     6    1
     9     1     2    1
    10     5     4    1
    11     2     4    1
    12     2     3    2
