@<TRIPOS>MOLECULE
/home/cewinharhar/GITHUB/reincatalyze/data/processed/docking_pred/2023-Apr-26-1657_maxeplen10_maxtrainstep1000_exh32_gamma099_lrac9e-4_lrcr1e-3/9cf679a9c5542d052f5b9fd38195e755841f8057_ligand_2.pdbqt
 12 12 0 0 0
SMALL
GASTEIGER

@<TRIPOS>ATOM
      1  C          8.4200   -0.6540   -2.0860 C.3     1  UNL1        0.1270
      2  C          8.3820   -1.9020   -2.8850 C.2     1  UNL1        0.3030
      3  O          7.2920   -2.4050   -3.2550 O.2     1  UNL1       -0.2520
      4  O          9.5520   -2.5490   -3.2460 O.3     1  UNL1       -0.4810
      5  H          9.9710   -2.3550   -4.1600 H       1  UNL1        0.2960
      6  C          7.0450   -0.0580   -2.0780 C.3     1  UNL1        0.0470
      7  C          6.4710    0.0940   -0.7420 C.2     1  UNL1       -0.0470
      8  C          6.5930   -0.9070    0.1940 C.2     1  UNL1        0.0040
      9  C          5.8060    1.2560   -0.4250 C.2     1  UNL1        0.0040
     10  C          6.0210   -0.6930    1.4500 C.2     1  UNL1        0.0000
     11  C          5.2410    1.4650    0.8170 C.2     1  UNL1        0.0000
     12  C          5.3580    0.4680    1.7600 C.2     1  UNL1        0.0000
@<TRIPOS>BOND
     1     5     4    1
     2     3     2    2
     3     4     2    1
     4     2     1    1
     5     1     6    1
     6     6     7    1
     7     7     9    2
     8     7     8    1
     9     9    11    1
    10     8    10    2
    11    11    12    2
    12    10    12    1
