@<TRIPOS>MOLECULE
/home/cewinharhar/GITHUB/reincatalyze/data/processed/docking_pred/2023-Apr-26-1657_maxeplen10_maxtrainstep1000_exh32_gamma099_lrac9e-4_lrcr1e-3/9e6208548f5309b91e7f4e881f40d3475c8e3dc2_ligand_2.pdbqt
 12 12 0 0 0
SMALL
GASTEIGER

@<TRIPOS>ATOM
      1  C          8.2940    0.3920   -1.9410 C.3     1  UNL1        0.1270
      2  C          9.4660    0.2850   -1.0400 C.2     1  UNL1        0.3030
      3  O          9.4510   -0.4750   -0.0410 O.2     1  UNL1       -0.2520
      4  O         10.6140    1.0240   -1.2780 O.3     1  UNL1       -0.4810
      5  H         11.4620    0.8190   -0.7420 H       1  UNL1        0.2960
      6  C          7.2000   -0.4720   -1.3940 C.3     1  UNL1        0.0470
      7  C          6.3740    0.1830   -0.3810 C.2     1  UNL1       -0.0470
      8  C          6.1710   -0.4030    0.8470 C.2     1  UNL1        0.0040
      9  C          5.8000    1.4000   -0.6680 C.2     1  UNL1        0.0040
     10  C          5.3720    0.2810    1.7660 C.2     1  UNL1        0.0000
     11  C          5.0100    2.0740    0.2420 C.2     1  UNL1        0.0000
     12  C          4.8010    1.4940    1.4750 C.2     1  UNL1        0.0000
@<TRIPOS>BOND
     1     1     6    1
     2     1     2    1
     3     6     7    1
     4     4     2    1
     5     4     5    1
     6     2     3    2
     7     9     7    2
     8     9    11    1
     9     7     8    1
    10    11    12    2
    11     8    10    2
    12    12    10    1
