@<TRIPOS>MOLECULE
/home/cewinharhar/GITHUB/reincatalyze/data/processed/docking_pred/2023-Apr-26-1657_maxeplen10_maxtrainstep1000_exh32_gamma099_lrac9e-4_lrcr1e-3/9e6208548f5309b91e7f4e881f40d3475c8e3dc2_ligand_2.pdbqt
 12 12 0 0 0
SMALL
GASTEIGER

@<TRIPOS>ATOM
      1  C          5.0470    1.7900    0.7110 C.3     1  UNL1        0.1270
      2  C          4.5080    1.1100    1.9120 C.2     1  UNL1        0.3030
      3  O          5.1520    0.1970    2.4880 O.2     1  UNL1       -0.2520
      4  O          3.2750    1.4640    2.4350 O.3     1  UNL1       -0.4810
      5  H          2.7750    0.7990    3.0320 H       1  UNL1        0.2960
      6  C          6.5440    1.7470    0.7780 C.3     1  UNL1        0.0470
      7  C          7.1670    1.0150   -0.3230 C.2     1  UNL1       -0.0470
      8  C          8.4830    1.2350   -0.6580 C.2     1  UNL1        0.0040
      9  C          6.4220    0.0960   -1.0250 C.2     1  UNL1        0.0040
     10  C          9.0140    0.4990   -1.7200 C.2     1  UNL1        0.0000
     11  C          6.9480   -0.6300   -2.0750 C.2     1  UNL1        0.0000
     12  C          8.2660   -0.4160   -2.4170 C.2     1  UNL1        0.0000
@<TRIPOS>BOND
     1    12    11    2
     2    12    10    1
     3    11     9    1
     4    10     8    2
     5     9     7    2
     6     8     7    1
     7     7     6    1
     8     1     6    1
     9     1     2    1
    10     2     4    1
    11     2     3    2
    12     4     5    1
