@<TRIPOS>MOLECULE
/home/cewinharhar/GITHUB/reincatalyze/data/processed/docking_pred/2023-Apr-26-1657_maxeplen10_maxtrainstep1000_exh32_gamma099_lrac9e-4_lrcr1e-3/9e6208548f5309b91e7f4e881f40d3475c8e3dc2_ligand_2.pdbqt
 12 12 0 0 0
SMALL
GASTEIGER

@<TRIPOS>ATOM
      1  C          5.4790    2.8540   -0.0350 C.3     1  UNL1        0.1270
      2  C          6.2240    3.8600    0.7590 C.2     1  UNL1        0.3030
      3  O          6.8780    4.7750    0.2000 O.2     1  UNL1       -0.2520
      4  O          6.2180    3.8170    2.1440 O.3     1  UNL1       -0.4810
      5  H          5.4850    4.3130    2.6570 H       1  UNL1        0.2960
      6  C          4.9810    1.7920    0.8980 C.3     1  UNL1        0.0470
      7  C          5.7820    0.5690    0.8880 C.2     1  UNL1       -0.0470
      8  C          6.4280    0.1610   -0.2560 C.2     1  UNL1        0.0040
      9  C          5.8870   -0.1740    2.0410 C.2     1  UNL1        0.0040
     10  C          7.1760   -1.0170   -0.1920 C.2     1  UNL1        0.0000
     11  C          6.6260   -1.3390    2.1020 C.2     1  UNL1        0.0000
     12  C          7.2760   -1.7550    0.9600 C.2     1  UNL1        0.0000
@<TRIPOS>BOND
     1     8    10    1
     2     8     7    2
     3    10    12    2
     4     1     2    1
     5     1     6    1
     6     3     2    2
     7     2     4    1
     8     7     6    1
     9     7     9    1
    10    12    11    1
    11     9    11    2
    12     4     5    1
