@<TRIPOS>MOLECULE
/home/cewinharhar/GITHUB/reincatalyze/data/processed/docking_pred/2023-Apr-26-1657_maxeplen10_maxtrainstep1000_exh32_gamma099_lrac9e-4_lrcr1e-3/9e6208548f5309b91e7f4e881f40d3475c8e3dc2_ligand_2.pdbqt
 12 12 0 0 0
SMALL
GASTEIGER

@<TRIPOS>ATOM
      1  C          8.4550   -0.7240   -2.0000 C.3     1  UNL1        0.1270
      2  C          8.4690   -1.9300   -2.8610 C.2     1  UNL1        0.3030
      3  O          9.5400   -2.5340   -3.1180 O.2     1  UNL1       -0.2520
      4  O          7.2960   -2.4260   -3.4070 O.3     1  UNL1       -0.4810
      5  H          6.5870   -2.8300   -2.7890 H       1  UNL1        0.2960
      6  C          7.0830   -0.1250   -2.0520 C.3     1  UNL1        0.0470
      7  C          6.4770    0.0890   -0.7390 C.2     1  UNL1       -0.0470
      8  C          5.8000    1.2530   -0.4570 C.2     1  UNL1        0.0040
      9  C          6.5890   -0.8920    0.2190 C.2     1  UNL1        0.0040
     10  C          5.2460    1.3890    0.8180 C.2     1  UNL1        0.0000
     11  C          6.0410   -0.7560    1.4790 C.2     1  UNL1        0.0000
     12  C          5.3620    0.4080    1.7700 C.2     1  UNL1        0.0000
@<TRIPOS>BOND
     1     4     2    1
     2     4     5    1
     3     3     2    2
     4     2     1    1
     5     6     1    1
     6     6     7    1
     7     7     8    2
     8     7     9    1
     9     8    10    1
    10     9    11    2
    11    10    12    2
    12    11    12    1
