@<TRIPOS>MOLECULE
/home/cewinharhar/GITHUB/reincatalyze/data/processed/docking_pred/2023-Apr-26-1657_maxeplen10_maxtrainstep1000_exh32_gamma099_lrac9e-4_lrcr1e-3/9e6208548f5309b91e7f4e881f40d3475c8e3dc2_ligand_2.pdbqt
 12 12 0 0 0
SMALL
GASTEIGER

@<TRIPOS>ATOM
      1  C          8.4460   -0.6610   -2.0980 C.3     1  UNL1        0.1270
      2  C          8.4710   -1.9140   -2.8890 C.2     1  UNL1        0.3030
      3  O          9.5400   -2.5470   -3.0710 O.2     1  UNL1       -0.2520
      4  O          7.3110   -2.4220   -3.4510 O.3     1  UNL1       -0.4810
      5  H          6.7560   -1.8310   -4.0760 H       1  UNL1        0.2960
      6  C          7.0380   -0.1500   -2.0700 C.3     1  UNL1        0.0470
      7  C          6.4800   -0.0160   -0.7260 C.2     1  UNL1       -0.0470
      8  C          6.6110   -1.0300    0.1940 C.2     1  UNL1        0.0040
      9  C          5.8210    1.1430   -0.3850 C.2     1  UNL1        0.0040
     10  C          6.0540   -0.8320    1.4600 C.2     1  UNL1        0.0000
     11  C          5.2710    1.3360    0.8670 C.2     1  UNL1        0.0000
     12  C          5.3970    0.3250    1.7940 C.2     1  UNL1        0.0000
@<TRIPOS>BOND
     1     5     4    1
     2     4     2    1
     3     3     2    2
     4     2     1    1
     5     1     6    1
     6     6     7    1
     7     7     9    2
     8     7     8    1
     9     9    11    1
    10     8    10    2
    11    11    12    2
    12    10    12    1
