MODEL 1
REMARK VINA RESULT:      -7.4      0.000      0.000
REMARK SMILES O=C(O)CCc1ccccc1
REMARK SMILES IDX 4 1 2 2 1 3 3 4 5 6 6 7 7 8 11 9 8 10 10 11 9 12
REMARK H PARENT 3 5
REMARK Flexibility Score: inf
ROOT
ATOM      1  C   UNL     1       8.455  -0.724  -2.000  1.00  0.00     0.127 C 
ENDROOT
BRANCH   1   2
ATOM      2  C   UNL     1       8.469  -1.930  -2.861  1.00  0.00     0.303 C 
ATOM      3  O   UNL     1       9.540  -2.534  -3.118  1.00  0.00    -0.252 OA
BRANCH   2   4
ATOM      4  O   UNL     1       7.296  -2.426  -3.407  1.00  0.00    -0.481 OA
ATOM      5  H   UNL     1       6.587  -2.830  -2.789  1.00  0.00     0.296 HD
ENDBRANCH   2   4
ENDBRANCH   1   2
BRANCH   1   6
ATOM      6  C   UNL     1       7.083  -0.125  -2.052  1.00  0.00     0.047 C 
BRANCH   6   7
ATOM      7  C   UNL     1       6.477   0.089  -0.739  1.00  0.00    -0.047 A 
ATOM      8  C   UNL     1       5.800   1.253  -0.457  1.00  0.00     0.004 A 
ATOM      9  C   UNL     1       6.589  -0.892   0.219  1.00  0.00     0.004 A 
ATOM     10  C   UNL     1       5.246   1.389   0.818  1.00  0.00     0.000 A 
ATOM     11  C   UNL     1       6.041  -0.756   1.479  1.00  0.00     0.000 A 
ATOM     12  C   UNL     1       5.362   0.408   1.770  1.00  0.00     0.000 A 
ENDBRANCH   6   7
ENDBRANCH   1   6
TORSDOF 4
ENDMDL
MODEL 2
REMARK VINA RESULT:      -7.3      0.092      1.439
REMARK SMILES O=C(O)CCc1ccccc1
REMARK SMILES IDX 4 1 2 2 1 3 3 4 5 6 6 7 7 8 11 9 8 10 10 11 9 12
REMARK H PARENT 3 5
REMARK Flexibility Score: inf
ROOT
ATOM      1  C   UNL     1       8.446  -0.661  -2.098  1.00  0.00     0.127 C 
ENDROOT
BRANCH   1   2
ATOM      2  C   UNL     1       8.471  -1.914  -2.889  1.00  0.00     0.303 C 
ATOM      3  O   UNL     1       9.540  -2.547  -3.071  1.00  0.00    -0.252 OA
BRANCH   2   4
ATOM      4  O   UNL     1       7.311  -2.422  -3.451  1.00  0.00    -0.481 OA
ATOM      5  H   UNL     1       6.756  -1.831  -4.076  1.00  0.00     0.296 HD
ENDBRANCH   2   4
ENDBRANCH   1   2
BRANCH   1   6
ATOM      6  C   UNL     1       7.038  -0.150  -2.070  1.00  0.00     0.047 C 
BRANCH   6   7
ATOM      7  C   UNL     1       6.480  -0.016  -0.726  1.00  0.00    -0.047 A 
ATOM      8  C   UNL     1       6.611  -1.030   0.194  1.00  0.00     0.004 A 
ATOM      9  C   UNL     1       5.821   1.143  -0.385  1.00  0.00     0.004 A 
ATOM     10  C   UNL     1       6.054  -0.832   1.460  1.00  0.00     0.000 A 
ATOM     11  C   UNL     1       5.271   1.336   0.867  1.00  0.00     0.000 A 
ATOM     12  C   UNL     1       5.397   0.325   1.794  1.00  0.00     0.000 A 
ENDBRANCH   6   7
ENDBRANCH   1   6
TORSDOF 4
ENDMDL
MODEL 3
REMARK VINA RESULT:      -6.8      3.362      5.056
REMARK SMILES O=C(O)CCc1ccccc1
REMARK SMILES IDX 4 1 2 2 1 3 3 4 5 6 6 7 7 8 11 9 8 10 10 11 9 12
REMARK H PARENT 3 5
REMARK Flexibility Score: inf
ROOT
ATOM      1  C   UNL     1       5.047   1.790   0.711  1.00  0.00     0.127 C 
ENDROOT
BRANCH   1   2
ATOM      2  C   UNL     1       4.508   1.110   1.912  1.00  0.00     0.303 C 
ATOM      3  O   UNL     1       5.152   0.197   2.488  1.00  0.00    -0.252 OA
BRANCH   2   4
ATOM      4  O   UNL     1       3.275   1.464   2.435  1.00  0.00    -0.481 OA
ATOM      5  H   UNL     1       2.775   0.799   3.032  1.00  0.00     0.296 HD
ENDBRANCH   2   4
ENDBRANCH   1   2
BRANCH   1   6
ATOM      6  C   UNL     1       6.544   1.747   0.778  1.00  0.00     0.047 C 
BRANCH   6   7
ATOM      7  C   UNL     1       7.167   1.015  -0.323  1.00  0.00    -0.047 A 
ATOM      8  C   UNL     1       8.483   1.235  -0.658  1.00  0.00     0.004 A 
ATOM      9  C   UNL     1       6.422   0.096  -1.025  1.00  0.00     0.004 A 
ATOM     10  C   UNL     1       9.014   0.499  -1.720  1.00  0.00     0.000 A 
ATOM     11  C   UNL     1       6.948  -0.630  -2.075  1.00  0.00     0.000 A 
ATOM     12  C   UNL     1       8.266  -0.416  -2.417  1.00  0.00     0.000 A 
ENDBRANCH   6   7
ENDBRANCH   1   6
TORSDOF 4
ENDMDL
MODEL 4
REMARK VINA RESULT:      -6.7      3.801      4.921
REMARK SMILES O=C(O)CCc1ccccc1
REMARK SMILES IDX 4 1 2 2 1 3 3 4 5 6 6 7 7 8 11 9 8 10 10 11 9 12
REMARK H PARENT 3 5
REMARK Flexibility Score: inf
ROOT
ATOM      1  C   UNL     1       5.479   2.854  -0.035  1.00  0.00     0.127 C 
ENDROOT
BRANCH   1   2
ATOM      2  C   UNL     1       6.224   3.860   0.759  1.00  0.00     0.303 C 
ATOM      3  O   UNL     1       6.878   4.775   0.200  1.00  0.00    -0.252 OA
BRANCH   2   4
ATOM      4  O   UNL     1       6.218   3.817   2.144  1.00  0.00    -0.481 OA
ATOM      5  H   UNL     1       5.485   4.313   2.657  1.00  0.00     0.296 HD
ENDBRANCH   2   4
ENDBRANCH   1   2
BRANCH   1   6
ATOM      6  C   UNL     1       4.981   1.792   0.898  1.00  0.00     0.047 C 
BRANCH   6   7
ATOM      7  C   UNL     1       5.782   0.569   0.888  1.00  0.00    -0.047 A 
ATOM      8  C   UNL     1       6.428   0.161  -0.256  1.00  0.00     0.004 A 
ATOM      9  C   UNL     1       5.887  -0.174   2.041  1.00  0.00     0.004 A 
ATOM     10  C   UNL     1       7.176  -1.017  -0.192  1.00  0.00     0.000 A 
ATOM     11  C   UNL     1       6.626  -1.339   2.102  1.00  0.00     0.000 A 
ATOM     12  C   UNL     1       7.276  -1.755   0.960  1.00  0.00     0.000 A 
ENDBRANCH   6   7
ENDBRANCH   1   6
TORSDOF 4
ENDMDL
MODEL 5
REMARK VINA RESULT:      -6.6      1.987      2.662
REMARK SMILES O=C(O)CCc1ccccc1
REMARK SMILES IDX 4 1 2 2 1 3 3 4 5 6 6 7 7 8 11 9 8 10 10 11 9 12
REMARK H PARENT 3 5
REMARK Flexibility Score: inf
ROOT
ATOM      1  C   UNL     1       8.294   0.392  -1.941  1.00  0.00     0.127 C 
ENDROOT
BRANCH   1   2
ATOM      2  C   UNL     1       9.466   0.285  -1.040  1.00  0.00     0.303 C 
ATOM      3  O   UNL     1       9.451  -0.475  -0.041  1.00  0.00    -0.252 OA
BRANCH   2   4
ATOM      4  O   UNL     1      10.614   1.024  -1.278  1.00  0.00    -0.481 OA
ATOM      5  H   UNL     1      11.462   0.819  -0.742  1.00  0.00     0.296 HD
ENDBRANCH   2   4
ENDBRANCH   1   2
BRANCH   1   6
ATOM      6  C   UNL     1       7.200  -0.472  -1.394  1.00  0.00     0.047 C 
BRANCH   6   7
ATOM      7  C   UNL     1       6.374   0.183  -0.381  1.00  0.00    -0.047 A 
ATOM      8  C   UNL     1       6.171  -0.403   0.847  1.00  0.00     0.004 A 
ATOM      9  C   UNL     1       5.800   1.400  -0.668  1.00  0.00     0.004 A 
ATOM     10  C   UNL     1       5.372   0.281   1.766  1.00  0.00     0.000 A 
ATOM     11  C   UNL     1       5.010   2.074   0.242  1.00  0.00     0.000 A 
ATOM     12  C   UNL     1       4.801   1.494   1.475  1.00  0.00     0.000 A 
ENDBRANCH   6   7
ENDBRANCH   1   6
TORSDOF 4
ENDMDL
