@<TRIPOS>MOLECULE
/home/cewinharhar/GITHUB/reincatalyze/data/processed/docking_pred/2023-Apr-26-1657_maxeplen10_maxtrainstep1000_exh32_gamma099_lrac9e-4_lrcr1e-3/9fad910e57fbde25b93c61ef9d3287f531a6e420_ligand_2.pdbqt
 12 12 0 0 0
SMALL
GASTEIGER

@<TRIPOS>ATOM
      1  C          8.2920   -0.8520   -1.9990 C.3     1  UNL1        0.1270
      2  C          8.4180   -2.0230   -2.8980 C.2     1  UNL1        0.3030
      3  O          9.5350   -2.5510   -3.1270 O.2     1  UNL1       -0.2520
      4  O          7.3030   -2.5700   -3.5130 O.3     1  UNL1       -0.4810
      5  H          6.3750   -2.2020   -3.2860 H       1  UNL1        0.2960
      6  C          7.5860   -1.2900   -0.7510 C.3     1  UNL1        0.0470
      7  C          6.7000   -0.2770   -0.1820 C.2     1  UNL1       -0.0470
      8  C          6.3350    0.8290   -0.9140 C.2     1  UNL1        0.0040
      9  C          6.2290   -0.4400    1.1000 C.2     1  UNL1        0.0040
     10  C          5.4850    1.7560   -0.3080 C.2     1  UNL1        0.0000
     11  C          5.3880    0.4770    1.6980 C.2     1  UNL1        0.0000
     12  C          5.0180    1.5890    0.9720 C.2     1  UNL1        0.0000
@<TRIPOS>BOND
     1     4     5    1
     2     4     2    1
     3     3     2    2
     4     2     1    1
     5     1     6    1
     6     8    10    1
     7     8     7    2
     8     6     7    1
     9    10    12    2
    10     7     9    1
    11    12    11    1
    12     9    11    2
