@<TRIPOS>MOLECULE
/home/cewinharhar/GITHUB/reincatalyze/data/processed/docking_pred/2023-Apr-26-1657_maxeplen10_maxtrainstep1000_exh32_gamma099_lrac9e-4_lrcr1e-3/9fad910e57fbde25b93c61ef9d3287f531a6e420_ligand_2.pdbqt
 12 12 0 0 0
SMALL
GASTEIGER

@<TRIPOS>ATOM
      1  C          5.0430    1.7650    0.7090 C.3     1  UNL1        0.1270
      2  C          4.4970    1.1010    1.9160 C.2     1  UNL1        0.3030
      3  O          5.1310    0.1880    2.5000 O.2     1  UNL1       -0.2520
      4  O          3.2670    1.4720    2.4350 O.3     1  UNL1       -0.4810
      5  H          3.2230    1.8990    3.3640 H       1  UNL1        0.2960
      6  C          6.5390    1.7190    0.7830 C.3     1  UNL1        0.0470
      7  C          7.1670    0.9860   -0.3150 C.2     1  UNL1       -0.0470
      8  C          8.4710    1.2370   -0.6730 C.2     1  UNL1        0.0040
      9  C          6.4370    0.0360   -0.9910 C.2     1  UNL1        0.0040
     10  C          9.0060    0.4980   -1.7310 C.2     1  UNL1        0.0000
     11  C          6.9670   -0.6930   -2.0370 C.2     1  UNL1        0.0000
     12  C          8.2730   -0.4480   -2.4030 C.2     1  UNL1        0.0000
@<TRIPOS>BOND
     1    12    11    2
     2    12    10    1
     3    11     9    1
     4    10     8    2
     5     9     7    2
     6     8     7    1
     7     7     6    1
     8     1     6    1
     9     1     2    1
    10     2     4    1
    11     2     3    2
    12     4     5    1
