@<TRIPOS>MOLECULE
/home/cewinharhar/GITHUB/reincatalyze/data/processed/docking_pred/2023-Apr-26-1657_maxeplen10_maxtrainstep1000_exh32_gamma099_lrac9e-4_lrcr1e-3/9fad910e57fbde25b93c61ef9d3287f531a6e420_ligand_2.pdbqt
 12 12 0 0 0
SMALL
GASTEIGER

@<TRIPOS>ATOM
      1  C          8.4290   -0.6040   -2.1520 C.3     1  UNL1        0.1270
      2  C          8.4710   -1.8850   -2.8960 C.2     1  UNL1        0.3030
      3  O          9.5550   -2.4880   -3.0930 O.2     1  UNL1       -0.2520
      4  O          7.3110   -2.4530   -3.3970 O.3     1  UNL1       -0.4810
      5  H          7.3790   -3.2100   -4.0830 H       1  UNL1        0.2960
      6  C          7.0120   -0.1200   -2.1270 C.3     1  UNL1        0.0470
      7  C          6.4680    0.0600   -0.7820 C.2     1  UNL1       -0.0470
      8  C          5.8400    1.2310   -0.4280 C.2     1  UNL1        0.0040
      9  C          6.5910   -0.9600    0.1340 C.2     1  UNL1        0.0040
     10  C          5.3440    1.3330    0.8740 C.2     1  UNL1        0.0000
     11  C          6.1000   -0.8570    1.4200 C.2     1  UNL1        0.0000
     12  C          5.4690    0.3130    1.7830 C.2     1  UNL1        0.0000
@<TRIPOS>BOND
     1     5     4    1
     2     4     2    1
     3     3     2    2
     4     2     1    1
     5     1     6    1
     6     6     7    1
     7     7     8    2
     8     7     9    1
     9     8    10    1
    10     9    11    2
    11    10    12    2
    12    11    12    1
