@<TRIPOS>MOLECULE
/home/cewinharhar/GITHUB/reincatalyze/data/processed/docking_pred/2023-Apr-26-1657_maxeplen10_maxtrainstep1000_exh32_gamma099_lrac9e-4_lrcr1e-3/9fad910e57fbde25b93c61ef9d3287f531a6e420_ligand_2.pdbqt
 12 12 0 0 0
SMALL
GASTEIGER

@<TRIPOS>ATOM
      1  C          8.2080    0.2670   -2.1330 C.3     1  UNL1        0.1270
      2  C          9.3580    0.3450   -1.2020 C.2     1  UNL1        0.3030
      3  O          9.4450   -0.4200   -0.2090 O.2     1  UNL1       -0.2520
      4  O         10.3730    1.2670   -1.4020 O.3     1  UNL1       -0.4810
      5  H         11.0840    1.3940   -0.6770 H       1  UNL1        0.2960
      6  C          7.1290   -0.5420   -1.4820 C.3     1  UNL1        0.0470
      7  C          6.3420    0.1990   -0.4970 C.2     1  UNL1       -0.0470
      8  C          5.7990    1.4240   -0.8090 C.2     1  UNL1        0.0040
      9  C          6.1470   -0.3430    0.7520 C.2     1  UNL1        0.0040
     10  C          5.0590    2.0750    0.1800 C.2     1  UNL1        0.0000
     11  C          5.4150    0.3020    1.7290 C.2     1  UNL1        0.0000
     12  C          4.8680    1.5300    1.4250 C.2     1  UNL1        0.0000
@<TRIPOS>BOND
     1     1     6    1
     2     1     2    1
     3     6     7    1
     4     4     2    1
     5     4     5    1
     6     2     3    2
     7     8     7    2
     8     8    10    1
     9     7     9    1
    10    10    12    2
    11     9    11    2
    12    12    11    1
