@<TRIPOS>MOLECULE
/home/cewinharhar/GITHUB/reincatalyze/data/processed/docking_pred/2023-Apr-26-1657_maxeplen10_maxtrainstep1000_exh32_gamma099_lrac9e-4_lrcr1e-3/9fad910e57fbde25b93c61ef9d3287f531a6e420_ligand_2.pdbqt
 12 12 0 0 0
SMALL
GASTEIGER

@<TRIPOS>ATOM
      1  C          8.4170   -0.6090   -2.1540 C.3     1  UNL1        0.1270
      2  C          8.3800   -1.8870   -2.9040 C.2     1  UNL1        0.3030
      3  O          7.2900   -2.4090   -3.2460 O.2     1  UNL1       -0.2520
      4  O          9.5510   -2.5430   -3.2470 O.3     1  UNL1       -0.4810
      5  H         10.0020   -3.1550   -2.5620 H       1  UNL1        0.2960
      6  C          7.0290   -0.0480   -2.1110 C.3     1  UNL1        0.0470
      7  C          6.4800    0.0780   -0.7610 C.2     1  UNL1       -0.0470
      8  C          6.6110   -0.9440    0.1500 C.2     1  UNL1        0.0040
      9  C          5.8300    1.2380   -0.4070 C.2     1  UNL1        0.0040
     10  C          6.0630   -0.7540    1.4200 C.2     1  UNL1        0.0000
     11  C          5.2890    1.4240    0.8500 C.2     1  UNL1        0.0000
     12  C          5.4150    0.4040    1.7680 C.2     1  UNL1        0.0000
@<TRIPOS>BOND
     1     4     2    1
     2     4     5    1
     3     3     2    2
     4     2     1    1
     5     1     6    1
     6     6     7    1
     7     7     9    2
     8     7     8    1
     9     9    11    1
    10     8    10    2
    11    11    12    2
    12    10    12    1
