MODEL 1
REMARK VINA RESULT:      -7.3      0.000      0.000
REMARK SMILES O=C(O)CCc1ccccc1
REMARK SMILES IDX 4 1 2 2 1 3 3 4 5 6 6 7 7 8 11 9 8 10 10 11 9 12
REMARK H PARENT 3 5
REMARK Flexibility Score: inf
ROOT
ATOM      1  C   UNL     1       8.429  -0.604  -2.152  1.00  0.00     0.127 C 
ENDROOT
BRANCH   1   2
ATOM      2  C   UNL     1       8.471  -1.885  -2.896  1.00  0.00     0.303 C 
ATOM      3  O   UNL     1       9.555  -2.488  -3.093  1.00  0.00    -0.252 OA
BRANCH   2   4
ATOM      4  O   UNL     1       7.311  -2.453  -3.397  1.00  0.00    -0.481 OA
ATOM      5  H   UNL     1       7.379  -3.210  -4.083  1.00  0.00     0.296 HD
ENDBRANCH   2   4
ENDBRANCH   1   2
BRANCH   1   6
ATOM      6  C   UNL     1       7.012  -0.120  -2.127  1.00  0.00     0.047 C 
BRANCH   6   7
ATOM      7  C   UNL     1       6.468   0.060  -0.782  1.00  0.00    -0.047 A 
ATOM      8  C   UNL     1       5.840   1.231  -0.428  1.00  0.00     0.004 A 
ATOM      9  C   UNL     1       6.591  -0.960   0.134  1.00  0.00     0.004 A 
ATOM     10  C   UNL     1       5.344   1.333   0.874  1.00  0.00     0.000 A 
ATOM     11  C   UNL     1       6.100  -0.857   1.420  1.00  0.00     0.000 A 
ATOM     12  C   UNL     1       5.469   0.313   1.783  1.00  0.00     0.000 A 
ENDBRANCH   6   7
ENDBRANCH   1   6
TORSDOF 4
ENDMDL
MODEL 2
REMARK VINA RESULT:      -7.3      0.097      1.731
REMARK SMILES O=C(O)CCc1ccccc1
REMARK SMILES IDX 4 1 2 2 1 3 3 4 5 6 6 7 7 8 11 9 8 10 10 11 9 12
REMARK H PARENT 3 5
REMARK Flexibility Score: inf
ROOT
ATOM      1  C   UNL     1       8.417  -0.609  -2.154  1.00  0.00     0.127 C 
ENDROOT
BRANCH   1   2
ATOM      2  C   UNL     1       8.380  -1.887  -2.904  1.00  0.00     0.303 C 
ATOM      3  O   UNL     1       7.290  -2.409  -3.246  1.00  0.00    -0.252 OA
BRANCH   2   4
ATOM      4  O   UNL     1       9.551  -2.543  -3.247  1.00  0.00    -0.481 OA
ATOM      5  H   UNL     1      10.002  -3.155  -2.562  1.00  0.00     0.296 HD
ENDBRANCH   2   4
ENDBRANCH   1   2
BRANCH   1   6
ATOM      6  C   UNL     1       7.029  -0.048  -2.111  1.00  0.00     0.047 C 
BRANCH   6   7
ATOM      7  C   UNL     1       6.480   0.078  -0.761  1.00  0.00    -0.047 A 
ATOM      8  C   UNL     1       6.611  -0.944   0.150  1.00  0.00     0.004 A 
ATOM      9  C   UNL     1       5.830   1.238  -0.407  1.00  0.00     0.004 A 
ATOM     10  C   UNL     1       6.063  -0.754   1.420  1.00  0.00     0.000 A 
ATOM     11  C   UNL     1       5.289   1.424   0.850  1.00  0.00     0.000 A 
ATOM     12  C   UNL     1       5.415   0.404   1.768  1.00  0.00     0.000 A 
ENDBRANCH   6   7
ENDBRANCH   1   6
TORSDOF 4
ENDMDL
MODEL 3
REMARK VINA RESULT:      -7.2      0.631      1.075
REMARK SMILES O=C(O)CCc1ccccc1
REMARK SMILES IDX 4 1 2 2 1 3 3 4 5 6 6 7 7 8 11 9 8 10 10 11 9 12
REMARK H PARENT 3 5
REMARK Flexibility Score: inf
ROOT
ATOM      1  C   UNL     1       8.292  -0.852  -1.999  1.00  0.00     0.127 C 
ENDROOT
BRANCH   1   2
ATOM      2  C   UNL     1       8.418  -2.023  -2.898  1.00  0.00     0.303 C 
ATOM      3  O   UNL     1       9.535  -2.551  -3.127  1.00  0.00    -0.252 OA
BRANCH   2   4
ATOM      4  O   UNL     1       7.303  -2.570  -3.513  1.00  0.00    -0.481 OA
ATOM      5  H   UNL     1       6.375  -2.202  -3.286  1.00  0.00     0.296 HD
ENDBRANCH   2   4
ENDBRANCH   1   2
BRANCH   1   6
ATOM      6  C   UNL     1       7.586  -1.290  -0.751  1.00  0.00     0.047 C 
BRANCH   6   7
ATOM      7  C   UNL     1       6.700  -0.277  -0.182  1.00  0.00    -0.047 A 
ATOM      8  C   UNL     1       6.335   0.829  -0.914  1.00  0.00     0.004 A 
ATOM      9  C   UNL     1       6.229  -0.440   1.100  1.00  0.00     0.004 A 
ATOM     10  C   UNL     1       5.485   1.756  -0.308  1.00  0.00     0.000 A 
ATOM     11  C   UNL     1       5.388   0.477   1.698  1.00  0.00     0.000 A 
ATOM     12  C   UNL     1       5.018   1.589   0.972  1.00  0.00     0.000 A 
ENDBRANCH   6   7
ENDBRANCH   1   6
TORSDOF 4
ENDMDL
MODEL 4
REMARK VINA RESULT:      -6.8      3.370      5.040
REMARK SMILES O=C(O)CCc1ccccc1
REMARK SMILES IDX 4 1 2 2 1 3 3 4 5 6 6 7 7 8 11 9 8 10 10 11 9 12
REMARK H PARENT 3 5
REMARK Flexibility Score: inf
ROOT
ATOM      1  C   UNL     1       5.043   1.765   0.709  1.00  0.00     0.127 C 
ENDROOT
BRANCH   1   2
ATOM      2  C   UNL     1       4.497   1.101   1.916  1.00  0.00     0.303 C 
ATOM      3  O   UNL     1       5.131   0.188   2.500  1.00  0.00    -0.252 OA
BRANCH   2   4
ATOM      4  O   UNL     1       3.267   1.472   2.435  1.00  0.00    -0.481 OA
ATOM      5  H   UNL     1       3.223   1.899   3.364  1.00  0.00     0.296 HD
ENDBRANCH   2   4
ENDBRANCH   1   2
BRANCH   1   6
ATOM      6  C   UNL     1       6.539   1.719   0.783  1.00  0.00     0.047 C 
BRANCH   6   7
ATOM      7  C   UNL     1       7.167   0.986  -0.315  1.00  0.00    -0.047 A 
ATOM      8  C   UNL     1       8.471   1.237  -0.673  1.00  0.00     0.004 A 
ATOM      9  C   UNL     1       6.437   0.036  -0.991  1.00  0.00     0.004 A 
ATOM     10  C   UNL     1       9.006   0.498  -1.731  1.00  0.00     0.000 A 
ATOM     11  C   UNL     1       6.967  -0.693  -2.037  1.00  0.00     0.000 A 
ATOM     12  C   UNL     1       8.273  -0.448  -2.403  1.00  0.00     0.000 A 
ENDBRANCH   6   7
ENDBRANCH   1   6
TORSDOF 4
ENDMDL
MODEL 5
REMARK VINA RESULT:      -6.6      1.923      2.258
REMARK SMILES O=C(O)CCc1ccccc1
REMARK SMILES IDX 4 1 2 2 1 3 3 4 5 6 6 7 7 8 11 9 8 10 10 11 9 12
REMARK H PARENT 3 5
REMARK Flexibility Score: inf
ROOT
ATOM      1  C   UNL     1       8.208   0.267  -2.133  1.00  0.00     0.127 C 
ENDROOT
BRANCH   1   2
ATOM      2  C   UNL     1       9.358   0.345  -1.202  1.00  0.00     0.303 C 
ATOM      3  O   UNL     1       9.445  -0.420  -0.209  1.00  0.00    -0.252 OA
BRANCH   2   4
ATOM      4  O   UNL     1      10.373   1.267  -1.402  1.00  0.00    -0.481 OA
ATOM      5  H   UNL     1      11.084   1.394  -0.677  1.00  0.00     0.296 HD
ENDBRANCH   2   4
ENDBRANCH   1   2
BRANCH   1   6
ATOM      6  C   UNL     1       7.129  -0.542  -1.482  1.00  0.00     0.047 C 
BRANCH   6   7
ATOM      7  C   UNL     1       6.342   0.199  -0.497  1.00  0.00    -0.047 A 
ATOM      8  C   UNL     1       5.799   1.424  -0.809  1.00  0.00     0.004 A 
ATOM      9  C   UNL     1       6.147  -0.343   0.752  1.00  0.00     0.004 A 
ATOM     10  C   UNL     1       5.059   2.075   0.180  1.00  0.00     0.000 A 
ATOM     11  C   UNL     1       5.415   0.302   1.729  1.00  0.00     0.000 A 
ATOM     12  C   UNL     1       4.868   1.530   1.425  1.00  0.00     0.000 A 
ENDBRANCH   6   7
ENDBRANCH   1   6
TORSDOF 4
ENDMDL
