@<TRIPOS>MOLECULE
/home/cewinharhar/GITHUB/reincatalyze/data/processed/docking_pred/2023-Apr-26-1657_maxeplen10_maxtrainstep1000_exh32_gamma099_lrac9e-4_lrcr1e-3/a1c3c4a97d6bd518e48ffa0772dda1f342f6565e_ligand_2.pdbqt
 12 12 0 0 0
SMALL
GASTEIGER

@<TRIPOS>ATOM
      1  C          8.2070    0.2400   -2.2290 C.3     1  UNL1        0.1270
      2  C          9.3320    0.3570   -1.2720 C.2     1  UNL1        0.3030
      3  O          9.4350   -0.4190   -0.2900 O.2     1  UNL1       -0.2520
      4  O         10.3040    1.3310   -1.4350 O.3     1  UNL1       -0.4810
      5  H         10.0220    2.3110   -1.5260 H       1  UNL1        0.2960
      6  C          7.0980   -0.5140   -1.5620 C.3     1  UNL1        0.0470
      7  C          6.3320    0.2800   -0.6030 C.2     1  UNL1       -0.0470
      8  C          6.1220   -0.1750    0.6780 C.2     1  UNL1        0.0040
      9  C          5.8200    1.4950   -0.9950 C.2     1  UNL1        0.0040
     10  C          5.3820    0.6370    1.5410 C.2     1  UNL1        0.0000
     11  C          5.0880    2.2960   -0.1410 C.2     1  UNL1        0.0000
     12  C          4.8730    1.8480    1.1440 C.2     1  UNL1        0.0000
@<TRIPOS>BOND
     1     1     6    1
     2     1     2    1
     3     6     7    1
     4     5     4    1
     5     4     2    1
     6     2     3    2
     7     9     7    2
     8     9    11    1
     9     7     8    1
    10    11    12    2
    11     8    10    2
    12    12    10    1
