@<TRIPOS>MOLECULE
/home/cewinharhar/GITHUB/reincatalyze/data/processed/docking_pred/2023-Apr-26-1657_maxeplen10_maxtrainstep1000_exh32_gamma099_lrac9e-4_lrcr1e-3/a1c3c4a97d6bd518e48ffa0772dda1f342f6565e_ligand_2.pdbqt
 12 12 0 0 0
SMALL
GASTEIGER

@<TRIPOS>ATOM
      1  C          5.0040    1.8290    0.7180 C.3     1  UNL1        0.1270
      2  C          4.4840    1.1260    1.9150 C.2     1  UNL1        0.3030
      3  O          5.1410    0.2100    2.4690 O.2     1  UNL1       -0.2520
      4  O          3.2540    1.4620    2.4570 O.3     1  UNL1       -0.4810
      5  H          2.9500    2.4400    2.4430 H       1  UNL1        0.2960
      6  C          6.5010    1.7950    0.7660 C.3     1  UNL1        0.0470
      7  C          7.1140    1.0490   -0.3320 C.2     1  UNL1       -0.0470
      8  C          6.3720    0.1680   -1.0830 C.2     1  UNL1        0.0040
      9  C          8.4480    1.2390   -0.6100 C.2     1  UNL1        0.0040
     10  C          7.0230   -0.5100   -2.1170 C.2     1  UNL1        0.0000
     11  C          9.0900    0.5680   -1.6320 C.2     1  UNL1        0.0000
     12  C          8.3540   -0.3170   -2.3890 C.2     1  UNL1        0.0000
@<TRIPOS>BOND
     1    12    10    2
     2    12    11    1
     3    10     8    1
     4    11     9    2
     5     8     7    2
     6     9     7    1
     7     7     6    1
     8     1     6    1
     9     1     2    1
    10     2     4    1
    11     2     3    2
    12     5     4    1
