@<TRIPOS>MOLECULE
/home/cewinharhar/GITHUB/reincatalyze/data/processed/docking_pred/2023-Apr-26-1657_maxeplen10_maxtrainstep1000_exh32_gamma099_lrac9e-4_lrcr1e-3/a1c3c4a97d6bd518e48ffa0772dda1f342f6565e_ligand_2.pdbqt
 12 12 0 0 0
SMALL
GASTEIGER

@<TRIPOS>ATOM
      1  C          8.4630   -0.6600   -2.0690 C.3     1  UNL1        0.1270
      2  C          8.4050   -1.9010   -2.8750 C.2     1  UNL1        0.3030
      3  O          7.3070   -2.4070   -3.2150 O.2     1  UNL1       -0.2520
      4  O          9.5670   -2.5410   -3.2780 O.3     1  UNL1       -0.4810
      5  H         10.4550   -2.2950   -2.8320 H       1  UNL1        0.2960
      6  C          7.1050   -0.0260   -2.0820 C.3     1  UNL1        0.0470
      7  C          6.5080    0.1280   -0.7570 C.2     1  UNL1       -0.0470
      8  C          6.6790   -0.8380    0.2080 C.2     1  UNL1        0.0040
      9  C          5.7700    1.2550   -0.4800 C.2     1  UNL1        0.0040
     10  C          6.0810   -0.6240    1.4520 C.2     1  UNL1        0.0000
     11  C          5.1790    1.4650    0.7510 C.2     1  UNL1        0.0000
     12  C          5.3450    0.5030    1.7230 C.2     1  UNL1        0.0000
@<TRIPOS>BOND
     1     4     2    1
     2     4     5    1
     3     3     2    2
     4     2     1    1
     5     6     1    1
     6     6     7    1
     7     7     9    2
     8     7     8    1
     9     9    11    1
    10     8    10    2
    11    11    12    2
    12    10    12    1
