@<TRIPOS>MOLECULE
/home/cewinharhar/GITHUB/reincatalyze/data/processed/docking_pred/2023-Apr-26-1657_maxeplen10_maxtrainstep1000_exh32_gamma099_lrac9e-4_lrcr1e-3/a1c3c4a97d6bd518e48ffa0772dda1f342f6565e_ligand_2.pdbqt
 12 12 0 0 0
SMALL
GASTEIGER

@<TRIPOS>ATOM
      1  C          8.2210   -0.9160   -1.8600 C.3     1  UNL1        0.1270
      2  C          8.3710   -2.0210   -2.8360 C.2     1  UNL1        0.3030
      3  O          9.4920   -2.5350   -3.0700 O.2     1  UNL1       -0.2520
      4  O          7.2730   -2.5180   -3.5190 O.3     1  UNL1       -0.4810
      5  H          7.1600   -2.3000   -4.5130 H       1  UNL1        0.2960
      6  C          7.3660   -1.4000   -0.7290 C.3     1  UNL1        0.0470
      7  C          6.5500   -0.3560   -0.1110 C.2     1  UNL1       -0.0470
      8  C          6.1190   -0.4770    1.1900 C.2     1  UNL1        0.0040
      9  C          6.2160    0.7580   -0.8460 C.2     1  UNL1        0.0040
     10  C          5.3440    0.5590    1.7150 C.2     1  UNL1        0.0000
     11  C          5.4500    1.7820   -0.3250 C.2     1  UNL1        0.0000
     12  C          5.0140    1.6680    0.9770 C.2     1  UNL1        0.0000
@<TRIPOS>BOND
     1     5     4    1
     2     4     2    1
     3     3     2    2
     4     2     1    1
     5     1     6    1
     6     9    11    1
     7     9     7    2
     8     6     7    1
     9    11    12    2
    10     7     8    1
    11    12    10    1
    12     8    10    2
