MODEL 1
REMARK VINA RESULT:      -7.4      0.000      0.000
REMARK SMILES O=C(O)CCc1ccccc1
REMARK SMILES IDX 4 1 2 2 1 3 3 4 5 6 6 7 7 8 11 9 8 10 10 11 9 12
REMARK H PARENT 3 5
REMARK Flexibility Score: inf
ROOT
ATOM      1  C   UNL     1       8.437  -0.669  -2.057  1.00  0.00     0.127 C 
ENDROOT
BRANCH   1   2
ATOM      2  C   UNL     1       8.476  -1.906  -2.872  1.00  0.00     0.303 C 
ATOM      3  O   UNL     1       9.559  -2.499  -3.104  1.00  0.00    -0.252 OA
BRANCH   2   4
ATOM      4  O   UNL     1       7.315  -2.444  -3.402  1.00  0.00    -0.481 OA
ATOM      5  H   UNL     1       7.139  -3.449  -3.307  1.00  0.00     0.296 HD
ENDBRANCH   2   4
ENDBRANCH   1   2
BRANCH   1   6
ATOM      6  C   UNL     1       7.038  -0.133  -2.082  1.00  0.00     0.047 C 
BRANCH   6   7
ATOM      7  C   UNL     1       6.461   0.084  -0.756  1.00  0.00    -0.047 A 
ATOM      8  C   UNL     1       5.808   1.257  -0.457  1.00  0.00     0.004 A 
ATOM      9  C   UNL     1       6.576  -0.902   0.196  1.00  0.00     0.004 A 
ATOM     10  C   UNL     1       5.281   1.396   0.829  1.00  0.00     0.000 A 
ATOM     11  C   UNL     1       6.054  -0.764   1.467  1.00  0.00     0.000 A 
ATOM     12  C   UNL     1       5.399   0.409   1.775  1.00  0.00     0.000 A 
ENDBRANCH   6   7
ENDBRANCH   1   6
TORSDOF 4
ENDMDL
MODEL 2
REMARK VINA RESULT:      -7.3      0.123      1.730
REMARK SMILES O=C(O)CCc1ccccc1
REMARK SMILES IDX 4 1 2 2 1 3 3 4 5 6 6 7 7 8 11 9 8 10 10 11 9 12
REMARK H PARENT 3 5
REMARK Flexibility Score: inf
ROOT
ATOM      1  C   UNL     1       8.463  -0.660  -2.069  1.00  0.00     0.127 C 
ENDROOT
BRANCH   1   2
ATOM      2  C   UNL     1       8.405  -1.901  -2.875  1.00  0.00     0.303 C 
ATOM      3  O   UNL     1       7.307  -2.407  -3.215  1.00  0.00    -0.252 OA
BRANCH   2   4
ATOM      4  O   UNL     1       9.567  -2.541  -3.278  1.00  0.00    -0.481 OA
ATOM      5  H   UNL     1      10.455  -2.295  -2.832  1.00  0.00     0.296 HD
ENDBRANCH   2   4
ENDBRANCH   1   2
BRANCH   1   6
ATOM      6  C   UNL     1       7.105  -0.026  -2.082  1.00  0.00     0.047 C 
BRANCH   6   7
ATOM      7  C   UNL     1       6.508   0.128  -0.757  1.00  0.00    -0.047 A 
ATOM      8  C   UNL     1       6.679  -0.838   0.208  1.00  0.00     0.004 A 
ATOM      9  C   UNL     1       5.770   1.255  -0.480  1.00  0.00     0.004 A 
ATOM     10  C   UNL     1       6.081  -0.624   1.452  1.00  0.00     0.000 A 
ATOM     11  C   UNL     1       5.179   1.465   0.751  1.00  0.00     0.000 A 
ATOM     12  C   UNL     1       5.345   0.503   1.723  1.00  0.00     0.000 A 
ENDBRANCH   6   7
ENDBRANCH   1   6
TORSDOF 4
ENDMDL
MODEL 3
REMARK VINA RESULT:      -7.3      0.600      1.597
REMARK SMILES O=C(O)CCc1ccccc1
REMARK SMILES IDX 4 1 2 2 1 3 3 4 5 6 6 7 7 8 11 9 8 10 10 11 9 12
REMARK H PARENT 3 5
REMARK Flexibility Score: inf
ROOT
ATOM      1  C   UNL     1       8.221  -0.916  -1.860  1.00  0.00     0.127 C 
ENDROOT
BRANCH   1   2
ATOM      2  C   UNL     1       8.371  -2.021  -2.836  1.00  0.00     0.303 C 
ATOM      3  O   UNL     1       9.492  -2.535  -3.070  1.00  0.00    -0.252 OA
BRANCH   2   4
ATOM      4  O   UNL     1       7.273  -2.518  -3.519  1.00  0.00    -0.481 OA
ATOM      5  H   UNL     1       7.160  -2.300  -4.513  1.00  0.00     0.296 HD
ENDBRANCH   2   4
ENDBRANCH   1   2
BRANCH   1   6
ATOM      6  C   UNL     1       7.366  -1.400  -0.729  1.00  0.00     0.047 C 
BRANCH   6   7
ATOM      7  C   UNL     1       6.550  -0.356  -0.111  1.00  0.00    -0.047 A 
ATOM      8  C   UNL     1       6.119  -0.477   1.190  1.00  0.00     0.004 A 
ATOM      9  C   UNL     1       6.216   0.758  -0.846  1.00  0.00     0.004 A 
ATOM     10  C   UNL     1       5.344   0.559   1.715  1.00  0.00     0.000 A 
ATOM     11  C   UNL     1       5.450   1.782  -0.325  1.00  0.00     0.000 A 
ATOM     12  C   UNL     1       5.014   1.668   0.977  1.00  0.00     0.000 A 
ENDBRANCH   6   7
ENDBRANCH   1   6
TORSDOF 4
ENDMDL
MODEL 4
REMARK VINA RESULT:      -6.8      3.372      5.086
REMARK SMILES O=C(O)CCc1ccccc1
REMARK SMILES IDX 4 1 2 2 1 3 3 4 5 6 6 7 7 8 11 9 8 10 10 11 9 12
REMARK H PARENT 3 5
REMARK Flexibility Score: inf
ROOT
ATOM      1  C   UNL     1       5.004   1.829   0.718  1.00  0.00     0.127 C 
ENDROOT
BRANCH   1   2
ATOM      2  C   UNL     1       4.484   1.126   1.915  1.00  0.00     0.303 C 
ATOM      3  O   UNL     1       5.141   0.210   2.469  1.00  0.00    -0.252 OA
BRANCH   2   4
ATOM      4  O   UNL     1       3.254   1.462   2.457  1.00  0.00    -0.481 OA
ATOM      5  H   UNL     1       2.950   2.440   2.443  1.00  0.00     0.296 HD
ENDBRANCH   2   4
ENDBRANCH   1   2
BRANCH   1   6
ATOM      6  C   UNL     1       6.501   1.795   0.766  1.00  0.00     0.047 C 
BRANCH   6   7
ATOM      7  C   UNL     1       7.114   1.049  -0.332  1.00  0.00    -0.047 A 
ATOM      8  C   UNL     1       6.372   0.168  -1.083  1.00  0.00     0.004 A 
ATOM      9  C   UNL     1       8.448   1.239  -0.610  1.00  0.00     0.004 A 
ATOM     10  C   UNL     1       7.023  -0.510  -2.117  1.00  0.00     0.000 A 
ATOM     11  C   UNL     1       9.090   0.568  -1.632  1.00  0.00     0.000 A 
ATOM     12  C   UNL     1       8.354  -0.317  -2.389  1.00  0.00     0.000 A 
ENDBRANCH   6   7
ENDBRANCH   1   6
TORSDOF 4
ENDMDL
MODEL 5
REMARK VINA RESULT:      -6.7      1.904      2.646
REMARK SMILES O=C(O)CCc1ccccc1
REMARK SMILES IDX 4 1 2 2 1 3 3 4 5 6 6 7 7 8 11 9 8 10 10 11 9 12
REMARK H PARENT 3 5
REMARK Flexibility Score: inf
ROOT
ATOM      1  C   UNL     1       8.207   0.240  -2.229  1.00  0.00     0.127 C 
ENDROOT
BRANCH   1   2
ATOM      2  C   UNL     1       9.332   0.357  -1.272  1.00  0.00     0.303 C 
ATOM      3  O   UNL     1       9.435  -0.419  -0.290  1.00  0.00    -0.252 OA
BRANCH   2   4
ATOM      4  O   UNL     1      10.304   1.331  -1.435  1.00  0.00    -0.481 OA
ATOM      5  H   UNL     1      10.022   2.311  -1.526  1.00  0.00     0.296 HD
ENDBRANCH   2   4
ENDBRANCH   1   2
BRANCH   1   6
ATOM      6  C   UNL     1       7.098  -0.514  -1.562  1.00  0.00     0.047 C 
BRANCH   6   7
ATOM      7  C   UNL     1       6.332   0.280  -0.603  1.00  0.00    -0.047 A 
ATOM      8  C   UNL     1       6.122  -0.175   0.678  1.00  0.00     0.004 A 
ATOM      9  C   UNL     1       5.820   1.495  -0.995  1.00  0.00     0.004 A 
ATOM     10  C   UNL     1       5.382   0.637   1.541  1.00  0.00     0.000 A 
ATOM     11  C   UNL     1       5.088   2.296  -0.141  1.00  0.00     0.000 A 
ATOM     12  C   UNL     1       4.873   1.848   1.144  1.00  0.00     0.000 A 
ENDBRANCH   6   7
ENDBRANCH   1   6
TORSDOF 4
ENDMDL
