@<TRIPOS>MOLECULE
/home/cewinharhar/GITHUB/reincatalyze/data/processed/docking_pred/2023-Apr-26-1657_maxeplen10_maxtrainstep1000_exh32_gamma099_lrac9e-4_lrcr1e-3/a1c3c4a97d6bd518e48ffa0772dda1f342f6565e_ligand_2.pdbqt
 12 12 0 0 0
SMALL
GASTEIGER

@<TRIPOS>ATOM
      1  C          8.4370   -0.6690   -2.0570 C.3     1  UNL1        0.1270
      2  C          8.4760   -1.9060   -2.8720 C.2     1  UNL1        0.3030
      3  O          9.5590   -2.4990   -3.1040 O.2     1  UNL1       -0.2520
      4  O          7.3150   -2.4440   -3.4020 O.3     1  UNL1       -0.4810
      5  H          7.1390   -3.4490   -3.3070 H       1  UNL1        0.2960
      6  C          7.0380   -0.1330   -2.0820 C.3     1  UNL1        0.0470
      7  C          6.4610    0.0840   -0.7560 C.2     1  UNL1       -0.0470
      8  C          5.8080    1.2570   -0.4570 C.2     1  UNL1        0.0040
      9  C          6.5760   -0.9020    0.1960 C.2     1  UNL1        0.0040
     10  C          5.2810    1.3960    0.8290 C.2     1  UNL1        0.0000
     11  C          6.0540   -0.7640    1.4670 C.2     1  UNL1        0.0000
     12  C          5.3990    0.4090    1.7750 C.2     1  UNL1        0.0000
@<TRIPOS>BOND
     1     4     5    1
     2     4     2    1
     3     3     2    2
     4     2     1    1
     5     6     1    1
     6     6     7    1
     7     7     8    2
     8     7     9    1
     9     8    10    1
    10     9    11    2
    11    10    12    2
    12    11    12    1
