@<TRIPOS>MOLECULE
/home/cewinharhar/GITHUB/reincatalyze/data/processed/docking_pred/2023-Apr-26-1657_maxeplen10_maxtrainstep1000_exh32_gamma099_lrac9e-4_lrcr1e-3/a450f47ca4f24610d4ad642e19216dd37a68a7e2_ligand_2.pdbqt
 12 12 0 0 0
SMALL
GASTEIGER

@<TRIPOS>ATOM
      1  C          4.9930    1.7740    0.6860 C.3     1  UNL1        0.1270
      2  C          4.4820    1.1030    1.9040 C.2     1  UNL1        0.3030
      3  O          5.1370    0.1930    2.4700 O.2     1  UNL1       -0.2520
      4  O          3.2620    1.4620    2.4540 O.3     1  UNL1       -0.4810
      5  H          2.4180    0.9500    2.1810 H       1  UNL1        0.2960
      6  C          6.4900    1.7950    0.7540 C.3     1  UNL1        0.0470
      7  C          7.1440    1.0600   -0.3270 C.2     1  UNL1       -0.0470
      8  C          8.4790    1.2510   -0.6000 C.2     1  UNL1        0.0040
      9  C          6.4090    0.1680   -1.0730 C.2     1  UNL1        0.0040
     10  C          9.0380    0.5140   -1.6470 C.2     1  UNL1        0.0000
     11  C          6.9630   -0.5600   -2.1070 C.2     1  UNL1        0.0000
     12  C          8.3000   -0.3740   -2.3880 C.2     1  UNL1        0.0000
@<TRIPOS>BOND
     1    12    11    2
     2    12    10    1
     3    11     9    1
     4    10     8    2
     5     9     7    2
     6     8     7    1
     7     7     6    1
     8     1     6    1
     9     1     2    1
    10     2     4    1
    11     2     3    2
    12     5     4    1
