@<TRIPOS>MOLECULE
/home/cewinharhar/GITHUB/reincatalyze/data/processed/docking_pred/2023-Apr-26-1657_maxeplen10_maxtrainstep1000_exh32_gamma099_lrac9e-4_lrcr1e-3/a450f47ca4f24610d4ad642e19216dd37a68a7e2_ligand_2.pdbqt
 12 12 0 0 0
SMALL
GASTEIGER

@<TRIPOS>ATOM
      1  C          8.2240   -1.4570    1.0000 C.3     1  UNL1        0.1270
      2  C          8.4730   -2.7210    0.2670 C.2     1  UNL1        0.3030
      3  O          9.0570   -3.6870    0.8160 O.2     1  UNL1       -0.2520
      4  O          8.0670   -2.8700   -1.0500 O.3     1  UNL1       -0.4810
      5  H          7.6540   -3.7570   -1.3490 H       1  UNL1        0.2960
      6  C          6.7530   -1.3450    1.2590 C.3     1  UNL1        0.0470
      7  C          6.1580   -0.0980    0.7820 C.2     1  UNL1       -0.0470
      8  C          5.3600    0.6610    1.6060 C.2     1  UNL1        0.0040
      9  C          6.4060    0.3140   -0.5070 C.2     1  UNL1        0.0040
     10  C          4.8260    1.8420    1.0840 C.2     1  UNL1        0.0000
     11  C          5.8770    1.4810   -1.0220 C.2     1  UNL1        0.0000
     12  C          5.0760    2.2470   -0.2020 C.2     1  UNL1        0.0000
@<TRIPOS>BOND
     1     5     4    1
     2     4     2    1
     3    11     9    1
     4    11    12    2
     5     9     7    2
     6    12    10    1
     7     2     3    2
     8     2     1    1
     9     7     6    1
    10     7     8    1
    11     1     6    1
    12    10     8    2
