@<TRIPOS>MOLECULE
/home/cewinharhar/GITHUB/reincatalyze/data/processed/docking_pred/2023-Apr-26-1657_maxeplen10_maxtrainstep1000_exh32_gamma099_lrac9e-4_lrcr1e-3/a450f47ca4f24610d4ad642e19216dd37a68a7e2_ligand_2.pdbqt
 12 12 0 0 0
SMALL
GASTEIGER

@<TRIPOS>ATOM
      1  C          8.4260   -0.5960   -2.1780 C.3     1  UNL1        0.1270
      2  C          8.4750   -1.8830   -2.9100 C.2     1  UNL1        0.3030
      3  O          9.5590   -2.4920   -3.0840 O.2     1  UNL1       -0.2520
      4  O          7.3210   -2.4520   -3.4240 O.3     1  UNL1       -0.4810
      5  H          7.3860   -3.0710   -4.2360 H       1  UNL1        0.2960
      6  C          7.0040   -0.1250   -2.1470 C.3     1  UNL1        0.0470
      7  C          6.4670    0.0580   -0.7990 C.2     1  UNL1       -0.0470
      8  C          5.8340    1.2280   -0.4470 C.2     1  UNL1        0.0040
      9  C          6.6000   -0.9570    0.1200 C.2     1  UNL1        0.0040
     10  C          5.3450    1.3330    0.8570 C.2     1  UNL1        0.0000
     11  C          6.1170   -0.8500    1.4090 C.2     1  UNL1        0.0000
     12  C          5.4820    0.3180    1.7700 C.2     1  UNL1        0.0000
@<TRIPOS>BOND
     1     5     4    1
     2     4     2    1
     3     3     2    2
     4     2     1    1
     5     1     6    1
     6     6     7    1
     7     7     8    2
     8     7     9    1
     9     8    10    1
    10     9    11    2
    11    10    12    2
    12    11    12    1
