@<TRIPOS>MOLECULE
/home/cewinharhar/GITHUB/reincatalyze/data/processed/docking_pred/2023-Apr-26-1657_maxeplen10_maxtrainstep1000_exh32_gamma099_lrac9e-4_lrcr1e-3/a450f47ca4f24610d4ad642e19216dd37a68a7e2_ligand_2.pdbqt
 12 12 0 0 0
SMALL
GASTEIGER

@<TRIPOS>ATOM
      1  C          5.5110    2.8870   -0.0390 C.3     1  UNL1        0.1270
      2  C          6.2520    3.8800    0.7750 C.2     1  UNL1        0.3030
      3  O          6.9480    4.7750    0.2350 O.2     1  UNL1       -0.2520
      4  O          6.1960    3.8470    2.1590 O.3     1  UNL1       -0.4810
      5  H          5.3780    4.2350    2.6370 H       1  UNL1        0.2960
      6  C          4.9310    1.8610    0.8850 C.3     1  UNL1        0.0470
      7  C          5.6980    0.6180    0.9510 C.2     1  UNL1       -0.0470
      8  C          5.7510   -0.1150    2.1140 C.2     1  UNL1        0.0040
      9  C          6.3710    0.1850   -0.1680 C.2     1  UNL1        0.0040
     10  C          6.5030   -1.2920    2.1040 C.2     1  UNL1        0.0000
     11  C          7.1140   -0.9790   -0.1760 C.2     1  UNL1        0.0000
     12  C          7.1720   -1.7200    0.9850 C.2     1  UNL1        0.0000
@<TRIPOS>BOND
     1    11     9    1
     2    11    12    2
     3     9     7    2
     4     1     2    1
     5     1     6    1
     6     3     2    2
     7     2     4    1
     8     6     7    1
     9     7     8    1
    10    12    10    1
    11    10     8    2
    12     4     5    1
