MODEL 1
REMARK VINA RESULT:      -7.3      0.000      0.000
REMARK SMILES O=C(O)CCc1ccccc1
REMARK SMILES IDX 4 1 2 2 1 3 3 4 5 6 6 7 7 8 11 9 8 10 10 11 9 12
REMARK H PARENT 3 5
REMARK Flexibility Score: inf
ROOT
ATOM      1  C   UNL     1       8.426  -0.596  -2.178  1.00  0.00     0.127 C 
ENDROOT
BRANCH   1   2
ATOM      2  C   UNL     1       8.475  -1.883  -2.910  1.00  0.00     0.303 C 
ATOM      3  O   UNL     1       9.559  -2.492  -3.084  1.00  0.00    -0.252 OA
BRANCH   2   4
ATOM      4  O   UNL     1       7.321  -2.452  -3.424  1.00  0.00    -0.481 OA
ATOM      5  H   UNL     1       7.386  -3.071  -4.236  1.00  0.00     0.296 HD
ENDBRANCH   2   4
ENDBRANCH   1   2
BRANCH   1   6
ATOM      6  C   UNL     1       7.004  -0.125  -2.147  1.00  0.00     0.047 C 
BRANCH   6   7
ATOM      7  C   UNL     1       6.467   0.058  -0.799  1.00  0.00    -0.047 A 
ATOM      8  C   UNL     1       5.834   1.228  -0.447  1.00  0.00     0.004 A 
ATOM      9  C   UNL     1       6.600  -0.957   0.120  1.00  0.00     0.004 A 
ATOM     10  C   UNL     1       5.345   1.333   0.857  1.00  0.00     0.000 A 
ATOM     11  C   UNL     1       6.117  -0.850   1.409  1.00  0.00     0.000 A 
ATOM     12  C   UNL     1       5.482   0.318   1.770  1.00  0.00     0.000 A 
ENDBRANCH   6   7
ENDBRANCH   1   6
TORSDOF 4
ENDMDL
MODEL 2
REMARK VINA RESULT:      -7.3      0.134      1.442
REMARK SMILES O=C(O)CCc1ccccc1
REMARK SMILES IDX 4 1 2 2 1 3 3 4 5 6 6 7 7 8 11 9 8 10 10 11 9 12
REMARK H PARENT 3 5
REMARK Flexibility Score: inf
ROOT
ATOM      1  C   UNL     1       8.567  -0.687  -2.041  1.00  0.00     0.127 C 
ENDROOT
BRANCH   1   2
ATOM      2  C   UNL     1       8.540  -1.904  -2.886  1.00  0.00     0.303 C 
ATOM      3  O   UNL     1       9.593  -2.533  -3.154  1.00  0.00    -0.252 OA
BRANCH   2   4
ATOM      4  O   UNL     1       7.348  -2.382  -3.405  1.00  0.00    -0.481 OA
ATOM      5  H   UNL     1       6.842  -3.117  -2.903  1.00  0.00     0.296 HD
ENDBRANCH   2   4
ENDBRANCH   1   2
BRANCH   1   6
ATOM      6  C   UNL     1       7.206  -0.062  -2.072  1.00  0.00     0.047 C 
BRANCH   6   7
ATOM      7  C   UNL     1       6.581   0.068  -0.757  1.00  0.00    -0.047 A 
ATOM      8  C   UNL     1       6.678  -0.943   0.171  1.00  0.00     0.004 A 
ATOM      9  C   UNL     1       5.891   1.218  -0.452  1.00  0.00     0.004 A 
ATOM     10  C   UNL     1       6.057  -0.751   1.407  1.00  0.00     0.000 A 
ATOM     11  C   UNL     1       5.277   1.407   0.770  1.00  0.00     0.000 A 
ATOM     12  C   UNL     1       5.369   0.398   1.705  1.00  0.00     0.000 A 
ENDBRANCH   6   7
ENDBRANCH   1   6
TORSDOF 4
ENDMDL
MODEL 3
REMARK VINA RESULT:      -6.8      3.382      5.053
REMARK SMILES O=C(O)CCc1ccccc1
REMARK SMILES IDX 4 1 2 2 1 3 3 4 5 6 6 7 7 8 11 9 8 10 10 11 9 12
REMARK H PARENT 3 5
REMARK Flexibility Score: inf
ROOT
ATOM      1  C   UNL     1       4.993   1.774   0.686  1.00  0.00     0.127 C 
ENDROOT
BRANCH   1   2
ATOM      2  C   UNL     1       4.482   1.103   1.904  1.00  0.00     0.303 C 
ATOM      3  O   UNL     1       5.137   0.193   2.470  1.00  0.00    -0.252 OA
BRANCH   2   4
ATOM      4  O   UNL     1       3.262   1.462   2.454  1.00  0.00    -0.481 OA
ATOM      5  H   UNL     1       2.418   0.950   2.181  1.00  0.00     0.296 HD
ENDBRANCH   2   4
ENDBRANCH   1   2
BRANCH   1   6
ATOM      6  C   UNL     1       6.490   1.795   0.754  1.00  0.00     0.047 C 
BRANCH   6   7
ATOM      7  C   UNL     1       7.144   1.060  -0.327  1.00  0.00    -0.047 A 
ATOM      8  C   UNL     1       8.479   1.251  -0.600  1.00  0.00     0.004 A 
ATOM      9  C   UNL     1       6.409   0.168  -1.073  1.00  0.00     0.004 A 
ATOM     10  C   UNL     1       9.038   0.514  -1.647  1.00  0.00     0.000 A 
ATOM     11  C   UNL     1       6.963  -0.560  -2.107  1.00  0.00     0.000 A 
ATOM     12  C   UNL     1       8.300  -0.374  -2.388  1.00  0.00     0.000 A 
ENDBRANCH   6   7
ENDBRANCH   1   6
TORSDOF 4
ENDMDL
MODEL 4
REMARK VINA RESULT:      -6.7      3.822      4.971
REMARK SMILES O=C(O)CCc1ccccc1
REMARK SMILES IDX 4 1 2 2 1 3 3 4 5 6 6 7 7 8 11 9 8 10 10 11 9 12
REMARK H PARENT 3 5
REMARK Flexibility Score: inf
ROOT
ATOM      1  C   UNL     1       5.511   2.887  -0.039  1.00  0.00     0.127 C 
ENDROOT
BRANCH   1   2
ATOM      2  C   UNL     1       6.252   3.880   0.775  1.00  0.00     0.303 C 
ATOM      3  O   UNL     1       6.948   4.775   0.235  1.00  0.00    -0.252 OA
BRANCH   2   4
ATOM      4  O   UNL     1       6.196   3.847   2.159  1.00  0.00    -0.481 OA
ATOM      5  H   UNL     1       5.378   4.235   2.637  1.00  0.00     0.296 HD
ENDBRANCH   2   4
ENDBRANCH   1   2
BRANCH   1   6
ATOM      6  C   UNL     1       4.931   1.861   0.885  1.00  0.00     0.047 C 
BRANCH   6   7
ATOM      7  C   UNL     1       5.698   0.618   0.951  1.00  0.00    -0.047 A 
ATOM      8  C   UNL     1       5.751  -0.115   2.114  1.00  0.00     0.004 A 
ATOM      9  C   UNL     1       6.371   0.185  -0.168  1.00  0.00     0.004 A 
ATOM     10  C   UNL     1       6.503  -1.292   2.104  1.00  0.00     0.000 A 
ATOM     11  C   UNL     1       7.114  -0.979  -0.176  1.00  0.00     0.000 A 
ATOM     12  C   UNL     1       7.172  -1.720   0.985  1.00  0.00     0.000 A 
ENDBRANCH   6   7
ENDBRANCH   1   6
TORSDOF 4
ENDMDL
MODEL 5
REMARK VINA RESULT:      -6.5      1.863      2.817
REMARK SMILES O=C(O)CCc1ccccc1
REMARK SMILES IDX 4 1 2 2 1 3 3 4 5 6 6 7 7 8 11 9 8 10 10 11 9 12
REMARK H PARENT 3 5
REMARK Flexibility Score: inf
ROOT
ATOM      1  C   UNL     1       8.224  -1.457   1.000  1.00  0.00     0.127 C 
ENDROOT
BRANCH   1   2
ATOM      2  C   UNL     1       8.473  -2.721   0.267  1.00  0.00     0.303 C 
ATOM      3  O   UNL     1       9.057  -3.687   0.816  1.00  0.00    -0.252 OA
BRANCH   2   4
ATOM      4  O   UNL     1       8.067  -2.870  -1.050  1.00  0.00    -0.481 OA
ATOM      5  H   UNL     1       7.654  -3.757  -1.349  1.00  0.00     0.296 HD
ENDBRANCH   2   4
ENDBRANCH   1   2
BRANCH   1   6
ATOM      6  C   UNL     1       6.753  -1.345   1.259  1.00  0.00     0.047 C 
BRANCH   6   7
ATOM      7  C   UNL     1       6.158  -0.098   0.782  1.00  0.00    -0.047 A 
ATOM      8  C   UNL     1       5.360   0.661   1.606  1.00  0.00     0.004 A 
ATOM      9  C   UNL     1       6.406   0.314  -0.507  1.00  0.00     0.004 A 
ATOM     10  C   UNL     1       4.826   1.842   1.084  1.00  0.00     0.000 A 
ATOM     11  C   UNL     1       5.877   1.481  -1.022  1.00  0.00     0.000 A 
ATOM     12  C   UNL     1       5.076   2.247  -0.202  1.00  0.00     0.000 A 
ENDBRANCH   6   7
ENDBRANCH   1   6
TORSDOF 4
ENDMDL
