@<TRIPOS>MOLECULE
/home/cewinharhar/GITHUB/reincatalyze/data/processed/docking_pred/2023-Apr-26-1657_maxeplen10_maxtrainstep1000_exh32_gamma099_lrac9e-4_lrcr1e-3/a450f47ca4f24610d4ad642e19216dd37a68a7e2_ligand_2.pdbqt
 12 12 0 0 0
SMALL
GASTEIGER

@<TRIPOS>ATOM
      1  C          8.5670   -0.6870   -2.0410 C.3     1  UNL1        0.1270
      2  C          8.5400   -1.9040   -2.8860 C.2     1  UNL1        0.3030
      3  O          9.5930   -2.5330   -3.1540 O.2     1  UNL1       -0.2520
      4  O          7.3480   -2.3820   -3.4050 O.3     1  UNL1       -0.4810
      5  H          6.8420   -3.1170   -2.9030 H       1  UNL1        0.2960
      6  C          7.2060   -0.0620   -2.0720 C.3     1  UNL1        0.0470
      7  C          6.5810    0.0680   -0.7570 C.2     1  UNL1       -0.0470
      8  C          6.6780   -0.9430    0.1710 C.2     1  UNL1        0.0040
      9  C          5.8910    1.2180   -0.4520 C.2     1  UNL1        0.0040
     10  C          6.0570   -0.7510    1.4070 C.2     1  UNL1        0.0000
     11  C          5.2770    1.4070    0.7700 C.2     1  UNL1        0.0000
     12  C          5.3690    0.3980    1.7050 C.2     1  UNL1        0.0000
@<TRIPOS>BOND
     1     4     5    1
     2     4     2    1
     3     3     2    2
     4     2     1    1
     5     6     1    1
     6     6     7    1
     7     7     9    2
     8     7     8    1
     9     9    11    1
    10     8    10    2
    11    11    12    2
    12    10    12    1
