@<TRIPOS>MOLECULE
/home/cewinharhar/GITHUB/reincatalyze/data/processed/docking_pred/2023-Apr-26-1657_maxeplen10_maxtrainstep1000_exh32_gamma099_lrac9e-4_lrcr1e-3/a5b16c92fd7591d551db5a31bdb9c28d24e6a5b8_ligand_2.pdbqt
 12 12 0 0 0
SMALL
GASTEIGER

@<TRIPOS>ATOM
      1  C          8.2470   -0.9010   -1.9290 C.3     1  UNL1        0.1270
      2  C          8.3730   -2.0390   -2.8700 C.2     1  UNL1        0.3030
      3  O          9.4850   -2.5770   -3.0960 O.2     1  UNL1       -0.2520
      4  O          7.2620   -2.5420   -3.5280 O.3     1  UNL1       -0.4810
      5  H          7.3710   -2.9370   -4.4660 H       1  UNL1        0.2960
      6  C          7.4660   -1.3600   -0.7360 C.3     1  UNL1        0.0470
      7  C          6.6100   -0.3270   -0.1530 C.2     1  UNL1       -0.0470
      8  C          6.2510    0.7820   -0.8820 C.2     1  UNL1        0.0040
      9  C          6.1630   -0.4770    1.1390 C.2     1  UNL1        0.0040
     10  C          5.4300    1.7270   -0.2610 C.2     1  UNL1        0.0000
     11  C          5.3530    0.4580    1.7510 C.2     1  UNL1        0.0000
     12  C          4.9880    1.5730    1.0290 C.2     1  UNL1        0.0000
@<TRIPOS>BOND
     1     5     4    1
     2     4     2    1
     3     3     2    2
     4     2     1    1
     5     1     6    1
     6     8    10    1
     7     8     7    2
     8     6     7    1
     9    10    12    2
    10     7     9    1
    11    12    11    1
    12     9    11    2
