@<TRIPOS>MOLECULE
/home/cewinharhar/GITHUB/reincatalyze/data/processed/docking_pred/2023-Apr-26-1657_maxeplen10_maxtrainstep1000_exh32_gamma099_lrac9e-4_lrcr1e-3/a5b16c92fd7591d551db5a31bdb9c28d24e6a5b8_ligand_2.pdbqt
 12 12 0 0 0
SMALL
GASTEIGER

@<TRIPOS>ATOM
      1  C          8.3980   -0.6540   -2.0880 C.3     1  UNL1        0.1270
      2  C          8.3750   -1.9080   -2.8770 C.2     1  UNL1        0.3030
      3  O          7.2910   -2.4180   -3.2560 O.2     1  UNL1       -0.2520
      4  O          9.5520   -2.5530   -3.2210 O.3     1  UNL1       -0.4810
      5  H          9.9660   -2.3830   -4.1420 H       1  UNL1        0.2960
      6  C          7.0120   -0.0860   -2.0640 C.3     1  UNL1        0.0470
      7  C          6.4520    0.0610   -0.7220 C.2     1  UNL1       -0.0470
      8  C          6.5680   -0.9510    0.2030 C.2     1  UNL1        0.0040
      9  C          5.8060    1.2280   -0.3870 C.2     1  UNL1        0.0040
     10  C          6.0100   -0.7420    1.4660 C.2     1  UNL1        0.0000
     11  C          5.2550    1.4340    0.8620 C.2     1  UNL1        0.0000
     12  C          5.3660    0.4250    1.7940 C.2     1  UNL1        0.0000
@<TRIPOS>BOND
     1     5     4    1
     2     3     2    2
     3     4     2    1
     4     2     1    1
     5     1     6    1
     6     6     7    1
     7     7     9    2
     8     7     8    1
     9     9    11    1
    10     8    10    2
    11    11    12    2
    12    10    12    1
