MODEL 1
REMARK VINA RESULT:      -7.3      0.000      0.000
REMARK SMILES O=C(O)CCc1ccccc1
REMARK SMILES IDX 4 1 2 2 1 3 3 4 5 6 6 7 7 8 11 9 8 10 10 11 9 12
REMARK H PARENT 3 5
REMARK Flexibility Score: inf
ROOT
ATOM      1  C   UNL     1       8.400  -0.538  -2.246  1.00  0.00     0.127 C 
ENDROOT
BRANCH   1   2
ATOM      2  C   UNL     1       8.465  -1.867  -2.899  1.00  0.00     0.303 C 
ATOM      3  O   UNL     1       9.556  -2.476  -3.028  1.00  0.00    -0.252 OA
BRANCH   2   4
ATOM      4  O   UNL     1       7.320  -2.474  -3.387  1.00  0.00    -0.481 OA
ATOM      5  H   UNL     1       6.579  -2.745  -2.734  1.00  0.00     0.296 HD
ENDBRANCH   2   4
ENDBRANCH   1   2
BRANCH   1   6
ATOM      6  C   UNL     1       6.964  -0.116  -2.180  1.00  0.00     0.047 C 
BRANCH   6   7
ATOM      7  C   UNL     1       6.458   0.060  -0.819  1.00  0.00    -0.047 A 
ATOM      8  C   UNL     1       5.848   1.233  -0.442  1.00  0.00     0.004 A 
ATOM      9  C   UNL     1       6.597  -0.967   0.086  1.00  0.00     0.004 A 
ATOM     10  C   UNL     1       5.387   1.331   0.873  1.00  0.00     0.000 A 
ATOM     11  C   UNL     1       6.141  -0.868   1.386  1.00  0.00     0.000 A 
ATOM     12  C   UNL     1       5.529   0.304   1.772  1.00  0.00     0.000 A 
ENDBRANCH   6   7
ENDBRANCH   1   6
TORSDOF 4
ENDMDL
MODEL 2
REMARK VINA RESULT:      -7.3      0.156      1.734
REMARK SMILES O=C(O)CCc1ccccc1
REMARK SMILES IDX 4 1 2 2 1 3 3 4 5 6 6 7 7 8 11 9 8 10 10 11 9 12
REMARK H PARENT 3 5
REMARK Flexibility Score: inf
ROOT
ATOM      1  C   UNL     1       8.398  -0.654  -2.088  1.00  0.00     0.127 C 
ENDROOT
BRANCH   1   2
ATOM      2  C   UNL     1       8.375  -1.908  -2.877  1.00  0.00     0.303 C 
ATOM      3  O   UNL     1       7.291  -2.418  -3.256  1.00  0.00    -0.252 OA
BRANCH   2   4
ATOM      4  O   UNL     1       9.552  -2.553  -3.221  1.00  0.00    -0.481 OA
ATOM      5  H   UNL     1       9.966  -2.383  -4.142  1.00  0.00     0.296 HD
ENDBRANCH   2   4
ENDBRANCH   1   2
BRANCH   1   6
ATOM      6  C   UNL     1       7.012  -0.086  -2.064  1.00  0.00     0.047 C 
BRANCH   6   7
ATOM      7  C   UNL     1       6.452   0.061  -0.722  1.00  0.00    -0.047 A 
ATOM      8  C   UNL     1       6.568  -0.951   0.203  1.00  0.00     0.004 A 
ATOM      9  C   UNL     1       5.806   1.228  -0.387  1.00  0.00     0.004 A 
ATOM     10  C   UNL     1       6.010  -0.742   1.466  1.00  0.00     0.000 A 
ATOM     11  C   UNL     1       5.255   1.434   0.862  1.00  0.00     0.000 A 
ATOM     12  C   UNL     1       5.366   0.425   1.794  1.00  0.00     0.000 A 
ENDBRANCH   6   7
ENDBRANCH   1   6
TORSDOF 4
ENDMDL
MODEL 3
REMARK VINA RESULT:      -7.2      0.651      1.102
REMARK SMILES O=C(O)CCc1ccccc1
REMARK SMILES IDX 4 1 2 2 1 3 3 4 5 6 6 7 7 8 11 9 8 10 10 11 9 12
REMARK H PARENT 3 5
REMARK Flexibility Score: inf
ROOT
ATOM      1  C   UNL     1       8.247  -0.901  -1.929  1.00  0.00     0.127 C 
ENDROOT
BRANCH   1   2
ATOM      2  C   UNL     1       8.373  -2.039  -2.870  1.00  0.00     0.303 C 
ATOM      3  O   UNL     1       9.485  -2.577  -3.096  1.00  0.00    -0.252 OA
BRANCH   2   4
ATOM      4  O   UNL     1       7.262  -2.542  -3.528  1.00  0.00    -0.481 OA
ATOM      5  H   UNL     1       7.371  -2.937  -4.466  1.00  0.00     0.296 HD
ENDBRANCH   2   4
ENDBRANCH   1   2
BRANCH   1   6
ATOM      6  C   UNL     1       7.466  -1.360  -0.736  1.00  0.00     0.047 C 
BRANCH   6   7
ATOM      7  C   UNL     1       6.610  -0.327  -0.153  1.00  0.00    -0.047 A 
ATOM      8  C   UNL     1       6.251   0.782  -0.882  1.00  0.00     0.004 A 
ATOM      9  C   UNL     1       6.163  -0.477   1.139  1.00  0.00     0.004 A 
ATOM     10  C   UNL     1       5.430   1.727  -0.261  1.00  0.00     0.000 A 
ATOM     11  C   UNL     1       5.353   0.458   1.751  1.00  0.00     0.000 A 
ATOM     12  C   UNL     1       4.988   1.573   1.029  1.00  0.00     0.000 A 
ENDBRANCH   6   7
ENDBRANCH   1   6
TORSDOF 4
ENDMDL
MODEL 4
REMARK VINA RESULT:      -7.1      0.719      1.909
REMARK SMILES O=C(O)CCc1ccccc1
REMARK SMILES IDX 4 1 2 2 1 3 3 4 5 6 6 7 7 8 11 9 8 10 10 11 9 12
REMARK H PARENT 3 5
REMARK Flexibility Score: inf
ROOT
ATOM      1  C   UNL     1       8.315  -1.036  -1.669  1.00  0.00     0.127 C 
ENDROOT
BRANCH   1   2
ATOM      2  C   UNL     1       8.344  -2.013  -2.783  1.00  0.00     0.303 C 
ATOM      3  O   UNL     1       7.283  -2.436  -3.306  1.00  0.00    -0.252 OA
BRANCH   2   4
ATOM      4  O   UNL     1       9.547  -2.490  -3.279  1.00  0.00    -0.481 OA
ATOM      5  H   UNL     1      10.090  -1.906  -3.921  1.00  0.00     0.296 HD
ENDBRANCH   2   4
ENDBRANCH   1   2
BRANCH   1   6
ATOM      6  C   UNL     1       7.273  -1.474  -0.686  1.00  0.00     0.047 C 
BRANCH   6   7
ATOM      7  C   UNL     1       6.500  -0.374  -0.110  1.00  0.00    -0.047 A 
ATOM      8  C   UNL     1       6.056  -0.432   1.191  1.00  0.00     0.004 A 
ATOM      9  C   UNL     1       6.220   0.728  -0.884  1.00  0.00     0.004 A 
ATOM     10  C   UNL     1       5.325   0.654   1.675  1.00  0.00     0.000 A 
ATOM     11  C   UNL     1       5.497   1.801  -0.404  1.00  0.00     0.000 A 
ATOM     12  C   UNL     1       5.048   1.750   0.898  1.00  0.00     0.000 A 
ENDBRANCH   6   7
ENDBRANCH   1   6
TORSDOF 4
ENDMDL
MODEL 5
REMARK VINA RESULT:      -6.8      3.372      5.060
REMARK SMILES O=C(O)CCc1ccccc1
REMARK SMILES IDX 4 1 2 2 1 3 3 4 5 6 6 7 7 8 11 9 8 10 10 11 9 12
REMARK H PARENT 3 5
REMARK Flexibility Score: inf
ROOT
ATOM      1  C   UNL     1       5.000   1.785   0.686  1.00  0.00     0.127 C 
ENDROOT
BRANCH   1   2
ATOM      2  C   UNL     1       4.492   1.113   1.906  1.00  0.00     0.303 C 
ATOM      3  O   UNL     1       5.157   0.213   2.477  1.00  0.00    -0.252 OA
BRANCH   2   4
ATOM      4  O   UNL     1       3.266   1.460   2.449  1.00  0.00    -0.481 OA
ATOM      5  H   UNL     1       2.609   0.721   2.715  1.00  0.00     0.296 HD
ENDBRANCH   2   4
ENDBRANCH   1   2
BRANCH   1   6
ATOM      6  C   UNL     1       6.498   1.772   0.731  1.00  0.00     0.047 C 
BRANCH   6   7
ATOM      7  C   UNL     1       7.118   1.005  -0.348  1.00  0.00    -0.047 A 
ATOM      8  C   UNL     1       6.392   0.079  -1.061  1.00  0.00     0.004 A 
ATOM      9  C   UNL     1       8.443   1.219  -0.648  1.00  0.00     0.004 A 
ATOM     10  C   UNL     1       7.048  -0.616  -2.078  1.00  0.00     0.000 A 
ATOM     11  C   UNL     1       9.091   0.531  -1.654  1.00  0.00     0.000 A 
ATOM     12  C   UNL     1       8.371  -0.399  -2.372  1.00  0.00     0.000 A 
ENDBRANCH   6   7
ENDBRANCH   1   6
TORSDOF 4
ENDMDL
