@<TRIPOS>MOLECULE
/home/cewinharhar/GITHUB/reincatalyze/data/processed/docking_pred/2023-Apr-26-1657_maxeplen10_maxtrainstep1000_exh32_gamma099_lrac9e-4_lrcr1e-3/a5b16c92fd7591d551db5a31bdb9c28d24e6a5b8_ligand_2.pdbqt
 12 12 0 0 0
SMALL
GASTEIGER

@<TRIPOS>ATOM
      1  C          5.0000    1.7850    0.6860 C.3     1  UNL1        0.1270
      2  C          4.4920    1.1130    1.9060 C.2     1  UNL1        0.3030
      3  O          5.1570    0.2130    2.4770 O.2     1  UNL1       -0.2520
      4  O          3.2660    1.4600    2.4490 O.3     1  UNL1       -0.4810
      5  H          2.6090    0.7210    2.7150 H       1  UNL1        0.2960
      6  C          6.4980    1.7720    0.7310 C.3     1  UNL1        0.0470
      7  C          7.1180    1.0050   -0.3480 C.2     1  UNL1       -0.0470
      8  C          6.3920    0.0790   -1.0610 C.2     1  UNL1        0.0040
      9  C          8.4430    1.2190   -0.6480 C.2     1  UNL1        0.0040
     10  C          7.0480   -0.6160   -2.0780 C.2     1  UNL1        0.0000
     11  C          9.0910    0.5310   -1.6540 C.2     1  UNL1        0.0000
     12  C          8.3710   -0.3990   -2.3720 C.2     1  UNL1        0.0000
@<TRIPOS>BOND
     1    12    10    2
     2    12    11    1
     3    10     8    1
     4    11     9    2
     5     8     7    2
     6     9     7    1
     7     7     6    1
     8     1     6    1
     9     1     2    1
    10     2     4    1
    11     2     3    2
    12     4     5    1
