@<TRIPOS>MOLECULE
/home/cewinharhar/GITHUB/reincatalyze/data/processed/docking_pred/2023-Apr-26-1657_maxeplen10_maxtrainstep1000_exh32_gamma099_lrac9e-4_lrcr1e-3/a5b16c92fd7591d551db5a31bdb9c28d24e6a5b8_ligand_2.pdbqt
 12 12 0 0 0
SMALL
GASTEIGER

@<TRIPOS>ATOM
      1  C          8.4000   -0.5380   -2.2460 C.3     1  UNL1        0.1270
      2  C          8.4650   -1.8670   -2.8990 C.2     1  UNL1        0.3030
      3  O          9.5560   -2.4760   -3.0280 O.2     1  UNL1       -0.2520
      4  O          7.3200   -2.4740   -3.3870 O.3     1  UNL1       -0.4810
      5  H          6.5790   -2.7450   -2.7340 H       1  UNL1        0.2960
      6  C          6.9640   -0.1160   -2.1800 C.3     1  UNL1        0.0470
      7  C          6.4580    0.0600   -0.8190 C.2     1  UNL1       -0.0470
      8  C          5.8480    1.2330   -0.4420 C.2     1  UNL1        0.0040
      9  C          6.5970   -0.9670    0.0860 C.2     1  UNL1        0.0040
     10  C          5.3870    1.3310    0.8730 C.2     1  UNL1        0.0000
     11  C          6.1410   -0.8680    1.3860 C.2     1  UNL1        0.0000
     12  C          5.5290    0.3040    1.7720 C.2     1  UNL1        0.0000
@<TRIPOS>BOND
     1     4     2    1
     2     4     5    1
     3     3     2    2
     4     2     1    1
     5     1     6    1
     6     6     7    1
     7     7     8    2
     8     7     9    1
     9     8    10    1
    10     9    11    2
    11    10    12    2
    12    11    12    1
