@<TRIPOS>MOLECULE
/home/cewinharhar/GITHUB/reincatalyze/data/processed/docking_pred/2023-Apr-26-1657_maxeplen10_maxtrainstep1000_exh32_gamma099_lrac9e-4_lrcr1e-3/a5b16c92fd7591d551db5a31bdb9c28d24e6a5b8_ligand_2.pdbqt
 12 12 0 0 0
SMALL
GASTEIGER

@<TRIPOS>ATOM
      1  C          8.3150   -1.0360   -1.6690 C.3     1  UNL1        0.1270
      2  C          8.3440   -2.0130   -2.7830 C.2     1  UNL1        0.3030
      3  O          7.2830   -2.4360   -3.3060 O.2     1  UNL1       -0.2520
      4  O          9.5470   -2.4900   -3.2790 O.3     1  UNL1       -0.4810
      5  H         10.0900   -1.9060   -3.9210 H       1  UNL1        0.2960
      6  C          7.2730   -1.4740   -0.6860 C.3     1  UNL1        0.0470
      7  C          6.5000   -0.3740   -0.1100 C.2     1  UNL1       -0.0470
      8  C          6.0560   -0.4320    1.1910 C.2     1  UNL1        0.0040
      9  C          6.2200    0.7280   -0.8840 C.2     1  UNL1        0.0040
     10  C          5.3250    0.6540    1.6750 C.2     1  UNL1        0.0000
     11  C          5.4970    1.8010   -0.4040 C.2     1  UNL1        0.0000
     12  C          5.0480    1.7500    0.8980 C.2     1  UNL1        0.0000
@<TRIPOS>BOND
     1     5     4    1
     2     3     2    2
     3     4     2    1
     4     2     1    1
     5     1     6    1
     6     9    11    1
     7     9     7    2
     8     6     7    1
     9    11    12    2
    10     7     8    1
    11    12    10    1
    12     8    10    2
