MODEL 1
REMARK VINA RESULT:      -7.4      0.000      0.000
REMARK SMILES O=C(O)CCc1ccccc1
REMARK SMILES IDX 4 1 2 2 1 3 3 4 5 6 6 7 7 8 11 9 8 10 10 11 9 12
REMARK H PARENT 3 5
REMARK Flexibility Score: inf
ROOT
ATOM      1  C   UNL     1       8.469  -0.661  -2.082  1.00  0.00     0.127 C 
ENDROOT
BRANCH   1   2
ATOM      2  C   UNL     1       8.490  -1.920  -2.863  1.00  0.00     0.303 C 
ATOM      3  O   UNL     1       9.560  -2.549  -3.056  1.00  0.00    -0.252 OA
BRANCH   2   4
ATOM      4  O   UNL     1       7.325  -2.440  -3.404  1.00  0.00    -0.481 OA
ATOM      5  H   UNL     1       7.371  -3.294  -3.966  1.00  0.00     0.296 HD
ENDBRANCH   2   4
ENDBRANCH   1   2
BRANCH   1   6
ATOM      6  C   UNL     1       7.074  -0.114  -2.108  1.00  0.00     0.047 C 
BRANCH   6   7
ATOM      7  C   UNL     1       6.486   0.079  -0.784  1.00  0.00    -0.047 A 
ATOM      8  C   UNL     1       5.820   1.241  -0.472  1.00  0.00     0.004 A 
ATOM      9  C   UNL     1       6.605  -0.920   0.155  1.00  0.00     0.004 A 
ATOM     10  C   UNL     1       5.283   1.356   0.812  1.00  0.00     0.000 A 
ATOM     11  C   UNL     1       6.073  -0.804   1.424  1.00  0.00     0.000 A 
ATOM     12  C   UNL     1       5.404   0.357   1.744  1.00  0.00     0.000 A 
ENDBRANCH   6   7
ENDBRANCH   1   6
TORSDOF 4
ENDMDL
MODEL 2
REMARK VINA RESULT:      -7.3      0.085      1.438
REMARK SMILES O=C(O)CCc1ccccc1
REMARK SMILES IDX 4 1 2 2 1 3 3 4 5 6 6 7 7 8 11 9 8 10 10 11 9 12
REMARK H PARENT 3 5
REMARK Flexibility Score: inf
ROOT
ATOM      1  C   UNL     1       8.443  -0.593  -2.171  1.00  0.00     0.127 C 
ENDROOT
BRANCH   1   2
ATOM      2  C   UNL     1       8.470  -1.874  -2.916  1.00  0.00     0.303 C 
ATOM      3  O   UNL     1       9.543  -2.502  -3.092  1.00  0.00    -0.252 OA
BRANCH   2   4
ATOM      4  O   UNL     1       7.307  -2.415  -3.440  1.00  0.00    -0.481 OA
ATOM      5  H   UNL     1       6.664  -2.917  -2.821  1.00  0.00     0.296 HD
ENDBRANCH   2   4
ENDBRANCH   1   2
BRANCH   1   6
ATOM      6  C   UNL     1       7.025  -0.113  -2.112  1.00  0.00     0.047 C 
BRANCH   6   7
ATOM      7  C   UNL     1       6.492   0.004  -0.756  1.00  0.00    -0.047 A 
ATOM      8  C   UNL     1       6.618  -1.032   0.141  1.00  0.00     0.004 A 
ATOM      9  C   UNL     1       5.862   1.167  -0.380  1.00  0.00     0.004 A 
ATOM     10  C   UNL     1       6.087  -0.851   1.420  1.00  0.00     0.000 A 
ATOM     11  C   UNL     1       5.336   1.345   0.885  1.00  0.00     0.000 A 
ATOM     12  C   UNL     1       5.458   0.312   1.789  1.00  0.00     0.000 A 
ENDBRANCH   6   7
ENDBRANCH   1   6
TORSDOF 4
ENDMDL
MODEL 3
REMARK VINA RESULT:      -6.8      3.364      5.071
REMARK SMILES O=C(O)CCc1ccccc1
REMARK SMILES IDX 4 1 2 2 1 3 3 4 5 6 6 7 7 8 11 9 8 10 10 11 9 12
REMARK H PARENT 3 5
REMARK Flexibility Score: inf
ROOT
ATOM      1  C   UNL     1       4.998   1.782   0.681  1.00  0.00     0.127 C 
ENDROOT
BRANCH   1   2
ATOM      2  C   UNL     1       4.494   1.111   1.902  1.00  0.00     0.303 C 
ATOM      3  O   UNL     1       5.161   0.213   2.474  1.00  0.00    -0.252 OA
BRANCH   2   4
ATOM      4  O   UNL     1       3.268   1.456   2.447  1.00  0.00    -0.481 OA
ATOM      5  H   UNL     1       3.204   2.275   3.058  1.00  0.00     0.296 HD
ENDBRANCH   2   4
ENDBRANCH   1   2
BRANCH   1   6
ATOM      6  C   UNL     1       6.496   1.771   0.722  1.00  0.00     0.047 C 
BRANCH   6   7
ATOM      7  C   UNL     1       7.114   1.001  -0.356  1.00  0.00    -0.047 A 
ATOM      8  C   UNL     1       6.384   0.081  -1.072  1.00  0.00     0.004 A 
ATOM      9  C   UNL     1       8.442   1.207  -0.651  1.00  0.00     0.004 A 
ATOM     10  C   UNL     1       7.040  -0.618  -2.088  1.00  0.00     0.000 A 
ATOM     11  C   UNL     1       9.089   0.515  -1.656  1.00  0.00     0.000 A 
ATOM     12  C   UNL     1       8.365  -0.409  -2.377  1.00  0.00     0.000 A 
ENDBRANCH   6   7
ENDBRANCH   1   6
TORSDOF 4
ENDMDL
MODEL 4
REMARK VINA RESULT:      -6.6      1.936      2.233
REMARK SMILES O=C(O)CCc1ccccc1
REMARK SMILES IDX 4 1 2 2 1 3 3 4 5 6 6 7 7 8 11 9 8 10 10 11 9 12
REMARK H PARENT 3 5
REMARK Flexibility Score: inf
ROOT
ATOM      1  C   UNL     1       8.175   0.287  -2.089  1.00  0.00     0.127 C 
ENDROOT
BRANCH   1   2
ATOM      2  C   UNL     1       9.349   0.361  -1.187  1.00  0.00     0.303 C 
ATOM      3  O   UNL     1       9.461  -0.407  -0.200  1.00  0.00    -0.252 OA
BRANCH   2   4
ATOM      4  O   UNL     1      10.358   1.285  -1.409  1.00  0.00    -0.481 OA
ATOM      5  H   UNL     1      10.265   2.230  -1.027  1.00  0.00     0.296 HD
ENDBRANCH   2   4
ENDBRANCH   1   2
BRANCH   1   6
ATOM      6  C   UNL     1       7.129  -0.560  -1.431  1.00  0.00     0.047 C 
BRANCH   6   7
ATOM      7  C   UNL     1       6.347   0.143  -0.416  1.00  0.00    -0.047 A 
ATOM      8  C   UNL     1       5.802   1.379  -0.679  1.00  0.00     0.004 A 
ATOM      9  C   UNL     1       6.157  -0.446   0.812  1.00  0.00     0.004 A 
ATOM     10  C   UNL     1       5.066   1.992   0.337  1.00  0.00     0.000 A 
ATOM     11  C   UNL     1       5.428   0.162   1.816  1.00  0.00     0.000 A 
ATOM     12  C   UNL     1       4.880   1.400   1.561  1.00  0.00     0.000 A 
ENDBRANCH   6   7
ENDBRANCH   1   6
TORSDOF 4
ENDMDL
MODEL 5
REMARK VINA RESULT:      -6.6      3.796      4.926
REMARK SMILES O=C(O)CCc1ccccc1
REMARK SMILES IDX 4 1 2 2 1 3 3 4 5 6 6 7 7 8 11 9 8 10 10 11 9 12
REMARK H PARENT 3 5
REMARK Flexibility Score: inf
ROOT
ATOM      1  C   UNL     1       5.480   2.872  -0.042  1.00  0.00     0.127 C 
ENDROOT
BRANCH   1   2
ATOM      2  C   UNL     1       6.226   3.827   0.812  1.00  0.00     0.303 C 
ATOM      3  O   UNL     1       6.117   3.802   2.063  1.00  0.00    -0.252 OA
BRANCH   2   4
ATOM      4  O   UNL     1       7.065   4.775   0.251  1.00  0.00    -0.481 OA
ATOM      5  H   UNL     1       7.880   4.467  -0.287  1.00  0.00     0.296 HD
ENDBRANCH   2   4
ENDBRANCH   1   2
BRANCH   1   6
ATOM      6  C   UNL     1       4.945   1.778   0.831  1.00  0.00     0.047 C 
BRANCH   6   7
ATOM      7  C   UNL     1       5.760   0.564   0.829  1.00  0.00    -0.047 A 
ATOM      8  C   UNL     1       6.494   0.212  -0.280  1.00  0.00     0.004 A 
ATOM      9  C   UNL     1       5.788  -0.228   1.954  1.00  0.00     0.004 A 
ATOM     10  C   UNL     1       7.251  -0.960  -0.211  1.00  0.00     0.000 A 
ATOM     11  C   UNL     1       6.536  -1.386   2.020  1.00  0.00     0.000 A 
ATOM     12  C   UNL     1       7.274  -1.747   0.913  1.00  0.00     0.000 A 
ENDBRANCH   6   7
ENDBRANCH   1   6
TORSDOF 4
ENDMDL
