@<TRIPOS>MOLECULE
/home/cewinharhar/GITHUB/reincatalyze/data/processed/docking_pred/2023-Apr-26-1657_maxeplen10_maxtrainstep1000_exh32_gamma099_lrac9e-4_lrcr1e-3/a614218f6e6a1b7d791f470f20b1a009abdeaae3_ligand_2.pdbqt
 12 12 0 0 0
SMALL
GASTEIGER

@<TRIPOS>ATOM
      1  C          8.4690   -0.6610   -2.0820 C.3     1  UNL1        0.1270
      2  C          8.4900   -1.9200   -2.8630 C.2     1  UNL1        0.3030
      3  O          9.5600   -2.5490   -3.0560 O.2     1  UNL1       -0.2520
      4  O          7.3250   -2.4400   -3.4040 O.3     1  UNL1       -0.4810
      5  H          7.3710   -3.2940   -3.9660 H       1  UNL1        0.2960
      6  C          7.0740   -0.1140   -2.1080 C.3     1  UNL1        0.0470
      7  C          6.4860    0.0790   -0.7840 C.2     1  UNL1       -0.0470
      8  C          5.8200    1.2410   -0.4720 C.2     1  UNL1        0.0040
      9  C          6.6050   -0.9200    0.1550 C.2     1  UNL1        0.0040
     10  C          5.2830    1.3560    0.8120 C.2     1  UNL1        0.0000
     11  C          6.0730   -0.8040    1.4240 C.2     1  UNL1        0.0000
     12  C          5.4040    0.3570    1.7440 C.2     1  UNL1        0.0000
@<TRIPOS>BOND
     1     5     4    1
     2     4     2    1
     3     3     2    2
     4     2     1    1
     5     6     1    1
     6     6     7    1
     7     7     8    2
     8     7     9    1
     9     8    10    1
    10     9    11    2
    11    10    12    2
    12    11    12    1
