@<TRIPOS>MOLECULE
/home/cewinharhar/GITHUB/reincatalyze/data/processed/docking_pred/2023-Apr-26-1657_maxeplen10_maxtrainstep1000_exh32_gamma099_lrac9e-4_lrcr1e-3/a614218f6e6a1b7d791f470f20b1a009abdeaae3_ligand_2.pdbqt
 12 12 0 0 0
SMALL
GASTEIGER

@<TRIPOS>ATOM
      1  C          8.4430   -0.5930   -2.1710 C.3     1  UNL1        0.1270
      2  C          8.4700   -1.8740   -2.9160 C.2     1  UNL1        0.3030
      3  O          9.5430   -2.5020   -3.0920 O.2     1  UNL1       -0.2520
      4  O          7.3070   -2.4150   -3.4400 O.3     1  UNL1       -0.4810
      5  H          6.6640   -2.9170   -2.8210 H       1  UNL1        0.2960
      6  C          7.0250   -0.1130   -2.1120 C.3     1  UNL1        0.0470
      7  C          6.4920    0.0040   -0.7560 C.2     1  UNL1       -0.0470
      8  C          6.6180   -1.0320    0.1410 C.2     1  UNL1        0.0040
      9  C          5.8620    1.1670   -0.3800 C.2     1  UNL1        0.0040
     10  C          6.0870   -0.8510    1.4200 C.2     1  UNL1        0.0000
     11  C          5.3360    1.3450    0.8850 C.2     1  UNL1        0.0000
     12  C          5.4580    0.3120    1.7890 C.2     1  UNL1        0.0000
@<TRIPOS>BOND
     1     4     2    1
     2     4     5    1
     3     3     2    2
     4     2     1    1
     5     1     6    1
     6     6     7    1
     7     7     9    2
     8     7     8    1
     9     9    11    1
    10     8    10    2
    11    11    12    2
    12    10    12    1
