@<TRIPOS>MOLECULE
/home/cewinharhar/GITHUB/reincatalyze/data/processed/docking_pred/2023-Apr-26-1657_maxeplen10_maxtrainstep1000_exh32_gamma099_lrac9e-4_lrcr1e-3/a614218f6e6a1b7d791f470f20b1a009abdeaae3_ligand_2.pdbqt
 12 12 0 0 0
SMALL
GASTEIGER

@<TRIPOS>ATOM
      1  C          5.4800    2.8720   -0.0420 C.3     1  UNL1        0.1270
      2  C          6.2260    3.8270    0.8120 C.2     1  UNL1        0.3030
      3  O          6.1170    3.8020    2.0630 O.2     1  UNL1       -0.2520
      4  O          7.0650    4.7750    0.2510 O.3     1  UNL1       -0.4810
      5  H          7.8800    4.4670   -0.2870 H       1  UNL1        0.2960
      6  C          4.9450    1.7780    0.8310 C.3     1  UNL1        0.0470
      7  C          5.7600    0.5640    0.8290 C.2     1  UNL1       -0.0470
      8  C          6.4940    0.2120   -0.2800 C.2     1  UNL1        0.0040
      9  C          5.7880   -0.2280    1.9540 C.2     1  UNL1        0.0040
     10  C          7.2510   -0.9600   -0.2110 C.2     1  UNL1        0.0000
     11  C          6.5360   -1.3860    2.0200 C.2     1  UNL1        0.0000
     12  C          7.2740   -1.7470    0.9130 C.2     1  UNL1        0.0000
@<TRIPOS>BOND
     1     5     4    1
     2     8    10    1
     3     8     7    2
     4    10    12    2
     5     1     2    1
     6     1     6    1
     7     4     2    1
     8     2     3    2
     9     7     6    1
    10     7     9    1
    11    12    11    1
    12     9    11    2
