@<TRIPOS>MOLECULE
/home/cewinharhar/GITHUB/reincatalyze/data/processed/docking_pred/2023-Apr-26-1657_maxeplen10_maxtrainstep1000_exh32_gamma099_lrac9e-4_lrcr1e-3/a614218f6e6a1b7d791f470f20b1a009abdeaae3_ligand_2.pdbqt
 12 12 0 0 0
SMALL
GASTEIGER

@<TRIPOS>ATOM
      1  C          4.9980    1.7820    0.6810 C.3     1  UNL1        0.1270
      2  C          4.4940    1.1110    1.9020 C.2     1  UNL1        0.3030
      3  O          5.1610    0.2130    2.4740 O.2     1  UNL1       -0.2520
      4  O          3.2680    1.4560    2.4470 O.3     1  UNL1       -0.4810
      5  H          3.2040    2.2750    3.0580 H       1  UNL1        0.2960
      6  C          6.4960    1.7710    0.7220 C.3     1  UNL1        0.0470
      7  C          7.1140    1.0010   -0.3560 C.2     1  UNL1       -0.0470
      8  C          6.3840    0.0810   -1.0720 C.2     1  UNL1        0.0040
      9  C          8.4420    1.2070   -0.6510 C.2     1  UNL1        0.0040
     10  C          7.0400   -0.6180   -2.0880 C.2     1  UNL1        0.0000
     11  C          9.0890    0.5150   -1.6560 C.2     1  UNL1        0.0000
     12  C          8.3650   -0.4090   -2.3770 C.2     1  UNL1        0.0000
@<TRIPOS>BOND
     1    12    10    2
     2    12    11    1
     3    10     8    1
     4    11     9    2
     5     8     7    2
     6     9     7    1
     7     7     6    1
     8     1     6    1
     9     1     2    1
    10     2     4    1
    11     2     3    2
    12     4     5    1
