@<TRIPOS>MOLECULE
/home/cewinharhar/GITHUB/reincatalyze/data/processed/docking_pred/2023-Apr-26-1657_maxeplen10_maxtrainstep1000_exh32_gamma099_lrac9e-4_lrcr1e-3/a614218f6e6a1b7d791f470f20b1a009abdeaae3_ligand_2.pdbqt
 12 12 0 0 0
SMALL
GASTEIGER

@<TRIPOS>ATOM
      1  C          8.1750    0.2870   -2.0890 C.3     1  UNL1        0.1270
      2  C          9.3490    0.3610   -1.1870 C.2     1  UNL1        0.3030
      3  O          9.4610   -0.4070   -0.2000 O.2     1  UNL1       -0.2520
      4  O         10.3580    1.2850   -1.4090 O.3     1  UNL1       -0.4810
      5  H         10.2650    2.2300   -1.0270 H       1  UNL1        0.2960
      6  C          7.1290   -0.5600   -1.4310 C.3     1  UNL1        0.0470
      7  C          6.3470    0.1430   -0.4160 C.2     1  UNL1       -0.0470
      8  C          5.8020    1.3790   -0.6790 C.2     1  UNL1        0.0040
      9  C          6.1570   -0.4460    0.8120 C.2     1  UNL1        0.0040
     10  C          5.0660    1.9920    0.3370 C.2     1  UNL1        0.0000
     11  C          5.4280    0.1620    1.8160 C.2     1  UNL1        0.0000
     12  C          4.8800    1.4000    1.5610 C.2     1  UNL1        0.0000
@<TRIPOS>BOND
     1     1     6    1
     2     1     2    1
     3     6     7    1
     4     4     2    1
     5     4     5    1
     6     2     3    2
     7     8     7    2
     8     8    10    1
     9     7     9    1
    10    10    12    2
    11     9    11    2
    12    12    11    1
