@<TRIPOS>MOLECULE
/home/cewinharhar/GITHUB/reincatalyze/data/processed/docking_pred/2023-Apr-26-1657_maxeplen10_maxtrainstep1000_exh32_gamma099_lrac9e-4_lrcr1e-3/a6201df4fd59712db5137144eee8a96fed35f0a9_ligand_2.pdbqt
 12 12 0 0 0
SMALL
GASTEIGER

@<TRIPOS>ATOM
      1  C          4.9960    1.8040    0.7090 C.3     1  UNL1        0.1270
      2  C          4.4870    1.1150    1.9180 C.2     1  UNL1        0.3030
      3  O          5.1530    0.2110    2.4810 O.2     1  UNL1       -0.2520
      4  O          3.2570    1.4510    2.4620 O.3     1  UNL1       -0.4810
      5  H          2.7050    0.7300    2.9350 H       1  UNL1        0.2960
      6  C          6.4930    1.7890    0.7540 C.3     1  UNL1        0.0470
      7  C          7.1120    1.0340   -0.3340 C.2     1  UNL1       -0.0470
      8  C          6.3800    0.1330   -1.0710 C.2     1  UNL1        0.0040
      9  C          8.4430    1.2360   -0.6190 C.2     1  UNL1        0.0040
     10  C          7.0360   -0.5520   -2.0970 C.2     1  UNL1        0.0000
     11  C          9.0900    0.5580   -1.6330 C.2     1  UNL1        0.0000
     12  C          8.3640   -0.3470   -2.3750 C.2     1  UNL1        0.0000
@<TRIPOS>BOND
     1    12    10    2
     2    12    11    1
     3    10     8    1
     4    11     9    2
     5     8     7    2
     6     9     7    1
     7     7     6    1
     8     1     6    1
     9     1     2    1
    10     2     4    1
    11     2     3    2
    12     4     5    1
