@<TRIPOS>MOLECULE
/home/cewinharhar/GITHUB/reincatalyze/data/processed/docking_pred/2023-Apr-26-1657_maxeplen10_maxtrainstep1000_exh32_gamma099_lrac9e-4_lrcr1e-3/a6201df4fd59712db5137144eee8a96fed35f0a9_ligand_2.pdbqt
 12 12 0 0 0
SMALL
GASTEIGER

@<TRIPOS>ATOM
      1  C          8.3560    0.4330   -2.0390 C.3     1  UNL1        0.1270
      2  C          9.4830    0.4070   -1.0770 C.2     1  UNL1        0.3030
      3  O          9.5010   -0.4020   -0.1170 O.2     1  UNL1       -0.2520
      4  O         10.5510    1.2800   -1.2120 O.3     1  UNL1       -0.4810
      5  H         11.1720    1.4390   -0.4130 H       1  UNL1        0.2960
      6  C          7.2470   -0.4100   -1.4870 C.3     1  UNL1        0.0470
      7  C          6.4080    0.2780   -0.5070 C.2     1  UNL1       -0.0470
      8  C          6.1870   -0.2680    0.7360 C.2     1  UNL1        0.0040
      9  C          5.8390    1.4850   -0.8400 C.2     1  UNL1        0.0040
     10  C          5.3760    0.4450    1.6220 C.2     1  UNL1        0.0000
     11  C          5.0370    2.1880    0.0360 C.2     1  UNL1        0.0000
     12  C          4.8100    1.6480    1.2840 C.2     1  UNL1        0.0000
@<TRIPOS>BOND
     1     1     6    1
     2     1     2    1
     3     6     7    1
     4     4     2    1
     5     4     5    1
     6     2     3    2
     7     9     7    2
     8     9    11    1
     9     7     8    1
    10    11    12    2
    11     8    10    2
    12    12    10    1
