@<TRIPOS>MOLECULE
/home/cewinharhar/GITHUB/reincatalyze/data/processed/docking_pred/2023-Apr-26-1657_maxeplen10_maxtrainstep1000_exh32_gamma099_lrac9e-4_lrcr1e-3/a6201df4fd59712db5137144eee8a96fed35f0a9_ligand_2.pdbqt
 12 12 0 0 0
SMALL
GASTEIGER

@<TRIPOS>ATOM
      1  C          8.4330   -0.6280   -2.1550 C.3     1  UNL1        0.1270
      2  C          8.4730   -1.9010   -2.9130 C.2     1  UNL1        0.3030
      3  O          9.5500   -2.5220   -3.0860 O.2     1  UNL1       -0.2520
      4  O          7.3170   -2.4410   -3.4530 O.3     1  UNL1       -0.4810
      5  H          7.3780   -3.0040   -4.3060 H       1  UNL1        0.2960
      6  C          7.0180   -0.1370   -2.1320 C.3     1  UNL1        0.0470
      7  C          6.4780    0.0600   -0.7880 C.2     1  UNL1       -0.0470
      8  C          5.8390    1.2300   -0.4510 C.2     1  UNL1        0.0040
      9  C          6.6150   -0.9430    0.1440 C.2     1  UNL1        0.0040
     10  C          5.3480    1.3490    0.8510 C.2     1  UNL1        0.0000
     11  C          6.1300   -0.8230    1.4310 C.2     1  UNL1        0.0000
     12  C          5.4880    0.3460    1.7770 C.2     1  UNL1        0.0000
@<TRIPOS>BOND
     1     5     4    1
     2     4     2    1
     3     3     2    2
     4     2     1    1
     5     1     6    1
     6     6     7    1
     7     7     8    2
     8     7     9    1
     9     8    10    1
    10     9    11    2
    11    10    12    2
    12    11    12    1
