@<TRIPOS>MOLECULE
/home/cewinharhar/GITHUB/reincatalyze/data/processed/docking_pred/2023-Apr-26-1657_maxeplen10_maxtrainstep1000_exh32_gamma099_lrac9e-4_lrcr1e-3/a6201df4fd59712db5137144eee8a96fed35f0a9_ligand_2.pdbqt
 12 12 0 0 0
SMALL
GASTEIGER

@<TRIPOS>ATOM
      1  C          5.3220    2.8590    0.1150 C.3     1  UNL1        0.1270
      2  C          6.1870    3.7750    0.8960 C.2     1  UNL1        0.3030
      3  O          6.2850    3.6720    2.1440 O.2     1  UNL1       -0.2520
      4  O          6.9130    4.7740    0.2670 O.3     1  UNL1       -0.4810
      5  H          6.5340    5.2140   -0.5760 H       1  UNL1        0.2960
      6  C          5.2580    1.5460    0.8330 C.3     1  UNL1        0.0470
      7  C          6.0400    0.4840    0.2010 C.2     1  UNL1       -0.0470
      8  C          6.4850   -0.5930    0.9320 C.2     1  UNL1        0.0040
      9  C          6.3270    0.5710   -1.1420 C.2     1  UNL1        0.0040
     10  C          7.2250   -1.5700    0.2630 C.2     1  UNL1        0.0000
     11  C          7.0600   -0.3960   -1.8020 C.2     1  UNL1        0.0000
     12  C          7.5100   -1.4770   -1.0760 C.2     1  UNL1        0.0000
@<TRIPOS>BOND
     1    11     9    1
     2    11    12    2
     3     9     7    2
     4    12    10    1
     5     5     4    1
     6     1     6    1
     7     1     2    1
     8     7     6    1
     9     7     8    1
    10    10     8    2
    11     4     2    1
    12     2     3    2
