MODEL 1
REMARK VINA RESULT:      -7.3      0.000      0.000
REMARK SMILES O=C(O)CCc1ccccc1
REMARK SMILES IDX 4 1 2 2 1 3 3 4 5 6 6 7 7 8 11 9 8 10 10 11 9 12
REMARK H PARENT 3 5
REMARK Flexibility Score: inf
ROOT
ATOM      1  C   UNL     1       8.433  -0.628  -2.155  1.00  0.00     0.127 C 
ENDROOT
BRANCH   1   2
ATOM      2  C   UNL     1       8.473  -1.901  -2.913  1.00  0.00     0.303 C 
ATOM      3  O   UNL     1       9.550  -2.522  -3.086  1.00  0.00    -0.252 OA
BRANCH   2   4
ATOM      4  O   UNL     1       7.317  -2.441  -3.453  1.00  0.00    -0.481 OA
ATOM      5  H   UNL     1       7.378  -3.004  -4.306  1.00  0.00     0.296 HD
ENDBRANCH   2   4
ENDBRANCH   1   2
BRANCH   1   6
ATOM      6  C   UNL     1       7.018  -0.137  -2.132  1.00  0.00     0.047 C 
BRANCH   6   7
ATOM      7  C   UNL     1       6.478   0.060  -0.788  1.00  0.00    -0.047 A 
ATOM      8  C   UNL     1       5.839   1.230  -0.451  1.00  0.00     0.004 A 
ATOM      9  C   UNL     1       6.615  -0.943   0.144  1.00  0.00     0.004 A 
ATOM     10  C   UNL     1       5.348   1.349   0.851  1.00  0.00     0.000 A 
ATOM     11  C   UNL     1       6.130  -0.823   1.431  1.00  0.00     0.000 A 
ATOM     12  C   UNL     1       5.488   0.346   1.777  1.00  0.00     0.000 A 
ENDBRANCH   6   7
ENDBRANCH   1   6
TORSDOF 4
ENDMDL
MODEL 2
REMARK VINA RESULT:      -7.3      0.092      1.439
REMARK SMILES O=C(O)CCc1ccccc1
REMARK SMILES IDX 4 1 2 2 1 3 3 4 5 6 6 7 7 8 11 9 8 10 10 11 9 12
REMARK H PARENT 3 5
REMARK Flexibility Score: inf
ROOT
ATOM      1  C   UNL     1       8.428  -0.541  -2.254  1.00  0.00     0.127 C 
ENDROOT
BRANCH   1   2
ATOM      2  C   UNL     1       8.488  -1.863  -2.920  1.00  0.00     0.303 C 
ATOM      3  O   UNL     1       9.576  -2.474  -3.057  1.00  0.00    -0.252 OA
BRANCH   2   4
ATOM      4  O   UNL     1       7.340  -2.463  -3.412  1.00  0.00    -0.481 OA
ATOM      5  H   UNL     1       7.292  -2.716  -4.403  1.00  0.00     0.296 HD
ENDBRANCH   2   4
ENDBRANCH   1   2
BRANCH   1   6
ATOM      6  C   UNL     1       6.994  -0.108  -2.195  1.00  0.00     0.047 C 
BRANCH   6   7
ATOM      7  C   UNL     1       6.479   0.060  -0.838  1.00  0.00    -0.047 A 
ATOM      8  C   UNL     1       6.625  -0.937   0.098  1.00  0.00     0.004 A 
ATOM      9  C   UNL     1       5.844   1.233  -0.501  1.00  0.00     0.004 A 
ATOM     10  C   UNL     1       6.109  -0.708   1.376  1.00  0.00     0.000 A 
ATOM     11  C   UNL     1       5.334   1.457   0.762  1.00  0.00     0.000 A 
ATOM     12  C   UNL     1       5.475   0.463   1.706  1.00  0.00     0.000 A 
ENDBRANCH   6   7
ENDBRANCH   1   6
TORSDOF 4
ENDMDL
MODEL 3
REMARK VINA RESULT:      -6.8      3.390      5.084
REMARK SMILES O=C(O)CCc1ccccc1
REMARK SMILES IDX 4 1 2 2 1 3 3 4 5 6 6 7 7 8 11 9 8 10 10 11 9 12
REMARK H PARENT 3 5
REMARK Flexibility Score: inf
ROOT
ATOM      1  C   UNL     1       4.996   1.804   0.709  1.00  0.00     0.127 C 
ENDROOT
BRANCH   1   2
ATOM      2  C   UNL     1       4.487   1.115   1.918  1.00  0.00     0.303 C 
ATOM      3  O   UNL     1       5.153   0.211   2.481  1.00  0.00    -0.252 OA
BRANCH   2   4
ATOM      4  O   UNL     1       3.257   1.451   2.462  1.00  0.00    -0.481 OA
ATOM      5  H   UNL     1       2.705   0.730   2.935  1.00  0.00     0.296 HD
ENDBRANCH   2   4
ENDBRANCH   1   2
BRANCH   1   6
ATOM      6  C   UNL     1       6.493   1.789   0.754  1.00  0.00     0.047 C 
BRANCH   6   7
ATOM      7  C   UNL     1       7.112   1.034  -0.334  1.00  0.00    -0.047 A 
ATOM      8  C   UNL     1       6.380   0.133  -1.071  1.00  0.00     0.004 A 
ATOM      9  C   UNL     1       8.443   1.236  -0.619  1.00  0.00     0.004 A 
ATOM     10  C   UNL     1       7.036  -0.552  -2.097  1.00  0.00     0.000 A 
ATOM     11  C   UNL     1       9.090   0.558  -1.633  1.00  0.00     0.000 A 
ATOM     12  C   UNL     1       8.364  -0.347  -2.375  1.00  0.00     0.000 A 
ENDBRANCH   6   7
ENDBRANCH   1   6
TORSDOF 4
ENDMDL
MODEL 4
REMARK VINA RESULT:      -6.6      1.990      2.721
REMARK SMILES O=C(O)CCc1ccccc1
REMARK SMILES IDX 4 1 2 2 1 3 3 4 5 6 6 7 7 8 11 9 8 10 10 11 9 12
REMARK H PARENT 3 5
REMARK Flexibility Score: inf
ROOT
ATOM      1  C   UNL     1       8.356   0.433  -2.039  1.00  0.00     0.127 C 
ENDROOT
BRANCH   1   2
ATOM      2  C   UNL     1       9.483   0.407  -1.077  1.00  0.00     0.303 C 
ATOM      3  O   UNL     1       9.501  -0.402  -0.117  1.00  0.00    -0.252 OA
BRANCH   2   4
ATOM      4  O   UNL     1      10.551   1.280  -1.212  1.00  0.00    -0.481 OA
ATOM      5  H   UNL     1      11.172   1.439  -0.413  1.00  0.00     0.296 HD
ENDBRANCH   2   4
ENDBRANCH   1   2
BRANCH   1   6
ATOM      6  C   UNL     1       7.247  -0.410  -1.487  1.00  0.00     0.047 C 
BRANCH   6   7
ATOM      7  C   UNL     1       6.408   0.278  -0.507  1.00  0.00    -0.047 A 
ATOM      8  C   UNL     1       6.187  -0.268   0.736  1.00  0.00     0.004 A 
ATOM      9  C   UNL     1       5.839   1.485  -0.840  1.00  0.00     0.004 A 
ATOM     10  C   UNL     1       5.376   0.445   1.622  1.00  0.00     0.000 A 
ATOM     11  C   UNL     1       5.037   2.188   0.036  1.00  0.00     0.000 A 
ATOM     12  C   UNL     1       4.810   1.648   1.284  1.00  0.00     0.000 A 
ENDBRANCH   6   7
ENDBRANCH   1   6
TORSDOF 4
ENDMDL
MODEL 5
REMARK VINA RESULT:      -6.6      3.701      5.104
REMARK SMILES O=C(O)CCc1ccccc1
REMARK SMILES IDX 4 1 2 2 1 3 3 4 5 6 6 7 7 8 11 9 8 10 10 11 9 12
REMARK H PARENT 3 5
REMARK Flexibility Score: inf
ROOT
ATOM      1  C   UNL     1       5.322   2.859   0.115  1.00  0.00     0.127 C 
ENDROOT
BRANCH   1   2
ATOM      2  C   UNL     1       6.187   3.775   0.896  1.00  0.00     0.303 C 
ATOM      3  O   UNL     1       6.285   3.672   2.144  1.00  0.00    -0.252 OA
BRANCH   2   4
ATOM      4  O   UNL     1       6.913   4.774   0.267  1.00  0.00    -0.481 OA
ATOM      5  H   UNL     1       6.534   5.214  -0.576  1.00  0.00     0.296 HD
ENDBRANCH   2   4
ENDBRANCH   1   2
BRANCH   1   6
ATOM      6  C   UNL     1       5.258   1.546   0.833  1.00  0.00     0.047 C 
BRANCH   6   7
ATOM      7  C   UNL     1       6.040   0.484   0.201  1.00  0.00    -0.047 A 
ATOM      8  C   UNL     1       6.485  -0.593   0.932  1.00  0.00     0.004 A 
ATOM      9  C   UNL     1       6.327   0.571  -1.142  1.00  0.00     0.004 A 
ATOM     10  C   UNL     1       7.225  -1.570   0.263  1.00  0.00     0.000 A 
ATOM     11  C   UNL     1       7.060  -0.396  -1.802  1.00  0.00     0.000 A 
ATOM     12  C   UNL     1       7.510  -1.477  -1.076  1.00  0.00     0.000 A 
ENDBRANCH   6   7
ENDBRANCH   1   6
TORSDOF 4
ENDMDL
