@<TRIPOS>MOLECULE
/home/cewinharhar/GITHUB/reincatalyze/data/processed/docking_pred/2023-Apr-26-1657_maxeplen10_maxtrainstep1000_exh32_gamma099_lrac9e-4_lrcr1e-3/a6201df4fd59712db5137144eee8a96fed35f0a9_ligand_2.pdbqt
 12 12 0 0 0
SMALL
GASTEIGER

@<TRIPOS>ATOM
      1  C          8.4280   -0.5410   -2.2540 C.3     1  UNL1        0.1270
      2  C          8.4880   -1.8630   -2.9200 C.2     1  UNL1        0.3030
      3  O          9.5760   -2.4740   -3.0570 O.2     1  UNL1       -0.2520
      4  O          7.3400   -2.4630   -3.4120 O.3     1  UNL1       -0.4810
      5  H          7.2920   -2.7160   -4.4030 H       1  UNL1        0.2960
      6  C          6.9940   -0.1080   -2.1950 C.3     1  UNL1        0.0470
      7  C          6.4790    0.0600   -0.8380 C.2     1  UNL1       -0.0470
      8  C          6.6250   -0.9370    0.0980 C.2     1  UNL1        0.0040
      9  C          5.8440    1.2330   -0.5010 C.2     1  UNL1        0.0040
     10  C          6.1090   -0.7080    1.3760 C.2     1  UNL1        0.0000
     11  C          5.3340    1.4570    0.7620 C.2     1  UNL1        0.0000
     12  C          5.4750    0.4630    1.7060 C.2     1  UNL1        0.0000
@<TRIPOS>BOND
     1     5     4    1
     2     4     2    1
     3     3     2    2
     4     2     1    1
     5     1     6    1
     6     6     7    1
     7     7     9    2
     8     7     8    1
     9     9    11    1
    10     8    10    2
    11    11    12    2
    12    10    12    1
