@<TRIPOS>MOLECULE
/home/cewinharhar/GITHUB/reincatalyze/data/processed/docking_pred/2023-Apr-26-1657_maxeplen10_maxtrainstep1000_exh32_gamma099_lrac9e-4_lrcr1e-3/a7c8c9f10e55c2841f25afbe7e611a3f864293db_ligand_2.pdbqt
 12 12 0 0 0
SMALL
GASTEIGER

@<TRIPOS>ATOM
      1  C          5.0040    1.7980    0.7090 C.3     1  UNL1        0.1270
      2  C          4.4870    1.1120    1.9160 C.2     1  UNL1        0.3030
      3  O          5.1450    0.2040    2.4810 O.2     1  UNL1       -0.2520
      4  O          3.2580    1.4560    2.4560 O.3     1  UNL1       -0.4810
      5  H          3.2260    1.9730    3.3390 H       1  UNL1        0.2960
      6  C          6.5010    1.7710    0.7570 C.3     1  UNL1        0.0470
      7  C          7.1170    1.0200   -0.3350 C.2     1  UNL1       -0.0470
      8  C          6.3850    0.1150   -1.0680 C.2     1  UNL1        0.0040
      9  C          8.4450    1.2280   -0.6280 C.2     1  UNL1        0.0040
     10  C          7.0380   -0.5670   -2.0970 C.2     1  UNL1        0.0000
     11  C          9.0900    0.5530   -1.6460 C.2     1  UNL1        0.0000
     12  C          8.3630   -0.3550   -2.3840 C.2     1  UNL1        0.0000
@<TRIPOS>BOND
     1    12    10    2
     2    12    11    1
     3    10     8    1
     4    11     9    2
     5     8     7    2
     6     9     7    1
     7     7     6    1
     8     1     6    1
     9     1     2    1
    10     2     4    1
    11     2     3    2
    12     4     5    1
