@<TRIPOS>MOLECULE
/home/cewinharhar/GITHUB/reincatalyze/data/processed/docking_pred/2023-Apr-26-1657_maxeplen10_maxtrainstep1000_exh32_gamma099_lrac9e-4_lrcr1e-3/a7c8c9f10e55c2841f25afbe7e611a3f864293db_ligand_2.pdbqt
 12 12 0 0 0
SMALL
GASTEIGER

@<TRIPOS>ATOM
      1  C          5.3530    2.9420    0.0450 C.3     1  UNL1        0.1270
      2  C          6.2080    3.8700    0.8220 C.2     1  UNL1        0.3030
      3  O          6.8700    4.7740    0.2540 O.2     1  UNL1       -0.2520
      4  O          6.3000    3.7660    2.2000 O.3     1  UNL1       -0.4810
      5  H          6.1110    4.5890    2.7790 H       1  UNL1        0.2960
      6  C          5.1520    1.6980    0.8550 C.3     1  UNL1        0.0470
      7  C          5.9700    0.5670    0.4190 C.2     1  UNL1       -0.0470
      8  C          6.3750    0.4550   -0.8900 C.2     1  UNL1        0.0040
      9  C          6.3350   -0.3910    1.3370 C.2     1  UNL1        0.0040
     10  C          7.1550   -0.6510   -1.2360 C.2     1  UNL1        0.0000
     11  C          7.1050   -1.4840    0.9940 C.2     1  UNL1        0.0000
     12  C          7.5150   -1.6040   -0.3160 C.2     1  UNL1        0.0000
@<TRIPOS>BOND
     1    10     8    1
     2    10    12    2
     3     8     7    2
     4    12    11    1
     5     1     2    1
     6     1     6    1
     7     3     2    2
     8     7     6    1
     9     7     9    1
    10     2     4    1
    11    11     9    2
    12     4     5    1
