@<TRIPOS>MOLECULE
/home/cewinharhar/GITHUB/reincatalyze/data/processed/docking_pred/2023-Apr-26-1657_maxeplen10_maxtrainstep1000_exh32_gamma099_lrac9e-4_lrcr1e-3/a7c8c9f10e55c2841f25afbe7e611a3f864293db_ligand_2.pdbqt
 12 12 0 0 0
SMALL
GASTEIGER

@<TRIPOS>ATOM
      1  C          8.4140   -0.6060   -2.1520 C.3     1  UNL1        0.1270
      2  C          8.3810   -1.8830   -2.9040 C.2     1  UNL1        0.3030
      3  O          7.2930   -2.4130   -3.2390 O.2     1  UNL1       -0.2520
      4  O          9.5540   -2.5290   -3.2570 O.3     1  UNL1       -0.4810
      5  H          9.7020   -3.4970   -2.9600 H       1  UNL1        0.2960
      6  C          7.0230   -0.0500   -2.1090 C.3     1  UNL1        0.0470
      7  C          6.4760    0.0780   -0.7590 C.2     1  UNL1       -0.0470
      8  C          6.6100   -0.9430    0.1540 C.2     1  UNL1        0.0040
      9  C          5.8220    1.2360   -0.4060 C.2     1  UNL1        0.0040
     10  C          6.0630   -0.7520    1.4250 C.2     1  UNL1        0.0000
     11  C          5.2820    1.4230    0.8500 C.2     1  UNL1        0.0000
     12  C          5.4120    0.4050    1.7710 C.2     1  UNL1        0.0000
@<TRIPOS>BOND
     1     4     5    1
     2     4     2    1
     3     3     2    2
     4     2     1    1
     5     1     6    1
     6     6     7    1
     7     7     9    2
     8     7     8    1
     9     9    11    1
    10     8    10    2
    11    11    12    2
    12    10    12    1
