@<TRIPOS>MOLECULE
/home/cewinharhar/GITHUB/reincatalyze/data/processed/docking_pred/2023-Apr-26-1657_maxeplen10_maxtrainstep1000_exh32_gamma099_lrac9e-4_lrcr1e-3/a7c8c9f10e55c2841f25afbe7e611a3f864293db_ligand_2.pdbqt
 12 12 0 0 0
SMALL
GASTEIGER

@<TRIPOS>ATOM
      1  C          8.4170   -0.6010   -2.1710 C.3     1  UNL1        0.1270
      2  C          8.4550   -1.8860   -2.9080 C.2     1  UNL1        0.3030
      3  O          9.5320   -2.5110   -3.0710 O.2     1  UNL1       -0.2520
      4  O          7.2990   -2.4340   -3.4410 O.3     1  UNL1       -0.4810
      5  H          7.2810   -3.4290   -3.6830 H       1  UNL1        0.2960
      6  C          7.0000   -0.1130   -2.1500 C.3     1  UNL1        0.0470
      7  C          6.4600    0.0850   -0.8060 C.2     1  UNL1       -0.0470
      8  C          5.8460    1.2670   -0.4610 C.2     1  UNL1        0.0040
      9  C          6.5680   -0.9290    0.1170 C.2     1  UNL1        0.0040
     10  C          5.3520    1.3850    0.8390 C.2     1  UNL1        0.0000
     11  C          6.0800   -0.8100    1.4030 C.2     1  UNL1        0.0000
     12  C          5.4640    0.3710    1.7560 C.2     1  UNL1        0.0000
@<TRIPOS>BOND
     1     5     4    1
     2     4     2    1
     3     3     2    2
     4     2     1    1
     5     1     6    1
     6     6     7    1
     7     7     8    2
     8     7     9    1
     9     8    10    1
    10     9    11    2
    11    10    12    2
    12    11    12    1
