MODEL 1
REMARK VINA RESULT:      -7.3      0.000      0.000
REMARK SMILES O=C(O)CCc1ccccc1
REMARK SMILES IDX 4 1 2 2 1 3 3 4 5 6 6 7 7 8 11 9 8 10 10 11 9 12
REMARK H PARENT 3 5
REMARK Flexibility Score: inf
ROOT
ATOM      1  C   UNL     1       8.417  -0.601  -2.171  1.00  0.00     0.127 C 
ENDROOT
BRANCH   1   2
ATOM      2  C   UNL     1       8.455  -1.886  -2.908  1.00  0.00     0.303 C 
ATOM      3  O   UNL     1       9.532  -2.511  -3.071  1.00  0.00    -0.252 OA
BRANCH   2   4
ATOM      4  O   UNL     1       7.299  -2.434  -3.441  1.00  0.00    -0.481 OA
ATOM      5  H   UNL     1       7.281  -3.429  -3.683  1.00  0.00     0.296 HD
ENDBRANCH   2   4
ENDBRANCH   1   2
BRANCH   1   6
ATOM      6  C   UNL     1       7.000  -0.113  -2.150  1.00  0.00     0.047 C 
BRANCH   6   7
ATOM      7  C   UNL     1       6.460   0.085  -0.806  1.00  0.00    -0.047 A 
ATOM      8  C   UNL     1       5.846   1.267  -0.461  1.00  0.00     0.004 A 
ATOM      9  C   UNL     1       6.568  -0.929   0.117  1.00  0.00     0.004 A 
ATOM     10  C   UNL     1       5.352   1.385   0.839  1.00  0.00     0.000 A 
ATOM     11  C   UNL     1       6.080  -0.810   1.403  1.00  0.00     0.000 A 
ATOM     12  C   UNL     1       5.464   0.371   1.756  1.00  0.00     0.000 A 
ENDBRANCH   6   7
ENDBRANCH   1   6
TORSDOF 4
ENDMDL
MODEL 2
REMARK VINA RESULT:      -7.3      0.102      1.730
REMARK SMILES O=C(O)CCc1ccccc1
REMARK SMILES IDX 4 1 2 2 1 3 3 4 5 6 6 7 7 8 11 9 8 10 10 11 9 12
REMARK H PARENT 3 5
REMARK Flexibility Score: inf
ROOT
ATOM      1  C   UNL     1       8.414  -0.606  -2.152  1.00  0.00     0.127 C 
ENDROOT
BRANCH   1   2
ATOM      2  C   UNL     1       8.381  -1.883  -2.904  1.00  0.00     0.303 C 
ATOM      3  O   UNL     1       7.293  -2.413  -3.239  1.00  0.00    -0.252 OA
BRANCH   2   4
ATOM      4  O   UNL     1       9.554  -2.529  -3.257  1.00  0.00    -0.481 OA
ATOM      5  H   UNL     1       9.702  -3.497  -2.960  1.00  0.00     0.296 HD
ENDBRANCH   2   4
ENDBRANCH   1   2
BRANCH   1   6
ATOM      6  C   UNL     1       7.023  -0.050  -2.109  1.00  0.00     0.047 C 
BRANCH   6   7
ATOM      7  C   UNL     1       6.476   0.078  -0.759  1.00  0.00    -0.047 A 
ATOM      8  C   UNL     1       6.610  -0.943   0.154  1.00  0.00     0.004 A 
ATOM      9  C   UNL     1       5.822   1.236  -0.406  1.00  0.00     0.004 A 
ATOM     10  C   UNL     1       6.063  -0.752   1.425  1.00  0.00     0.000 A 
ATOM     11  C   UNL     1       5.282   1.423   0.850  1.00  0.00     0.000 A 
ATOM     12  C   UNL     1       5.412   0.405   1.771  1.00  0.00     0.000 A 
ENDBRANCH   6   7
ENDBRANCH   1   6
TORSDOF 4
ENDMDL
MODEL 3
REMARK VINA RESULT:      -6.8      3.377      5.076
REMARK SMILES O=C(O)CCc1ccccc1
REMARK SMILES IDX 4 1 2 2 1 3 3 4 5 6 6 7 7 8 11 9 8 10 10 11 9 12
REMARK H PARENT 3 5
REMARK Flexibility Score: inf
ROOT
ATOM      1  C   UNL     1       5.004   1.798   0.709  1.00  0.00     0.127 C 
ENDROOT
BRANCH   1   2
ATOM      2  C   UNL     1       4.487   1.112   1.916  1.00  0.00     0.303 C 
ATOM      3  O   UNL     1       5.145   0.204   2.481  1.00  0.00    -0.252 OA
BRANCH   2   4
ATOM      4  O   UNL     1       3.258   1.456   2.456  1.00  0.00    -0.481 OA
ATOM      5  H   UNL     1       3.226   1.973   3.339  1.00  0.00     0.296 HD
ENDBRANCH   2   4
ENDBRANCH   1   2
BRANCH   1   6
ATOM      6  C   UNL     1       6.501   1.771   0.757  1.00  0.00     0.047 C 
BRANCH   6   7
ATOM      7  C   UNL     1       7.117   1.020  -0.335  1.00  0.00    -0.047 A 
ATOM      8  C   UNL     1       6.385   0.115  -1.068  1.00  0.00     0.004 A 
ATOM      9  C   UNL     1       8.445   1.228  -0.628  1.00  0.00     0.004 A 
ATOM     10  C   UNL     1       7.038  -0.567  -2.097  1.00  0.00     0.000 A 
ATOM     11  C   UNL     1       9.090   0.553  -1.646  1.00  0.00     0.000 A 
ATOM     12  C   UNL     1       8.363  -0.355  -2.384  1.00  0.00     0.000 A 
ENDBRANCH   6   7
ENDBRANCH   1   6
TORSDOF 4
ENDMDL
MODEL 4
REMARK VINA RESULT:      -6.7      1.973      2.658
REMARK SMILES O=C(O)CCc1ccccc1
REMARK SMILES IDX 4 1 2 2 1 3 3 4 5 6 6 7 7 8 11 9 8 10 10 11 9 12
REMARK H PARENT 3 5
REMARK Flexibility Score: inf
ROOT
ATOM      1  C   UNL     1       8.231   0.277  -2.055  1.00  0.00     0.127 C 
ENDROOT
BRANCH   1   2
ATOM      2  C   UNL     1       9.409   0.379  -1.163  1.00  0.00     0.303 C 
ATOM      3  O   UNL     1       9.522  -0.352  -0.148  1.00  0.00    -0.252 OA
BRANCH   2   4
ATOM      4  O   UNL     1      10.421   1.288  -1.425  1.00  0.00    -0.481 OA
ATOM      5  H   UNL     1      11.065   1.111  -2.201  1.00  0.00     0.296 HD
ENDBRANCH   2   4
ENDBRANCH   1   2
BRANCH   1   6
ATOM      6  C   UNL     1       7.201  -0.577  -1.380  1.00  0.00     0.047 C 
BRANCH   6   7
ATOM      7  C   UNL     1       6.386   0.139  -0.400  1.00  0.00    -0.047 A 
ATOM      8  C   UNL     1       6.166  -0.389   0.851  1.00  0.00     0.004 A 
ATOM      9  C   UNL     1       5.838   1.354  -0.741  1.00  0.00     0.004 A 
ATOM     10  C   UNL     1       5.378   0.350   1.737  1.00  0.00     0.000 A 
ATOM     11  C   UNL     1       5.059   2.083   0.136  1.00  0.00     0.000 A 
ATOM     12  C   UNL     1       4.833   1.561   1.391  1.00  0.00     0.000 A 
ENDBRANCH   6   7
ENDBRANCH   1   6
TORSDOF 4
ENDMDL
MODEL 5
REMARK VINA RESULT:      -6.6      3.727      4.935
REMARK SMILES O=C(O)CCc1ccccc1
REMARK SMILES IDX 4 1 2 2 1 3 3 4 5 6 6 7 7 8 11 9 8 10 10 11 9 12
REMARK H PARENT 3 5
REMARK Flexibility Score: inf
ROOT
ATOM      1  C   UNL     1       5.353   2.942   0.045  1.00  0.00     0.127 C 
ENDROOT
BRANCH   1   2
ATOM      2  C   UNL     1       6.208   3.870   0.822  1.00  0.00     0.303 C 
ATOM      3  O   UNL     1       6.870   4.774   0.254  1.00  0.00    -0.252 OA
BRANCH   2   4
ATOM      4  O   UNL     1       6.300   3.766   2.200  1.00  0.00    -0.481 OA
ATOM      5  H   UNL     1       6.111   4.589   2.779  1.00  0.00     0.296 HD
ENDBRANCH   2   4
ENDBRANCH   1   2
BRANCH   1   6
ATOM      6  C   UNL     1       5.152   1.698   0.855  1.00  0.00     0.047 C 
BRANCH   6   7
ATOM      7  C   UNL     1       5.970   0.567   0.419  1.00  0.00    -0.047 A 
ATOM      8  C   UNL     1       6.375   0.455  -0.890  1.00  0.00     0.004 A 
ATOM      9  C   UNL     1       6.335  -0.391   1.337  1.00  0.00     0.004 A 
ATOM     10  C   UNL     1       7.155  -0.651  -1.236  1.00  0.00     0.000 A 
ATOM     11  C   UNL     1       7.105  -1.484   0.994  1.00  0.00     0.000 A 
ATOM     12  C   UNL     1       7.515  -1.604  -0.316  1.00  0.00     0.000 A 
ENDBRANCH   6   7
ENDBRANCH   1   6
TORSDOF 4
ENDMDL
