@<TRIPOS>MOLECULE
/home/cewinharhar/GITHUB/reincatalyze/data/processed/docking_pred/2023-Apr-26-1657_maxeplen10_maxtrainstep1000_exh32_gamma099_lrac9e-4_lrcr1e-3/a7c8c9f10e55c2841f25afbe7e611a3f864293db_ligand_2.pdbqt
 12 12 0 0 0
SMALL
GASTEIGER

@<TRIPOS>ATOM
      1  C          8.2310    0.2770   -2.0550 C.3     1  UNL1        0.1270
      2  C          9.4090    0.3790   -1.1630 C.2     1  UNL1        0.3030
      3  O          9.5220   -0.3520   -0.1480 O.2     1  UNL1       -0.2520
      4  O         10.4210    1.2880   -1.4250 O.3     1  UNL1       -0.4810
      5  H         11.0650    1.1110   -2.2010 H       1  UNL1        0.2960
      6  C          7.2010   -0.5770   -1.3800 C.3     1  UNL1        0.0470
      7  C          6.3860    0.1390   -0.4000 C.2     1  UNL1       -0.0470
      8  C          6.1660   -0.3890    0.8510 C.2     1  UNL1        0.0040
      9  C          5.8380    1.3540   -0.7410 C.2     1  UNL1        0.0040
     10  C          5.3780    0.3500    1.7370 C.2     1  UNL1        0.0000
     11  C          5.0590    2.0830    0.1360 C.2     1  UNL1        0.0000
     12  C          4.8330    1.5610    1.3910 C.2     1  UNL1        0.0000
@<TRIPOS>BOND
     1     5     4    1
     2     1     6    1
     3     1     2    1
     4     4     2    1
     5     6     7    1
     6     2     3    2
     7     9     7    2
     8     9    11    1
     9     7     8    1
    10    11    12    2
    11     8    10    2
    12    12    10    1
