@<TRIPOS>MOLECULE
/home/cewinharhar/GITHUB/reincatalyze/data/processed/docking_pred/2023-Apr-26-1657_maxeplen10_maxtrainstep1000_exh32_gamma099_lrac9e-4_lrcr1e-3/a8cbf1bb962d04eb60783bb2dc55df042853f03a_ligand_2.pdbqt
 12 12 0 0 0
SMALL
GASTEIGER

@<TRIPOS>ATOM
      1  C          8.0460   -1.2050   -0.1310 C.3     1  UNL1        0.1270
      2  C          7.8850   -2.3900    0.7450 C.2     1  UNL1        0.3030
      3  O          8.7570   -3.2920    0.7860 O.2     1  UNL1       -0.2520
      4  O          6.7620   -2.5340    1.5440 O.3     1  UNL1       -0.4810
      5  H          6.4870   -3.4690    1.8570 H       1  UNL1        0.2960
      6  C          6.6900   -0.6240   -0.3910 C.3     1  UNL1        0.0470
      7  C          6.5760    0.7940   -0.0540 C.2     1  UNL1       -0.0470
      8  C          5.4160    1.4870   -0.3130 C.2     1  UNL1        0.0040
      9  C          7.6450    1.4330    0.5310 C.2     1  UNL1        0.0040
     10  C          5.3780    2.8390    0.0370 C.2     1  UNL1        0.0000
     11  C          7.6050    2.7690    0.8760 C.2     1  UNL1        0.0000
     12  C          6.4470    3.4710    0.6190 C.2     1  UNL1        0.0000
@<TRIPOS>BOND
     1     6     1    1
     2     6     7    1
     3     8     7    2
     4     8    10    1
     5     1     2    1
     6     7     9    1
     7    10    12    2
     8     9    11    2
     9    12    11    1
    10     2     3    2
    11     2     4    1
    12     4     5    1
