MODEL 1
REMARK VINA RESULT:      -7.1      0.000      0.000
REMARK SMILES O=C(O)CCc1ccccc1
REMARK SMILES IDX 4 1 2 2 1 3 3 4 5 6 6 7 7 8 11 9 8 10 10 11 9 12
REMARK H PARENT 3 5
REMARK Flexibility Score: inf
ROOT
ATOM      1  C   UNL     1       8.443  -0.619  -2.153  1.00  0.00     0.127 C 
ENDROOT
BRANCH   1   2
ATOM      2  C   UNL     1       8.487  -1.896  -2.904  1.00  0.00     0.303 C 
ATOM      3  O   UNL     1       9.571  -2.501  -3.096  1.00  0.00    -0.252 OA
BRANCH   2   4
ATOM      4  O   UNL     1       7.330  -2.458  -3.417  1.00  0.00    -0.481 OA
ATOM      5  H   UNL     1       6.545  -2.650  -2.789  1.00  0.00     0.296 HD
ENDBRANCH   2   4
ENDBRANCH   1   2
BRANCH   1   6
ATOM      6  C   UNL     1       7.025  -0.136  -2.129  1.00  0.00     0.047 C 
BRANCH   6   7
ATOM      7  C   UNL     1       6.476   0.029  -0.784  1.00  0.00    -0.047 A 
ATOM      8  C   UNL     1       6.602  -0.969   0.154  1.00  0.00     0.004 A 
ATOM      9  C   UNL     1       5.830   1.200  -0.462  1.00  0.00     0.004 A 
ATOM     10  C   UNL     1       6.054  -0.743   1.419  1.00  0.00     0.000 A 
ATOM     11  C   UNL     1       5.288   1.422   0.789  1.00  0.00     0.000 A 
ATOM     12  C   UNL     1       5.410   0.427   1.734  1.00  0.00     0.000 A 
ENDBRANCH   6   7
ENDBRANCH   1   6
TORSDOF 4
ENDMDL
MODEL 2
REMARK VINA RESULT:      -7.0      0.123      1.732
REMARK SMILES O=C(O)CCc1ccccc1
REMARK SMILES IDX 4 1 2 2 1 3 3 4 5 6 6 7 7 8 11 9 8 10 10 11 9 12
REMARK H PARENT 3 5
REMARK Flexibility Score: inf
ROOT
ATOM      1  C   UNL     1       8.411  -0.698  -2.028  1.00  0.00     0.127 C 
ENDROOT
BRANCH   1   2
ATOM      2  C   UNL     1       8.372  -1.923  -2.861  1.00  0.00     0.303 C 
ATOM      3  O   UNL     1       7.282  -2.408  -3.253  1.00  0.00    -0.252 OA
BRANCH   2   4
ATOM      4  O   UNL     1       9.541  -2.568  -3.230  1.00  0.00    -0.481 OA
ATOM      5  H   UNL     1      10.435  -2.077  -3.137  1.00  0.00     0.296 HD
ENDBRANCH   2   4
ENDBRANCH   1   2
BRANCH   1   6
ATOM      6  C   UNL     1       7.050  -0.073  -2.046  1.00  0.00     0.047 C 
BRANCH   6   7
ATOM      7  C   UNL     1       6.459   0.104  -0.720  1.00  0.00    -0.047 A 
ATOM      8  C   UNL     1       5.791   1.262  -0.396  1.00  0.00     0.004 A 
ATOM      9  C   UNL     1       6.576  -0.906   0.207  1.00  0.00     0.004 A 
ATOM     10  C   UNL     1       5.251   1.362   0.888  1.00  0.00     0.000 A 
ATOM     11  C   UNL     1       6.042  -0.806   1.476  1.00  0.00     0.000 A 
ATOM     12  C   UNL     1       5.372   0.351   1.809  1.00  0.00     0.000 A 
ENDBRANCH   6   7
ENDBRANCH   1   6
TORSDOF 4
ENDMDL
MODEL 3
REMARK VINA RESULT:      -6.8      1.374      1.719
REMARK SMILES O=C(O)CCc1ccccc1
REMARK SMILES IDX 4 1 2 2 1 3 3 4 5 6 6 7 7 8 11 9 8 10 10 11 9 12
REMARK H PARENT 3 5
REMARK Flexibility Score: inf
ROOT
ATOM      1  C   UNL     1       8.323  -0.530  -2.301  1.00  0.00     0.127 C 
ENDROOT
BRANCH   1   2
ATOM      2  C   UNL     1       8.415  -1.857  -2.954  1.00  0.00     0.303 C 
ATOM      3  O   UNL     1       9.518  -2.442  -3.086  1.00  0.00    -0.252 OA
BRANCH   2   4
ATOM      4  O   UNL     1       7.282  -2.490  -3.439  1.00  0.00    -0.481 OA
ATOM      5  H   UNL     1       6.358  -2.149  -3.157  1.00  0.00     0.296 HD
ENDBRANCH   2   4
ENDBRANCH   1   2
BRANCH   1   6
ATOM      6  C   UNL     1       6.993  -0.433  -1.618  1.00  0.00     0.047 C 
BRANCH   6   7
ATOM      7  C   UNL     1       6.832   0.767  -0.798  1.00  0.00    -0.047 A 
ATOM      8  C   UNL     1       7.912   1.337  -0.165  1.00  0.00     0.004 A 
ATOM      9  C   UNL     1       5.583   1.327  -0.666  1.00  0.00     0.004 A 
ATOM     10  C   UNL     1       7.685   2.483   0.600  1.00  0.00     0.000 A 
ATOM     11  C   UNL     1       5.360   2.460   0.091  1.00  0.00     0.000 A 
ATOM     12  C   UNL     1       6.436   3.036   0.729  1.00  0.00     0.000 A 
ENDBRANCH   6   7
ENDBRANCH   1   6
TORSDOF 4
ENDMDL
MODEL 4
REMARK VINA RESULT:      -6.4      3.428      5.114
REMARK SMILES O=C(O)CCc1ccccc1
REMARK SMILES IDX 4 1 2 2 1 3 3 4 5 6 6 7 7 8 11 9 8 10 10 11 9 12
REMARK H PARENT 3 5
REMARK Flexibility Score: inf
ROOT
ATOM      1  C   UNL     1       4.989   1.850   0.791  1.00  0.00     0.127 C 
ENDROOT
BRANCH   1   2
ATOM      2  C   UNL     1       4.438   1.115   1.954  1.00  0.00     0.303 C 
ATOM      3  O   UNL     1       5.069   0.166   2.483  1.00  0.00    -0.252 OA
BRANCH   2   4
ATOM      4  O   UNL     1       3.208   1.456   2.492  1.00  0.00    -0.481 OA
ATOM      5  H   UNL     1       2.741   0.805   3.128  1.00  0.00     0.296 HD
ENDBRANCH   2   4
ENDBRANCH   1   2
BRANCH   1   6
ATOM      6  C   UNL     1       6.481   1.894   0.926  1.00  0.00     0.047 C 
BRANCH   6   7
ATOM      7  C   UNL     1       7.196   1.233  -0.165  1.00  0.00    -0.047 A 
ATOM      8  C   UNL     1       8.561   1.353  -0.285  1.00  0.00     0.004 A 
ATOM      9  C   UNL     1       6.488   0.483  -1.075  1.00  0.00     0.004 A 
ATOM     10  C   UNL     1       9.178   0.694  -1.350  1.00  0.00     0.000 A 
ATOM     11  C   UNL     1       7.099  -0.168  -2.127  1.00  0.00     0.000 A 
ATOM     12  C   UNL     1       8.467  -0.053  -2.255  1.00  0.00     0.000 A 
ENDBRANCH   6   7
ENDBRANCH   1   6
TORSDOF 4
ENDMDL
MODEL 5
REMARK VINA RESULT:      -6.3      2.501      3.166
REMARK SMILES O=C(O)CCc1ccccc1
REMARK SMILES IDX 4 1 2 2 1 3 3 4 5 6 6 7 7 8 11 9 8 10 10 11 9 12
REMARK H PARENT 3 5
REMARK Flexibility Score: inf
ROOT
ATOM      1  C   UNL     1       8.046  -1.205  -0.131  1.00  0.00     0.127 C 
ENDROOT
BRANCH   1   2
ATOM      2  C   UNL     1       7.885  -2.390   0.745  1.00  0.00     0.303 C 
ATOM      3  O   UNL     1       8.757  -3.292   0.786  1.00  0.00    -0.252 OA
BRANCH   2   4
ATOM      4  O   UNL     1       6.762  -2.534   1.544  1.00  0.00    -0.481 OA
ATOM      5  H   UNL     1       6.487  -3.469   1.857  1.00  0.00     0.296 HD
ENDBRANCH   2   4
ENDBRANCH   1   2
BRANCH   1   6
ATOM      6  C   UNL     1       6.690  -0.624  -0.391  1.00  0.00     0.047 C 
BRANCH   6   7
ATOM      7  C   UNL     1       6.576   0.794  -0.054  1.00  0.00    -0.047 A 
ATOM      8  C   UNL     1       5.416   1.487  -0.313  1.00  0.00     0.004 A 
ATOM      9  C   UNL     1       7.645   1.433   0.531  1.00  0.00     0.004 A 
ATOM     10  C   UNL     1       5.378   2.839   0.037  1.00  0.00     0.000 A 
ATOM     11  C   UNL     1       7.605   2.769   0.876  1.00  0.00     0.000 A 
ATOM     12  C   UNL     1       6.447   3.471   0.619  1.00  0.00     0.000 A 
ENDBRANCH   6   7
ENDBRANCH   1   6
TORSDOF 4
ENDMDL
