@<TRIPOS>MOLECULE
/home/cewinharhar/GITHUB/reincatalyze/data/processed/docking_pred/2023-Apr-26-1657_maxeplen10_maxtrainstep1000_exh32_gamma099_lrac9e-4_lrcr1e-3/a8cbf1bb962d04eb60783bb2dc55df042853f03a_ligand_2.pdbqt
 12 12 0 0 0
SMALL
GASTEIGER

@<TRIPOS>ATOM
      1  C          8.4430   -0.6190   -2.1530 C.3     1  UNL1        0.1270
      2  C          8.4870   -1.8960   -2.9040 C.2     1  UNL1        0.3030
      3  O          9.5710   -2.5010   -3.0960 O.2     1  UNL1       -0.2520
      4  O          7.3300   -2.4580   -3.4170 O.3     1  UNL1       -0.4810
      5  H          6.5450   -2.6500   -2.7890 H       1  UNL1        0.2960
      6  C          7.0250   -0.1360   -2.1290 C.3     1  UNL1        0.0470
      7  C          6.4760    0.0290   -0.7840 C.2     1  UNL1       -0.0470
      8  C          6.6020   -0.9690    0.1540 C.2     1  UNL1        0.0040
      9  C          5.8300    1.2000   -0.4620 C.2     1  UNL1        0.0040
     10  C          6.0540   -0.7430    1.4190 C.2     1  UNL1        0.0000
     11  C          5.2880    1.4220    0.7890 C.2     1  UNL1        0.0000
     12  C          5.4100    0.4270    1.7340 C.2     1  UNL1        0.0000
@<TRIPOS>BOND
     1     4     2    1
     2     4     5    1
     3     3     2    2
     4     2     1    1
     5     1     6    1
     6     6     7    1
     7     7     9    2
     8     7     8    1
     9     9    11    1
    10     8    10    2
    11    11    12    2
    12    10    12    1
