@<TRIPOS>MOLECULE
/home/cewinharhar/GITHUB/reincatalyze/data/processed/docking_pred/2023-Apr-26-1657_maxeplen10_maxtrainstep1000_exh32_gamma099_lrac9e-4_lrcr1e-3/a8cbf1bb962d04eb60783bb2dc55df042853f03a_ligand_2.pdbqt
 12 12 0 0 0
SMALL
GASTEIGER

@<TRIPOS>ATOM
      1  C          4.9890    1.8500    0.7910 C.3     1  UNL1        0.1270
      2  C          4.4380    1.1150    1.9540 C.2     1  UNL1        0.3030
      3  O          5.0690    0.1660    2.4830 O.2     1  UNL1       -0.2520
      4  O          3.2080    1.4560    2.4920 O.3     1  UNL1       -0.4810
      5  H          2.7410    0.8050    3.1280 H       1  UNL1        0.2960
      6  C          6.4810    1.8940    0.9260 C.3     1  UNL1        0.0470
      7  C          7.1960    1.2330   -0.1650 C.2     1  UNL1       -0.0470
      8  C          8.5610    1.3530   -0.2850 C.2     1  UNL1        0.0040
      9  C          6.4880    0.4830   -1.0750 C.2     1  UNL1        0.0040
     10  C          9.1780    0.6940   -1.3500 C.2     1  UNL1        0.0000
     11  C          7.0990   -0.1680   -2.1270 C.2     1  UNL1        0.0000
     12  C          8.4670   -0.0530   -2.2550 C.2     1  UNL1        0.0000
@<TRIPOS>BOND
     1    12    11    2
     2    12    10    1
     3    11     9    1
     4    10     8    2
     5     9     7    2
     6     8     7    1
     7     7     6    1
     8     1     6    1
     9     1     2    1
    10     2     3    2
    11     2     4    1
    12     4     5    1
