@<TRIPOS>MOLECULE
/home/cewinharhar/GITHUB/reincatalyze/data/processed/docking_pred/2023-Apr-26-1657_maxeplen10_maxtrainstep1000_exh32_gamma099_lrac9e-4_lrcr1e-3/a8cbf1bb962d04eb60783bb2dc55df042853f03a_ligand_2.pdbqt
 12 12 0 0 0
SMALL
GASTEIGER

@<TRIPOS>ATOM
      1  C          8.3230   -0.5300   -2.3010 C.3     1  UNL1        0.1270
      2  C          8.4150   -1.8570   -2.9540 C.2     1  UNL1        0.3030
      3  O          9.5180   -2.4420   -3.0860 O.2     1  UNL1       -0.2520
      4  O          7.2820   -2.4900   -3.4390 O.3     1  UNL1       -0.4810
      5  H          6.3580   -2.1490   -3.1570 H       1  UNL1        0.2960
      6  C          6.9930   -0.4330   -1.6180 C.3     1  UNL1        0.0470
      7  C          6.8320    0.7670   -0.7980 C.2     1  UNL1       -0.0470
      8  C          7.9120    1.3370   -0.1650 C.2     1  UNL1        0.0040
      9  C          5.5830    1.3270   -0.6660 C.2     1  UNL1        0.0040
     10  C          7.6850    2.4830    0.6000 C.2     1  UNL1        0.0000
     11  C          5.3600    2.4600    0.0910 C.2     1  UNL1        0.0000
     12  C          6.4360    3.0360    0.7290 C.2     1  UNL1        0.0000
@<TRIPOS>BOND
     1     4     5    1
     2     4     2    1
     3     3     2    2
     4     2     1    1
     5     1     6    1
     6     6     7    1
     7     7     9    2
     8     7     8    1
     9     9    11    1
    10     8    10    2
    11    11    12    2
    12    10    12    1
