@<TRIPOS>MOLECULE
/home/cewinharhar/GITHUB/reincatalyze/data/processed/docking_pred/2023-Apr-26-1657_maxeplen10_maxtrainstep1000_exh32_gamma099_lrac9e-4_lrcr1e-3/a8cbf1bb962d04eb60783bb2dc55df042853f03a_ligand_2.pdbqt
 12 12 0 0 0
SMALL
GASTEIGER

@<TRIPOS>ATOM
      1  C          8.4110   -0.6980   -2.0280 C.3     1  UNL1        0.1270
      2  C          8.3720   -1.9230   -2.8610 C.2     1  UNL1        0.3030
      3  O          7.2820   -2.4080   -3.2530 O.2     1  UNL1       -0.2520
      4  O          9.5410   -2.5680   -3.2300 O.3     1  UNL1       -0.4810
      5  H         10.4350   -2.0770   -3.1370 H       1  UNL1        0.2960
      6  C          7.0500   -0.0730   -2.0460 C.3     1  UNL1        0.0470
      7  C          6.4590    0.1040   -0.7200 C.2     1  UNL1       -0.0470
      8  C          5.7910    1.2620   -0.3960 C.2     1  UNL1        0.0040
      9  C          6.5760   -0.9060    0.2070 C.2     1  UNL1        0.0040
     10  C          5.2510    1.3620    0.8880 C.2     1  UNL1        0.0000
     11  C          6.0420   -0.8060    1.4760 C.2     1  UNL1        0.0000
     12  C          5.3720    0.3510    1.8090 C.2     1  UNL1        0.0000
@<TRIPOS>BOND
     1     3     2    2
     2     4     5    1
     3     4     2    1
     4     2     1    1
     5     6     1    1
     6     6     7    1
     7     7     8    2
     8     7     9    1
     9     8    10    1
    10     9    11    2
    11    10    12    2
    12    11    12    1
