@<TRIPOS>MOLECULE
/home/cewinharhar/GITHUB/reincatalyze/data/processed/docking_pred/2023-Apr-26-1657_maxeplen10_maxtrainstep1000_exh32_gamma099_lrac9e-4_lrcr1e-3/a991e05863b38587be5f018959c733685726fb49_ligand_2.pdbqt
 12 12 0 0 0
SMALL
GASTEIGER

@<TRIPOS>ATOM
      1  C          8.4230   -0.5590   -2.2220 C.3     1  UNL1        0.1270
      2  C          8.4740   -1.8770   -2.8980 C.2     1  UNL1        0.3030
      3  O          9.5600   -2.4910   -3.0440 O.2     1  UNL1       -0.2520
      4  O          7.3220   -2.4680   -3.3900 O.3     1  UNL1       -0.4810
      5  H          6.7690   -1.9760   -4.0970 H       1  UNL1        0.2960
      6  C          6.9930   -0.1150   -2.1640 C.3     1  UNL1        0.0470
      7  C          6.4770    0.0530   -0.8060 C.2     1  UNL1       -0.0470
      8  C          5.8710    1.2280   -0.4250 C.2     1  UNL1        0.0040
      9  C          6.6020   -0.9800    0.0930 C.2     1  UNL1        0.0040
     10  C          5.4010    1.3190    0.8870 C.2     1  UNL1        0.0000
     11  C          6.1380   -0.8890    1.3900 C.2     1  UNL1        0.0000
     12  C          5.5290    0.2850    1.7800 C.2     1  UNL1        0.0000
@<TRIPOS>BOND
     1     5     4    1
     2     4     2    1
     3     3     2    2
     4     2     1    1
     5     1     6    1
     6     6     7    1
     7     7     8    2
     8     7     9    1
     9     8    10    1
    10     9    11    2
    11    10    12    2
    12    11    12    1
