@<TRIPOS>MOLECULE
/home/cewinharhar/GITHUB/reincatalyze/data/processed/docking_pred/2023-Apr-26-1657_maxeplen10_maxtrainstep1000_exh32_gamma099_lrac9e-4_lrcr1e-3/a991e05863b38587be5f018959c733685726fb49_ligand_2.pdbqt
 12 12 0 0 0
SMALL
GASTEIGER

@<TRIPOS>ATOM
      1  C          5.0360    1.7120    0.6780 C.3     1  UNL1        0.1270
      2  C          4.6030    1.0300    1.9200 C.2     1  UNL1        0.3030
      3  O          5.3390    0.1850    2.4880 O.2     1  UNL1       -0.2520
      4  O          3.3710    1.3070    2.4900 O.3     1  UNL1       -0.4810
      5  H          3.2720    2.1250    3.0960 H       1  UNL1        0.2960
      6  C          6.5320    1.8010    0.6860 C.3     1  UNL1        0.0470
      7  C          7.1790    1.0360   -0.3790 C.2     1  UNL1       -0.0470
      8  C          8.5200    1.1920   -0.6420 C.2     1  UNL1        0.0040
      9  C          6.4300    0.1510   -1.1200 C.2     1  UNL1        0.0040
     10  C          9.0720    0.4280   -1.6720 C.2     1  UNL1        0.0000
     11  C          6.9770   -0.6030   -2.1390 C.2     1  UNL1        0.0000
     12  C          8.3200   -0.4520   -2.4090 C.2     1  UNL1        0.0000
@<TRIPOS>BOND
     1    12    11    2
     2    12    10    1
     3    11     9    1
     4    10     8    2
     5     9     7    2
     6     8     7    1
     7     7     6    1
     8     1     6    1
     9     1     2    1
    10     2     3    2
    11     2     4    1
    12     4     5    1
