@<TRIPOS>MOLECULE
/home/cewinharhar/GITHUB/reincatalyze/data/processed/docking_pred/2023-Apr-26-1657_maxeplen10_maxtrainstep1000_exh32_gamma099_lrac9e-4_lrcr1e-3/a991e05863b38587be5f018959c733685726fb49_ligand_2.pdbqt
 12 12 0 0 0
SMALL
GASTEIGER

@<TRIPOS>ATOM
      1  C          8.4550   -0.6340   -2.0910 C.3     1  UNL1        0.1270
      2  C          8.4010   -1.8880   -2.8790 C.2     1  UNL1        0.3030
      3  O          7.3040   -2.4040   -3.2080 O.2     1  UNL1       -0.2520
      4  O          9.5640   -2.5280   -3.2760 O.3     1  UNL1       -0.4810
      5  H         10.4220   -1.9810   -3.3930 H       1  UNL1        0.2960
      6  C          7.0860   -0.0240   -2.0830 C.3     1  UNL1        0.0470
      7  C          6.5020    0.1080   -0.7490 C.2     1  UNL1       -0.0470
      8  C          6.6430   -0.8950    0.1820 C.2     1  UNL1        0.0040
      9  C          5.8080    1.2520   -0.4300 C.2     1  UNL1        0.0040
     10  C          6.0600   -0.7010    1.4370 C.2     1  UNL1        0.0000
     11  C          5.2320    1.4420    0.8100 C.2     1  UNL1        0.0000
     12  C          5.3680    0.4420    1.7490 C.2     1  UNL1        0.0000
@<TRIPOS>BOND
     1     5     4    1
     2     4     2    1
     3     3     2    2
     4     2     1    1
     5     1     6    1
     6     6     7    1
     7     7     9    2
     8     7     8    1
     9     9    11    1
    10     8    10    2
    11    11    12    2
    12    10    12    1
