@<TRIPOS>MOLECULE
/home/cewinharhar/GITHUB/reincatalyze/data/processed/docking_pred/2023-Apr-26-1657_maxeplen10_maxtrainstep1000_exh32_gamma099_lrac9e-4_lrcr1e-3/a991e05863b38587be5f018959c733685726fb49_ligand_2.pdbqt
 12 12 0 0 0
SMALL
GASTEIGER

@<TRIPOS>ATOM
      1  C          8.1900   -0.8630   -1.9330 C.3     1  UNL1        0.1270
      2  C          8.3720   -1.9970   -2.8690 C.2     1  UNL1        0.3030
      3  O          9.5110   -2.4770   -3.0960 O.2     1  UNL1       -0.2520
      4  O          7.2880   -2.5610   -3.5210 O.3     1  UNL1       -0.4810
      5  H          7.3100   -2.6580   -4.5400 H       1  UNL1        0.2960
      6  C          7.4240   -1.3530   -0.7430 C.3     1  UNL1        0.0470
      7  C          6.5840   -0.3330   -0.1160 C.2     1  UNL1       -0.0470
      8  C          6.1460   -0.4830    1.1800 C.2     1  UNL1        0.0040
      9  C          6.2360    0.7860   -0.8360 C.2     1  UNL1        0.0040
     10  C          5.3480    0.5310    1.7150 C.2     1  UNL1        0.0000
     11  C          5.4470    1.7870   -0.3050 C.2     1  UNL1        0.0000
     12  C          5.0030    1.6450    0.9920 C.2     1  UNL1        0.0000
@<TRIPOS>BOND
     1     5     4    1
     2     4     2    1
     3     3     2    2
     4     2     1    1
     5     1     6    1
     6     9    11    1
     7     9     7    2
     8     6     7    1
     9    11    12    2
    10     7     8    1
    11    12    10    1
    12     8    10    2
