@<TRIPOS>MOLECULE
/home/cewinharhar/GITHUB/reincatalyze/data/processed/docking_pred/2023-Apr-26-1657_maxeplen10_maxtrainstep1000_exh32_gamma099_lrac9e-4_lrcr1e-3/a991e05863b38587be5f018959c733685726fb49_ligand_2.pdbqt
 12 12 0 0 0
SMALL
GASTEIGER

@<TRIPOS>ATOM
      1  C          5.4450    2.9030    0.0070 C.3     1  UNL1        0.1270
      2  C          6.2370    3.8690    0.8050 C.2     1  UNL1        0.3030
      3  O          6.9090    4.7740    0.2510 O.2     1  UNL1       -0.2520
      4  O          6.2560    3.7990    2.1880 O.3     1  UNL1       -0.4810
      5  H          5.3710    3.7550    2.7000 H       1  UNL1        0.2960
      6  C          4.9300    1.8400    0.9290 C.3     1  UNL1        0.0470
      7  C          5.7240    0.6120    0.9220 C.2     1  UNL1       -0.0470
      8  C          6.3880    0.2100   -0.2130 C.2     1  UNL1        0.0040
      9  C          5.8030   -0.1420    2.0700 C.2     1  UNL1        0.0040
     10  C          7.1280   -0.9730   -0.1470 C.2     1  UNL1        0.0000
     11  C          6.5350   -1.3110    2.1340 C.2     1  UNL1        0.0000
     12  C          7.2020   -1.7220    1.0010 C.2     1  UNL1        0.0000
@<TRIPOS>BOND
     1     8    10    1
     2     8     7    2
     3    10    12    2
     4     1     2    1
     5     1     6    1
     6     3     2    2
     7     2     4    1
     8     7     6    1
     9     7     9    1
    10    12    11    1
    11     9    11    2
    12     4     5    1
