@<TRIPOS>MOLECULE
/home/cewinharhar/GITHUB/reincatalyze/data/processed/docking_pred/2023-Apr-26-1657_maxeplen10_maxtrainstep1000_exh32_gamma099_lrac9e-4_lrcr1e-3/a9d08a951453574d65a810177cdd831b7fbb923c_ligand_2.pdbqt
 12 12 0 0 0
SMALL
GASTEIGER

@<TRIPOS>ATOM
      1  C          8.4390   -0.6020   -2.1480 C.3     1  UNL1        0.1270
      2  C          8.4650   -1.8780   -2.9000 C.2     1  UNL1        0.3030
      3  O          9.5400   -2.4990   -3.0900 O.2     1  UNL1       -0.2520
      4  O          7.3010   -2.4230   -3.4170 O.3     1  UNL1       -0.4810
      5  H          6.4020   -1.9880   -3.1910 H       1  UNL1        0.2960
      6  C          7.0250   -0.1050   -2.1140 C.3     1  UNL1        0.0470
      7  C          6.4840    0.0570   -0.7660 C.2     1  UNL1       -0.0470
      8  C          5.8610    1.2250   -0.3940 C.2     1  UNL1        0.0040
      9  C          6.6010   -0.9780    0.1330 C.2     1  UNL1        0.0040
     10  C          5.3670    1.3100    0.9100 C.2     1  UNL1        0.0000
     11  C          6.1120   -0.8930    1.4210 C.2     1  UNL1        0.0000
     12  C          5.4880    0.2750    1.8030 C.2     1  UNL1        0.0000
@<TRIPOS>BOND
     1     4     5    1
     2     4     2    1
     3     3     2    2
     4     2     1    1
     5     1     6    1
     6     6     7    1
     7     7     8    2
     8     7     9    1
     9     8    10    1
    10     9    11    2
    11    10    12    2
    12    11    12    1
