@<TRIPOS>MOLECULE
/home/cewinharhar/GITHUB/reincatalyze/data/processed/docking_pred/2023-Apr-26-1657_maxeplen10_maxtrainstep1000_exh32_gamma099_lrac9e-4_lrcr1e-3/a9d08a951453574d65a810177cdd831b7fbb923c_ligand_2.pdbqt
 12 12 0 0 0
SMALL
GASTEIGER

@<TRIPOS>ATOM
      1  C          8.2300    0.2560   -2.2160 C.3     1  UNL1        0.1270
      2  C          9.3530    0.3600   -1.2540 C.2     1  UNL1        0.3030
      3  O          9.4380   -0.4110   -0.2670 O.2     1  UNL1       -0.2520
      4  O         10.3420    1.3160   -1.4190 O.3     1  UNL1       -0.4810
      5  H         11.0960    1.3810   -0.7290 H       1  UNL1        0.2960
      6  C          7.1140   -0.4950   -1.5570 C.3     1  UNL1        0.0470
      7  C          6.3290    0.3080   -0.6200 C.2     1  UNL1       -0.0470
      8  C          5.8100    1.5240   -0.9990 C.2     1  UNL1        0.0040
      9  C          6.1110   -0.1670    0.6530 C.2     1  UNL1        0.0040
     10  C          5.0710    2.2370   -0.0530 C.2     1  UNL1        0.0000
     11  C          5.3800    0.5390    1.5870 C.2     1  UNL1        0.0000
     12  C          4.8570    1.7590    1.2150 C.2     1  UNL1        0.0000
@<TRIPOS>BOND
     1     1     6    1
     2     1     2    1
     3     6     7    1
     4     4     2    1
     5     4     5    1
     6     2     3    2
     7     8     7    2
     8     8    10    1
     9     7     9    1
    10    10    12    2
    11     9    11    2
    12    12    11    1
