@<TRIPOS>MOLECULE
/home/cewinharhar/GITHUB/reincatalyze/data/processed/docking_pred/2023-Apr-26-1657_maxeplen10_maxtrainstep1000_exh32_gamma099_lrac9e-4_lrcr1e-3/a9d08a951453574d65a810177cdd831b7fbb923c_ligand_2.pdbqt
 12 12 0 0 0
SMALL
GASTEIGER

@<TRIPOS>ATOM
      1  C          5.4940    2.8750   -0.0460 C.3     1  UNL1        0.1270
      2  C          6.2140    3.8410    0.8180 C.2     1  UNL1        0.3030
      3  O          6.0590    3.8410    2.0640 O.2     1  UNL1       -0.2520
      4  O          7.0790    4.7750    0.2700 O.3     1  UNL1       -0.4810
      5  H          8.0560    4.7920    0.5770 H       1  UNL1        0.2960
      6  C          4.9360    1.7910    0.8250 C.3     1  UNL1        0.0470
      7  C          5.7430    0.5730    0.8500 C.2     1  UNL1       -0.0470
      8  C          5.8330   -0.1880    1.9920 C.2     1  UNL1        0.0040
      9  C          6.4160    0.1900   -0.2870 C.2     1  UNL1        0.0040
     10  C          6.6220   -1.3400    1.9440 C.2     1  UNL1        0.0000
     11  C          7.1960   -0.9480   -0.3330 C.2     1  UNL1        0.0000
     12  C          7.2920   -1.7160    0.8070 C.2     1  UNL1        0.0000
@<TRIPOS>BOND
     1    11     9    1
     2    11    12    2
     3     9     7    2
     4     1     2    1
     5     1     6    1
     6     4     5    1
     7     4     2    1
     8    12    10    1
     9     2     3    2
    10     6     7    1
    11     7     8    1
    12    10     8    2
