@<TRIPOS>MOLECULE
/home/cewinharhar/GITHUB/reincatalyze/data/processed/docking_pred/2023-Apr-26-1657_maxeplen10_maxtrainstep1000_exh32_gamma099_lrac9e-4_lrcr1e-3/a9d08a951453574d65a810177cdd831b7fbb923c_ligand_2.pdbqt
 12 12 0 0 0
SMALL
GASTEIGER

@<TRIPOS>ATOM
      1  C          8.4630   -0.6350   -2.1310 C.3     1  UNL1        0.1270
      2  C          8.4700   -1.8980   -2.9060 C.2     1  UNL1        0.3030
      3  O          9.5330   -2.5420   -3.0920 O.2     1  UNL1       -0.2520
      4  O          7.3000   -2.4050   -3.4490 O.3     1  UNL1       -0.4810
      5  H          6.4950   -2.5700   -2.8390 H       1  UNL1        0.2960
      6  C          7.0580   -0.1170   -2.0880 C.3     1  UNL1        0.0470
      7  C          6.5080   -0.0000   -0.7380 C.2     1  UNL1       -0.0470
      8  C          6.6360   -1.0300    0.1650 C.2     1  UNL1        0.0040
      9  C          5.8600    1.1580   -0.3760 C.2     1  UNL1        0.0040
     10  C          6.0880   -0.8480    1.4370 C.2     1  UNL1        0.0000
     11  C          5.3180    1.3350    0.8820 C.2     1  UNL1        0.0000
     12  C          5.4410    0.3080    1.7920 C.2     1  UNL1        0.0000
@<TRIPOS>BOND
     1     4     2    1
     2     4     5    1
     3     3     2    2
     4     2     1    1
     5     1     6    1
     6     6     7    1
     7     7     9    2
     8     7     8    1
     9     9    11    1
    10     8    10    2
    11    11    12    2
    12    10    12    1
