@<TRIPOS>MOLECULE
/home/cewinharhar/GITHUB/reincatalyze/data/processed/docking_pred/2023-Apr-26-1657_maxeplen10_maxtrainstep1000_exh32_gamma099_lrac9e-4_lrcr1e-3/a9d08a951453574d65a810177cdd831b7fbb923c_ligand_2.pdbqt
 12 12 0 0 0
SMALL
GASTEIGER

@<TRIPOS>ATOM
      1  C          5.0140    1.8300    0.7290 C.3     1  UNL1        0.1270
      2  C          4.4880    1.1220    1.9200 C.2     1  UNL1        0.3030
      3  O          5.1430    0.2050    2.4740 O.2     1  UNL1       -0.2520
      4  O          3.2550    1.4560    2.4570 O.3     1  UNL1       -0.4810
      5  H          2.6800    2.1630    1.9910 H       1  UNL1        0.2960
      6  C          6.5100    1.7810    0.7750 C.3     1  UNL1        0.0470
      7  C          7.1150    1.0330   -0.3270 C.2     1  UNL1       -0.0470
      8  C          6.3740    0.1330   -1.0560 C.2     1  UNL1        0.0040
      9  C          8.4410    1.2410   -0.6310 C.2     1  UNL1        0.0040
     10  C          7.0160   -0.5450   -2.0950 C.2     1  UNL1        0.0000
     11  C          9.0740    0.5690   -1.6580 C.2     1  UNL1        0.0000
     12  C          8.3390   -0.3350   -2.3930 C.2     1  UNL1        0.0000
@<TRIPOS>BOND
     1    12    10    2
     2    12    11    1
     3    10     8    1
     4    11     9    2
     5     8     7    2
     6     9     7    1
     7     7     6    1
     8     1     6    1
     9     1     2    1
    10     2     4    1
    11     2     3    2
    12     5     4    1
