MODEL 1
REMARK VINA RESULT:      -7.3      0.000      0.000
REMARK SMILES O=C(O)CCc1ccccc1
REMARK SMILES IDX 4 1 2 2 1 3 3 4 5 6 6 7 7 8 11 9 8 10 10 11 9 12
REMARK H PARENT 3 5
REMARK Flexibility Score: inf
ROOT
ATOM      1  C   UNL     1       8.439  -0.602  -2.148  1.00  0.00     0.127 C 
ENDROOT
BRANCH   1   2
ATOM      2  C   UNL     1       8.465  -1.878  -2.900  1.00  0.00     0.303 C 
ATOM      3  O   UNL     1       9.540  -2.499  -3.090  1.00  0.00    -0.252 OA
BRANCH   2   4
ATOM      4  O   UNL     1       7.301  -2.423  -3.417  1.00  0.00    -0.481 OA
ATOM      5  H   UNL     1       6.402  -1.988  -3.191  1.00  0.00     0.296 HD
ENDBRANCH   2   4
ENDBRANCH   1   2
BRANCH   1   6
ATOM      6  C   UNL     1       7.025  -0.105  -2.114  1.00  0.00     0.047 C 
BRANCH   6   7
ATOM      7  C   UNL     1       6.484   0.057  -0.766  1.00  0.00    -0.047 A 
ATOM      8  C   UNL     1       5.861   1.225  -0.394  1.00  0.00     0.004 A 
ATOM      9  C   UNL     1       6.601  -0.978   0.133  1.00  0.00     0.004 A 
ATOM     10  C   UNL     1       5.367   1.310   0.910  1.00  0.00     0.000 A 
ATOM     11  C   UNL     1       6.112  -0.893   1.421  1.00  0.00     0.000 A 
ATOM     12  C   UNL     1       5.488   0.275   1.803  1.00  0.00     0.000 A 
ENDBRANCH   6   7
ENDBRANCH   1   6
TORSDOF 4
ENDMDL
MODEL 2
REMARK VINA RESULT:      -7.3      0.054      1.437
REMARK SMILES O=C(O)CCc1ccccc1
REMARK SMILES IDX 4 1 2 2 1 3 3 4 5 6 6 7 7 8 11 9 8 10 10 11 9 12
REMARK H PARENT 3 5
REMARK Flexibility Score: inf
ROOT
ATOM      1  C   UNL     1       8.463  -0.635  -2.131  1.00  0.00     0.127 C 
ENDROOT
BRANCH   1   2
ATOM      2  C   UNL     1       8.470  -1.898  -2.906  1.00  0.00     0.303 C 
ATOM      3  O   UNL     1       9.533  -2.542  -3.092  1.00  0.00    -0.252 OA
BRANCH   2   4
ATOM      4  O   UNL     1       7.300  -2.405  -3.449  1.00  0.00    -0.481 OA
ATOM      5  H   UNL     1       6.495  -2.570  -2.839  1.00  0.00     0.296 HD
ENDBRANCH   2   4
ENDBRANCH   1   2
BRANCH   1   6
ATOM      6  C   UNL     1       7.058  -0.117  -2.088  1.00  0.00     0.047 C 
BRANCH   6   7
ATOM      7  C   UNL     1       6.508  -0.000  -0.738  1.00  0.00    -0.047 A 
ATOM      8  C   UNL     1       6.636  -1.030   0.165  1.00  0.00     0.004 A 
ATOM      9  C   UNL     1       5.860   1.158  -0.376  1.00  0.00     0.004 A 
ATOM     10  C   UNL     1       6.088  -0.848   1.437  1.00  0.00     0.000 A 
ATOM     11  C   UNL     1       5.318   1.335   0.882  1.00  0.00     0.000 A 
ATOM     12  C   UNL     1       5.441   0.308   1.792  1.00  0.00     0.000 A 
ENDBRANCH   6   7
ENDBRANCH   1   6
TORSDOF 4
ENDMDL
MODEL 3
REMARK VINA RESULT:      -6.8      3.373      5.078
REMARK SMILES O=C(O)CCc1ccccc1
REMARK SMILES IDX 4 1 2 2 1 3 3 4 5 6 6 7 7 8 11 9 8 10 10 11 9 12
REMARK H PARENT 3 5
REMARK Flexibility Score: inf
ROOT
ATOM      1  C   UNL     1       5.014   1.830   0.729  1.00  0.00     0.127 C 
ENDROOT
BRANCH   1   2
ATOM      2  C   UNL     1       4.488   1.122   1.920  1.00  0.00     0.303 C 
ATOM      3  O   UNL     1       5.143   0.205   2.474  1.00  0.00    -0.252 OA
BRANCH   2   4
ATOM      4  O   UNL     1       3.255   1.456   2.457  1.00  0.00    -0.481 OA
ATOM      5  H   UNL     1       2.680   2.163   1.991  1.00  0.00     0.296 HD
ENDBRANCH   2   4
ENDBRANCH   1   2
BRANCH   1   6
ATOM      6  C   UNL     1       6.510   1.781   0.775  1.00  0.00     0.047 C 
BRANCH   6   7
ATOM      7  C   UNL     1       7.115   1.033  -0.327  1.00  0.00    -0.047 A 
ATOM      8  C   UNL     1       6.374   0.133  -1.056  1.00  0.00     0.004 A 
ATOM      9  C   UNL     1       8.441   1.241  -0.631  1.00  0.00     0.004 A 
ATOM     10  C   UNL     1       7.016  -0.545  -2.095  1.00  0.00     0.000 A 
ATOM     11  C   UNL     1       9.074   0.569  -1.658  1.00  0.00     0.000 A 
ATOM     12  C   UNL     1       8.339  -0.335  -2.393  1.00  0.00     0.000 A 
ENDBRANCH   6   7
ENDBRANCH   1   6
TORSDOF 4
ENDMDL
MODEL 4
REMARK VINA RESULT:      -6.6      1.925      2.306
REMARK SMILES O=C(O)CCc1ccccc1
REMARK SMILES IDX 4 1 2 2 1 3 3 4 5 6 6 7 7 8 11 9 8 10 10 11 9 12
REMARK H PARENT 3 5
REMARK Flexibility Score: inf
ROOT
ATOM      1  C   UNL     1       8.230   0.256  -2.216  1.00  0.00     0.127 C 
ENDROOT
BRANCH   1   2
ATOM      2  C   UNL     1       9.353   0.360  -1.254  1.00  0.00     0.303 C 
ATOM      3  O   UNL     1       9.438  -0.411  -0.267  1.00  0.00    -0.252 OA
BRANCH   2   4
ATOM      4  O   UNL     1      10.342   1.316  -1.419  1.00  0.00    -0.481 OA
ATOM      5  H   UNL     1      11.096   1.381  -0.729  1.00  0.00     0.296 HD
ENDBRANCH   2   4
ENDBRANCH   1   2
BRANCH   1   6
ATOM      6  C   UNL     1       7.114  -0.495  -1.557  1.00  0.00     0.047 C 
BRANCH   6   7
ATOM      7  C   UNL     1       6.329   0.308  -0.620  1.00  0.00    -0.047 A 
ATOM      8  C   UNL     1       5.810   1.524  -0.999  1.00  0.00     0.004 A 
ATOM      9  C   UNL     1       6.111  -0.167   0.653  1.00  0.00     0.004 A 
ATOM     10  C   UNL     1       5.071   2.237  -0.053  1.00  0.00     0.000 A 
ATOM     11  C   UNL     1       5.380   0.539   1.587  1.00  0.00     0.000 A 
ATOM     12  C   UNL     1       4.857   1.759   1.215  1.00  0.00     0.000 A 
ENDBRANCH   6   7
ENDBRANCH   1   6
TORSDOF 4
ENDMDL
MODEL 5
REMARK VINA RESULT:      -6.6      3.781      4.978
REMARK SMILES O=C(O)CCc1ccccc1
REMARK SMILES IDX 4 1 2 2 1 3 3 4 5 6 6 7 7 8 11 9 8 10 10 11 9 12
REMARK H PARENT 3 5
REMARK Flexibility Score: inf
ROOT
ATOM      1  C   UNL     1       5.494   2.875  -0.046  1.00  0.00     0.127 C 
ENDROOT
BRANCH   1   2
ATOM      2  C   UNL     1       6.214   3.841   0.818  1.00  0.00     0.303 C 
ATOM      3  O   UNL     1       6.059   3.841   2.064  1.00  0.00    -0.252 OA
BRANCH   2   4
ATOM      4  O   UNL     1       7.079   4.775   0.270  1.00  0.00    -0.481 OA
ATOM      5  H   UNL     1       8.056   4.792   0.577  1.00  0.00     0.296 HD
ENDBRANCH   2   4
ENDBRANCH   1   2
BRANCH   1   6
ATOM      6  C   UNL     1       4.936   1.791   0.825  1.00  0.00     0.047 C 
BRANCH   6   7
ATOM      7  C   UNL     1       5.743   0.573   0.850  1.00  0.00    -0.047 A 
ATOM      8  C   UNL     1       5.833  -0.188   1.992  1.00  0.00     0.004 A 
ATOM      9  C   UNL     1       6.416   0.190  -0.287  1.00  0.00     0.004 A 
ATOM     10  C   UNL     1       6.622  -1.340   1.944  1.00  0.00     0.000 A 
ATOM     11  C   UNL     1       7.196  -0.948  -0.333  1.00  0.00     0.000 A 
ATOM     12  C   UNL     1       7.292  -1.716   0.807  1.00  0.00     0.000 A 
ENDBRANCH   6   7
ENDBRANCH   1   6
TORSDOF 4
ENDMDL
