@<TRIPOS>MOLECULE
/home/cewinharhar/GITHUB/reincatalyze/data/processed/docking_pred/2023-Apr-26-1657_maxeplen10_maxtrainstep1000_exh32_gamma099_lrac9e-4_lrcr1e-3/ab317eb7565d030be4138c7249420e244018cf00_ligand_2.pdbqt
 12 12 0 0 0
SMALL
GASTEIGER

@<TRIPOS>ATOM
      1  C          8.2700    0.1340   -2.1790 C.3     1  UNL1        0.1270
      2  C          9.3870    0.3220   -1.2240 C.2     1  UNL1        0.3030
      3  O          9.4870   -0.3860   -0.1920 O.2     1  UNL1       -0.2520
      4  O         10.3560    1.2880   -1.4450 O.3     1  UNL1       -0.4810
      5  H         11.1940    1.3000   -0.8580 H       1  UNL1        0.2960
      6  C          7.1680   -0.5990   -1.4770 C.3     1  UNL1        0.0470
      7  C          6.3700    0.2400   -0.5850 C.2     1  UNL1       -0.0470
      8  C          5.8640    1.4430   -1.0170 C.2     1  UNL1        0.0040
      9  C          6.1260   -0.1890    0.6990 C.2     1  UNL1        0.0040
     10  C          5.1090    2.1920   -0.1110 C.2     1  UNL1        0.0000
     11  C          5.3790    0.5520    1.5940 C.2     1  UNL1        0.0000
     12  C          4.8690    1.7600    1.1690 C.2     1  UNL1        0.0000
@<TRIPOS>BOND
     1     1     6    1
     2     1     2    1
     3     6     7    1
     4     4     2    1
     5     4     5    1
     6     2     3    2
     7     8     7    2
     8     8    10    1
     9     7     9    1
    10    10    12    2
    11     9    11    2
    12    12    11    1
