MODEL 1
REMARK VINA RESULT:      -7.3      0.000      0.000
REMARK SMILES O=C(O)CCc1ccccc1
REMARK SMILES IDX 4 1 2 2 1 3 3 4 5 6 6 7 7 8 11 9 8 10 10 11 9 12
REMARK H PARENT 3 5
REMARK Flexibility Score: inf
ROOT
ATOM      1  C   UNL     1       8.441  -0.576  -2.200  1.00  0.00     0.127 C 
ENDROOT
BRANCH   1   2
ATOM      2  C   UNL     1       8.480  -1.870  -2.921  1.00  0.00     0.303 C 
ATOM      3  O   UNL     1       9.558  -2.493  -3.082  1.00  0.00    -0.252 OA
BRANCH   2   4
ATOM      4  O   UNL     1       7.323  -2.430  -3.438  1.00  0.00    -0.481 OA
ATOM      5  H   UNL     1       7.299  -2.710  -4.423  1.00  0.00     0.296 HD
ENDBRANCH   2   4
ENDBRANCH   1   2
BRANCH   1   6
ATOM      6  C   UNL     1       7.020  -0.102  -2.159  1.00  0.00     0.047 C 
BRANCH   6   7
ATOM      7  C   UNL     1       6.484   0.054  -0.808  1.00  0.00    -0.047 A 
ATOM      8  C   UNL     1       6.620  -0.949   0.123  1.00  0.00     0.004 A 
ATOM      9  C   UNL     1       5.840   1.223  -0.473  1.00  0.00     0.004 A 
ATOM     10  C   UNL     1       6.085  -0.730   1.394  1.00  0.00     0.000 A 
ATOM     11  C   UNL     1       5.311   1.437   0.784  1.00  0.00     0.000 A 
ATOM     12  C   UNL     1       5.442   0.437   1.723  1.00  0.00     0.000 A 
ENDBRANCH   6   7
ENDBRANCH   1   6
TORSDOF 4
ENDMDL
MODEL 2
REMARK VINA RESULT:      -7.3      0.068      1.438
REMARK SMILES O=C(O)CCc1ccccc1
REMARK SMILES IDX 4 1 2 2 1 3 3 4 5 6 6 7 7 8 11 9 8 10 10 11 9 12
REMARK H PARENT 3 5
REMARK Flexibility Score: inf
ROOT
ATOM      1  C   UNL     1       8.427  -0.601  -2.172  1.00  0.00     0.127 C 
ENDROOT
BRANCH   1   2
ATOM      2  C   UNL     1       8.475  -1.888  -2.905  1.00  0.00     0.303 C 
ATOM      3  O   UNL     1       9.560  -2.493  -3.087  1.00  0.00    -0.252 OA
BRANCH   2   4
ATOM      4  O   UNL     1       7.319  -2.460  -3.411  1.00  0.00    -0.481 OA
ATOM      5  H   UNL     1       7.388  -3.308  -3.981  1.00  0.00     0.296 HD
ENDBRANCH   2   4
ENDBRANCH   1   2
BRANCH   1   6
ATOM      6  C   UNL     1       7.005  -0.129  -2.142  1.00  0.00     0.047 C 
BRANCH   6   7
ATOM      7  C   UNL     1       6.470   0.061  -0.795  1.00  0.00    -0.047 A 
ATOM      8  C   UNL     1       5.836   1.232  -0.448  1.00  0.00     0.004 A 
ATOM      9  C   UNL     1       6.604  -0.949   0.130  1.00  0.00     0.004 A 
ATOM     10  C   UNL     1       5.349   1.344   0.856  1.00  0.00     0.000 A 
ATOM     11  C   UNL     1       6.122  -0.837   1.419  1.00  0.00     0.000 A 
ATOM     12  C   UNL     1       5.487   0.333   1.774  1.00  0.00     0.000 A 
ENDBRANCH   6   7
ENDBRANCH   1   6
TORSDOF 4
ENDMDL
MODEL 3
REMARK VINA RESULT:      -7.2      0.647      1.589
REMARK SMILES O=C(O)CCc1ccccc1
REMARK SMILES IDX 4 1 2 2 1 3 3 4 5 6 6 7 7 8 11 9 8 10 10 11 9 12
REMARK H PARENT 3 5
REMARK Flexibility Score: inf
ROOT
ATOM      1  C   UNL     1       8.261  -0.924  -1.834  1.00  0.00     0.127 C 
ENDROOT
BRANCH   1   2
ATOM      2  C   UNL     1       8.406  -2.005  -2.837  1.00  0.00     0.303 C 
ATOM      3  O   UNL     1       9.531  -2.491  -3.112  1.00  0.00    -0.252 OA
BRANCH   2   4
ATOM      4  O   UNL     1       7.301  -2.510  -3.502  1.00  0.00    -0.481 OA
ATOM      5  H   UNL     1       7.339  -2.631  -4.518  1.00  0.00     0.296 HD
ENDBRANCH   2   4
ENDBRANCH   1   2
BRANCH   1   6
ATOM      6  C   UNL     1       7.285  -1.376  -0.792  1.00  0.00     0.047 C 
BRANCH   6   7
ATOM      7  C   UNL     1       6.503  -0.293  -0.199  1.00  0.00    -0.047 A 
ATOM      8  C   UNL     1       6.174   0.822  -0.935  1.00  0.00     0.004 A 
ATOM      9  C   UNL     1       6.093  -0.399   1.110  1.00  0.00     0.004 A 
ATOM     10  C   UNL     1       5.424   1.817  -0.304  1.00  0.00     0.000 A 
ATOM     11  C   UNL     1       5.352   0.586   1.732  1.00  0.00     0.000 A 
ATOM     12  C   UNL     1       5.020   1.706   1.002  1.00  0.00     0.000 A 
ENDBRANCH   6   7
ENDBRANCH   1   6
TORSDOF 4
ENDMDL
MODEL 4
REMARK VINA RESULT:      -6.8      3.375      5.060
REMARK SMILES O=C(O)CCc1ccccc1
REMARK SMILES IDX 4 1 2 2 1 3 3 4 5 6 6 7 7 8 11 9 8 10 10 11 9 12
REMARK H PARENT 3 5
REMARK Flexibility Score: inf
ROOT
ATOM      1  C   UNL     1       4.980   1.793   0.669  1.00  0.00     0.127 C 
ENDROOT
BRANCH   1   2
ATOM      2  C   UNL     1       4.491   1.122   1.896  1.00  0.00     0.303 C 
ATOM      3  O   UNL     1       5.169   0.233   2.466  1.00  0.00    -0.252 OA
BRANCH   2   4
ATOM      4  O   UNL     1       3.266   1.460   2.450  1.00  0.00    -0.481 OA
ATOM      5  H   UNL     1       2.706   0.735   2.906  1.00  0.00     0.296 HD
ENDBRANCH   2   4
ENDBRANCH   1   2
BRANCH   1   6
ATOM      6  C   UNL     1       6.478   1.813   0.709  1.00  0.00     0.047 C 
BRANCH   6   7
ATOM      7  C   UNL     1       7.111   1.048  -0.364  1.00  0.00    -0.047 A 
ATOM      8  C   UNL     1       6.380   0.166  -1.125  1.00  0.00     0.004 A 
ATOM      9  C   UNL     1       8.454   1.219  -0.608  1.00  0.00     0.004 A 
ATOM     10  C   UNL     1       7.050  -0.531  -2.133  1.00  0.00     0.000 A 
ATOM     11  C   UNL     1       9.115   0.529  -1.604  1.00  0.00     0.000 A 
ATOM     12  C   UNL     1       8.390  -0.357  -2.371  1.00  0.00     0.000 A 
ENDBRANCH   6   7
ENDBRANCH   1   6
TORSDOF 4
ENDMDL
MODEL 5
REMARK VINA RESULT:      -6.6      1.929      2.634
REMARK SMILES O=C(O)CCc1ccccc1
REMARK SMILES IDX 4 1 2 2 1 3 3 4 5 6 6 7 7 8 11 9 8 10 10 11 9 12
REMARK H PARENT 3 5
REMARK Flexibility Score: inf
ROOT
ATOM      1  C   UNL     1       8.270   0.134  -2.179  1.00  0.00     0.127 C 
ENDROOT
BRANCH   1   2
ATOM      2  C   UNL     1       9.387   0.322  -1.224  1.00  0.00     0.303 C 
ATOM      3  O   UNL     1       9.487  -0.386  -0.192  1.00  0.00    -0.252 OA
BRANCH   2   4
ATOM      4  O   UNL     1      10.356   1.288  -1.445  1.00  0.00    -0.481 OA
ATOM      5  H   UNL     1      11.194   1.300  -0.858  1.00  0.00     0.296 HD
ENDBRANCH   2   4
ENDBRANCH   1   2
BRANCH   1   6
ATOM      6  C   UNL     1       7.168  -0.599  -1.477  1.00  0.00     0.047 C 
BRANCH   6   7
ATOM      7  C   UNL     1       6.370   0.240  -0.585  1.00  0.00    -0.047 A 
ATOM      8  C   UNL     1       5.864   1.443  -1.017  1.00  0.00     0.004 A 
ATOM      9  C   UNL     1       6.126  -0.189   0.699  1.00  0.00     0.004 A 
ATOM     10  C   UNL     1       5.109   2.192  -0.111  1.00  0.00     0.000 A 
ATOM     11  C   UNL     1       5.379   0.552   1.594  1.00  0.00     0.000 A 
ATOM     12  C   UNL     1       4.869   1.760   1.169  1.00  0.00     0.000 A 
ENDBRANCH   6   7
ENDBRANCH   1   6
TORSDOF 4
ENDMDL
