@<TRIPOS>MOLECULE
/home/cewinharhar/GITHUB/reincatalyze/data/processed/docking_pred/2023-Apr-26-1657_maxeplen10_maxtrainstep1000_exh32_gamma099_lrac9e-4_lrcr1e-3/ab317eb7565d030be4138c7249420e244018cf00_ligand_2.pdbqt
 12 12 0 0 0
SMALL
GASTEIGER

@<TRIPOS>ATOM
      1  C          8.4270   -0.6010   -2.1720 C.3     1  UNL1        0.1270
      2  C          8.4750   -1.8880   -2.9050 C.2     1  UNL1        0.3030
      3  O          9.5600   -2.4930   -3.0870 O.2     1  UNL1       -0.2520
      4  O          7.3190   -2.4600   -3.4110 O.3     1  UNL1       -0.4810
      5  H          7.3880   -3.3080   -3.9810 H       1  UNL1        0.2960
      6  C          7.0050   -0.1290   -2.1420 C.3     1  UNL1        0.0470
      7  C          6.4700    0.0610   -0.7950 C.2     1  UNL1       -0.0470
      8  C          5.8360    1.2320   -0.4480 C.2     1  UNL1        0.0040
      9  C          6.6040   -0.9490    0.1300 C.2     1  UNL1        0.0040
     10  C          5.3490    1.3440    0.8560 C.2     1  UNL1        0.0000
     11  C          6.1220   -0.8370    1.4190 C.2     1  UNL1        0.0000
     12  C          5.4870    0.3330    1.7740 C.2     1  UNL1        0.0000
@<TRIPOS>BOND
     1     5     4    1
     2     4     2    1
     3     3     2    2
     4     2     1    1
     5     1     6    1
     6     6     7    1
     7     7     8    2
     8     7     9    1
     9     8    10    1
    10     9    11    2
    11    10    12    2
    12    11    12    1
