@<TRIPOS>MOLECULE
/home/cewinharhar/GITHUB/reincatalyze/data/processed/docking_pred/2023-Apr-26-1657_maxeplen10_maxtrainstep1000_exh32_gamma099_lrac9e-4_lrcr1e-3/ab317eb7565d030be4138c7249420e244018cf00_ligand_2.pdbqt
 12 12 0 0 0
SMALL
GASTEIGER

@<TRIPOS>ATOM
      1  C          8.4410   -0.5760   -2.2000 C.3     1  UNL1        0.1270
      2  C          8.4800   -1.8700   -2.9210 C.2     1  UNL1        0.3030
      3  O          9.5580   -2.4930   -3.0820 O.2     1  UNL1       -0.2520
      4  O          7.3230   -2.4300   -3.4380 O.3     1  UNL1       -0.4810
      5  H          7.2990   -2.7100   -4.4230 H       1  UNL1        0.2960
      6  C          7.0200   -0.1020   -2.1590 C.3     1  UNL1        0.0470
      7  C          6.4840    0.0540   -0.8080 C.2     1  UNL1       -0.0470
      8  C          6.6200   -0.9490    0.1230 C.2     1  UNL1        0.0040
      9  C          5.8400    1.2230   -0.4730 C.2     1  UNL1        0.0040
     10  C          6.0850   -0.7300    1.3940 C.2     1  UNL1        0.0000
     11  C          5.3110    1.4370    0.7840 C.2     1  UNL1        0.0000
     12  C          5.4420    0.4370    1.7230 C.2     1  UNL1        0.0000
@<TRIPOS>BOND
     1     5     4    1
     2     4     2    1
     3     3     2    2
     4     2     1    1
     5     1     6    1
     6     6     7    1
     7     7     9    2
     8     7     8    1
     9     9    11    1
    10     8    10    2
    11    11    12    2
    12    10    12    1
