@<TRIPOS>MOLECULE
/home/cewinharhar/GITHUB/reincatalyze/data/processed/docking_pred/2023-Apr-26-1657_maxeplen10_maxtrainstep1000_exh32_gamma099_lrac9e-4_lrcr1e-3/ab317eb7565d030be4138c7249420e244018cf00_ligand_2.pdbqt
 12 12 0 0 0
SMALL
GASTEIGER

@<TRIPOS>ATOM
      1  C          8.2610   -0.9240   -1.8340 C.3     1  UNL1        0.1270
      2  C          8.4060   -2.0050   -2.8370 C.2     1  UNL1        0.3030
      3  O          9.5310   -2.4910   -3.1120 O.2     1  UNL1       -0.2520
      4  O          7.3010   -2.5100   -3.5020 O.3     1  UNL1       -0.4810
      5  H          7.3390   -2.6310   -4.5180 H       1  UNL1        0.2960
      6  C          7.2850   -1.3760   -0.7920 C.3     1  UNL1        0.0470
      7  C          6.5030   -0.2930   -0.1990 C.2     1  UNL1       -0.0470
      8  C          6.1740    0.8220   -0.9350 C.2     1  UNL1        0.0040
      9  C          6.0930   -0.3990    1.1100 C.2     1  UNL1        0.0040
     10  C          5.4240    1.8170   -0.3040 C.2     1  UNL1        0.0000
     11  C          5.3520    0.5860    1.7320 C.2     1  UNL1        0.0000
     12  C          5.0200    1.7060    1.0020 C.2     1  UNL1        0.0000
@<TRIPOS>BOND
     1     5     4    1
     2     4     2    1
     3     3     2    2
     4     2     1    1
     5     1     6    1
     6     8    10    1
     7     8     7    2
     8     6     7    1
     9    10    12    2
    10     7     9    1
    11    12    11    1
    12     9    11    2
