@<TRIPOS>MOLECULE
/home/cewinharhar/GITHUB/reincatalyze/data/processed/docking_pred/2023-Apr-26-1657_maxeplen10_maxtrainstep1000_exh32_gamma099_lrac9e-4_lrcr1e-3/ab317eb7565d030be4138c7249420e244018cf00_ligand_2.pdbqt
 12 12 0 0 0
SMALL
GASTEIGER

@<TRIPOS>ATOM
      1  C          4.9800    1.7930    0.6690 C.3     1  UNL1        0.1270
      2  C          4.4910    1.1220    1.8960 C.2     1  UNL1        0.3030
      3  O          5.1690    0.2330    2.4660 O.2     1  UNL1       -0.2520
      4  O          3.2660    1.4600    2.4500 O.3     1  UNL1       -0.4810
      5  H          2.7060    0.7350    2.9060 H       1  UNL1        0.2960
      6  C          6.4780    1.8130    0.7090 C.3     1  UNL1        0.0470
      7  C          7.1110    1.0480   -0.3640 C.2     1  UNL1       -0.0470
      8  C          6.3800    0.1660   -1.1250 C.2     1  UNL1        0.0040
      9  C          8.4540    1.2190   -0.6080 C.2     1  UNL1        0.0040
     10  C          7.0500   -0.5310   -2.1330 C.2     1  UNL1        0.0000
     11  C          9.1150    0.5290   -1.6040 C.2     1  UNL1        0.0000
     12  C          8.3900   -0.3570   -2.3710 C.2     1  UNL1        0.0000
@<TRIPOS>BOND
     1    12    10    2
     2    12    11    1
     3    10     8    1
     4    11     9    2
     5     8     7    2
     6     9     7    1
     7     7     6    1
     8     1     6    1
     9     1     2    1
    10     2     4    1
    11     2     3    2
    12     4     5    1
