@<TRIPOS>MOLECULE
/home/cewinharhar/GITHUB/reincatalyze/data/processed/docking_pred/2023-Apr-26-1657_maxeplen10_maxtrainstep1000_exh32_gamma099_lrac9e-4_lrcr1e-3/ab5903e155d5198269deee73f32ad6fb308dffee_ligand_2.pdbqt
 12 12 0 0 0
SMALL
GASTEIGER

@<TRIPOS>ATOM
      1  C          8.4400   -0.7300   -2.0340 C.3     1  UNL1        0.1270
      2  C          8.4730   -1.9520   -2.8720 C.2     1  UNL1        0.3030
      3  O          9.5510   -2.5510   -3.1080 O.2     1  UNL1       -0.2520
      4  O          7.3100   -2.4680   -3.4210 O.3     1  UNL1       -0.4810
      5  H          6.7620   -3.1470   -2.8850 H       1  UNL1        0.2960
      6  C          7.0500   -0.1740   -2.0660 C.3     1  UNL1        0.0470
      7  C          6.4710    0.0580   -0.7440 C.2     1  UNL1       -0.0470
      8  C          5.8370    1.2430   -0.4520 C.2     1  UNL1        0.0040
      9  C          6.5650   -0.9270    0.2120 C.2     1  UNL1        0.0040
     10  C          5.3060    1.3950    0.8310 C.2     1  UNL1        0.0000
     11  C          6.0400   -0.7740    1.4800 C.2     1  UNL1        0.0000
     12  C          5.4040    0.4100    1.7810 C.2     1  UNL1        0.0000
@<TRIPOS>BOND
     1     4     5    1
     2     4     2    1
     3     3     2    2
     4     2     1    1
     5     6     1    1
     6     6     7    1
     7     7     8    2
     8     7     9    1
     9     8    10    1
    10     9    11    2
    11    10    12    2
    12    11    12    1
