@<TRIPOS>MOLECULE
/home/cewinharhar/GITHUB/reincatalyze/data/processed/docking_pred/2023-Apr-26-1657_maxeplen10_maxtrainstep1000_exh32_gamma099_lrac9e-4_lrcr1e-3/ab5903e155d5198269deee73f32ad6fb308dffee_ligand_2.pdbqt
 12 12 0 0 0
SMALL
GASTEIGER

@<TRIPOS>ATOM
      1  C          5.4320    2.8880    0.0250 C.3     1  UNL1        0.1270
      2  C          6.2320    3.8670    0.7980 C.2     1  UNL1        0.3030
      3  O          6.8820    4.7750    0.2230 O.2     1  UNL1       -0.2520
      4  O          6.2860    3.8060    2.1810 O.3     1  UNL1       -0.4810
      5  H          6.0530    4.6390    2.7290 H       1  UNL1        0.2960
      6  C          4.9720    1.8120    0.9610 C.3     1  UNL1        0.0470
      7  C          5.7710    0.5900    0.9010 C.2     1  UNL1       -0.0470
      8  C          6.4830    0.2700   -0.2320 C.2     1  UNL1        0.0040
      9  C          5.8070   -0.2440    1.9950 C.2     1  UNL1        0.0040
     10  C          7.2260   -0.9120   -0.2190 C.2     1  UNL1        0.0000
     11  C          6.5420   -1.4130    2.0050 C.2     1  UNL1        0.0000
     12  C          7.2570   -1.7400    0.8740 C.2     1  UNL1        0.0000
@<TRIPOS>BOND
     1     8    10    1
     2     8     7    2
     3    10    12    2
     4     1     2    1
     5     1     6    1
     6     3     2    2
     7     2     4    1
     8    12    11    1
     9     7     6    1
    10     7     9    1
    11     9    11    2
    12     4     5    1
