@<TRIPOS>MOLECULE
/home/cewinharhar/GITHUB/reincatalyze/data/processed/docking_pred/2023-Apr-26-1657_maxeplen10_maxtrainstep1000_exh32_gamma099_lrac9e-4_lrcr1e-3/ab5903e155d5198269deee73f32ad6fb308dffee_ligand_2.pdbqt
 12 12 0 0 0
SMALL
GASTEIGER

@<TRIPOS>ATOM
      1  C          8.1180    0.2980   -2.1110 C.3     1  UNL1        0.1270
      2  C          9.3010    0.3880   -1.2240 C.2     1  UNL1        0.3030
      3  O          9.4540   -0.4020   -0.2590 O.2     1  UNL1       -0.2520
      4  O         10.2750    1.3510   -1.4350 O.3     1  UNL1       -0.4810
      5  H         11.0110    1.4810   -0.7350 H       1  UNL1        0.2960
      6  C          7.0850   -0.5500   -1.4330 C.3     1  UNL1        0.0470
      7  C          6.3120    0.1570   -0.4130 C.2     1  UNL1       -0.0470
      8  C          5.7670    1.3930   -0.6740 C.2     1  UNL1        0.0040
      9  C          6.1310   -0.4290    0.8190 C.2     1  UNL1        0.0040
     10  C          5.0410    2.0100    0.3470 C.2     1  UNL1        0.0000
     11  C          5.4130    0.1830    1.8270 C.2     1  UNL1        0.0000
     12  C          4.8640    1.4210    1.5740 C.2     1  UNL1        0.0000
@<TRIPOS>BOND
     1     1     6    1
     2     1     2    1
     3     4     2    1
     4     4     5    1
     5     6     7    1
     6     2     3    2
     7     8     7    2
     8     8    10    1
     9     7     9    1
    10    10    12    2
    11     9    11    2
    12    12    11    1
