@<TRIPOS>MOLECULE
/home/cewinharhar/GITHUB/reincatalyze/data/processed/docking_pred/2023-Apr-26-1657_maxeplen10_maxtrainstep1000_exh32_gamma099_lrac9e-4_lrcr1e-3/ab5903e155d5198269deee73f32ad6fb308dffee_ligand_2.pdbqt
 12 12 0 0 0
SMALL
GASTEIGER

@<TRIPOS>ATOM
      1  C          8.4450   -0.5950   -2.1930 C.3     1  UNL1        0.1270
      2  C          8.4870   -1.8870   -2.9190 C.2     1  UNL1        0.3030
      3  O          9.5700   -2.4980   -3.0980 O.2     1  UNL1       -0.2520
      4  O          7.3290   -2.4560   -3.4230 O.3     1  UNL1       -0.4810
      5  H          7.3900   -3.3280   -3.9560 H       1  UNL1        0.2960
      6  C          7.0240   -0.1220   -2.1570 C.3     1  UNL1        0.0470
      7  C          6.4850    0.0370   -0.8070 C.2     1  UNL1       -0.0470
      8  C          6.6110   -0.9680    0.1240 C.2     1  UNL1        0.0040
      9  C          5.8480    1.2100   -0.4730 C.2     1  UNL1        0.0040
     10  C          6.0730   -0.7470    1.3940 C.2     1  UNL1        0.0000
     11  C          5.3160    1.4270    0.7830 C.2     1  UNL1        0.0000
     12  C          5.4380    0.4250    1.7210 C.2     1  UNL1        0.0000
@<TRIPOS>BOND
     1     5     4    1
     2     4     2    1
     3     3     2    2
     4     2     1    1
     5     1     6    1
     6     6     7    1
     7     7     9    2
     8     7     8    1
     9     9    11    1
    10     8    10    2
    11    11    12    2
    12    10    12    1
