MODEL 1
REMARK VINA RESULT:      -7.4      0.000      0.000
REMARK SMILES O=C(O)CCc1ccccc1
REMARK SMILES IDX 4 1 2 2 1 3 3 4 5 6 6 7 7 8 11 9 8 10 10 11 9 12
REMARK H PARENT 3 5
REMARK Flexibility Score: inf
ROOT
ATOM      1  C   UNL     1       8.445  -0.595  -2.193  1.00  0.00     0.127 C 
ENDROOT
BRANCH   1   2
ATOM      2  C   UNL     1       8.487  -1.887  -2.919  1.00  0.00     0.303 C 
ATOM      3  O   UNL     1       9.570  -2.498  -3.098  1.00  0.00    -0.252 OA
BRANCH   2   4
ATOM      4  O   UNL     1       7.329  -2.456  -3.423  1.00  0.00    -0.481 OA
ATOM      5  H   UNL     1       7.390  -3.328  -3.956  1.00  0.00     0.296 HD
ENDBRANCH   2   4
ENDBRANCH   1   2
BRANCH   1   6
ATOM      6  C   UNL     1       7.024  -0.122  -2.157  1.00  0.00     0.047 C 
BRANCH   6   7
ATOM      7  C   UNL     1       6.485   0.037  -0.807  1.00  0.00    -0.047 A 
ATOM      8  C   UNL     1       6.611  -0.968   0.124  1.00  0.00     0.004 A 
ATOM      9  C   UNL     1       5.848   1.210  -0.473  1.00  0.00     0.004 A 
ATOM     10  C   UNL     1       6.073  -0.747   1.394  1.00  0.00     0.000 A 
ATOM     11  C   UNL     1       5.316   1.427   0.783  1.00  0.00     0.000 A 
ATOM     12  C   UNL     1       5.438   0.425   1.721  1.00  0.00     0.000 A 
ENDBRANCH   6   7
ENDBRANCH   1   6
TORSDOF 4
ENDMDL
MODEL 2
REMARK VINA RESULT:      -7.4      0.096      1.439
REMARK SMILES O=C(O)CCc1ccccc1
REMARK SMILES IDX 4 1 2 2 1 3 3 4 5 6 6 7 7 8 11 9 8 10 10 11 9 12
REMARK H PARENT 3 5
REMARK Flexibility Score: inf
ROOT
ATOM      1  C   UNL     1       8.440  -0.730  -2.034  1.00  0.00     0.127 C 
ENDROOT
BRANCH   1   2
ATOM      2  C   UNL     1       8.473  -1.952  -2.872  1.00  0.00     0.303 C 
ATOM      3  O   UNL     1       9.551  -2.551  -3.108  1.00  0.00    -0.252 OA
BRANCH   2   4
ATOM      4  O   UNL     1       7.310  -2.468  -3.421  1.00  0.00    -0.481 OA
ATOM      5  H   UNL     1       6.762  -3.147  -2.885  1.00  0.00     0.296 HD
ENDBRANCH   2   4
ENDBRANCH   1   2
BRANCH   1   6
ATOM      6  C   UNL     1       7.050  -0.174  -2.066  1.00  0.00     0.047 C 
BRANCH   6   7
ATOM      7  C   UNL     1       6.471   0.058  -0.744  1.00  0.00    -0.047 A 
ATOM      8  C   UNL     1       5.837   1.243  -0.452  1.00  0.00     0.004 A 
ATOM      9  C   UNL     1       6.565  -0.927   0.212  1.00  0.00     0.004 A 
ATOM     10  C   UNL     1       5.306   1.395   0.831  1.00  0.00     0.000 A 
ATOM     11  C   UNL     1       6.040  -0.774   1.480  1.00  0.00     0.000 A 
ATOM     12  C   UNL     1       5.404   0.410   1.781  1.00  0.00     0.000 A 
ENDBRANCH   6   7
ENDBRANCH   1   6
TORSDOF 4
ENDMDL
MODEL 3
REMARK VINA RESULT:      -6.8      3.382      5.067
REMARK SMILES O=C(O)CCc1ccccc1
REMARK SMILES IDX 4 1 2 2 1 3 3 4 5 6 6 7 7 8 11 9 8 10 10 11 9 12
REMARK H PARENT 3 5
REMARK Flexibility Score: inf
ROOT
ATOM      1  C   UNL     1       4.987   1.768   0.687  1.00  0.00     0.127 C 
ENDROOT
BRANCH   1   2
ATOM      2  C   UNL     1       4.479   1.105   1.911  1.00  0.00     0.303 C 
ATOM      3  O   UNL     1       5.140   0.206   2.486  1.00  0.00    -0.252 OA
BRANCH   2   4
ATOM      4  O   UNL     1       3.255   1.461   2.456  1.00  0.00    -0.481 OA
ATOM      5  H   UNL     1       3.092   1.320   3.456  1.00  0.00     0.296 HD
ENDBRANCH   2   4
ENDBRANCH   1   2
BRANCH   1   6
ATOM      6  C   UNL     1       6.484   1.768   0.738  1.00  0.00     0.047 C 
BRANCH   6   7
ATOM      7  C   UNL     1       7.116   1.018  -0.346  1.00  0.00    -0.047 A 
ATOM      8  C   UNL     1       6.395   0.110  -1.086  1.00  0.00     0.004 A 
ATOM      9  C   UNL     1       8.447   1.231  -0.622  1.00  0.00     0.004 A 
ATOM     10  C   UNL     1       7.063  -0.570  -2.107  1.00  0.00     0.000 A 
ATOM     11  C   UNL     1       9.106   0.557  -1.632  1.00  0.00     0.000 A 
ATOM     12  C   UNL     1       8.391  -0.354  -2.378  1.00  0.00     0.000 A 
ENDBRANCH   6   7
ENDBRANCH   1   6
TORSDOF 4
ENDMDL
MODEL 4
REMARK VINA RESULT:      -6.7      3.817      5.009
REMARK SMILES O=C(O)CCc1ccccc1
REMARK SMILES IDX 4 1 2 2 1 3 3 4 5 6 6 7 7 8 11 9 8 10 10 11 9 12
REMARK H PARENT 3 5
REMARK Flexibility Score: inf
ROOT
ATOM      1  C   UNL     1       5.432   2.888   0.025  1.00  0.00     0.127 C 
ENDROOT
BRANCH   1   2
ATOM      2  C   UNL     1       6.232   3.867   0.798  1.00  0.00     0.303 C 
ATOM      3  O   UNL     1       6.882   4.775   0.223  1.00  0.00    -0.252 OA
BRANCH   2   4
ATOM      4  O   UNL     1       6.286   3.806   2.181  1.00  0.00    -0.481 OA
ATOM      5  H   UNL     1       6.053   4.639   2.729  1.00  0.00     0.296 HD
ENDBRANCH   2   4
ENDBRANCH   1   2
BRANCH   1   6
ATOM      6  C   UNL     1       4.972   1.812   0.961  1.00  0.00     0.047 C 
BRANCH   6   7
ATOM      7  C   UNL     1       5.771   0.590   0.901  1.00  0.00    -0.047 A 
ATOM      8  C   UNL     1       6.483   0.270  -0.232  1.00  0.00     0.004 A 
ATOM      9  C   UNL     1       5.807  -0.244   1.995  1.00  0.00     0.004 A 
ATOM     10  C   UNL     1       7.226  -0.912  -0.219  1.00  0.00     0.000 A 
ATOM     11  C   UNL     1       6.542  -1.413   2.005  1.00  0.00     0.000 A 
ATOM     12  C   UNL     1       7.257  -1.740   0.874  1.00  0.00     0.000 A 
ENDBRANCH   6   7
ENDBRANCH   1   6
TORSDOF 4
ENDMDL
MODEL 5
REMARK VINA RESULT:      -6.6      1.926      2.615
REMARK SMILES O=C(O)CCc1ccccc1
REMARK SMILES IDX 4 1 2 2 1 3 3 4 5 6 6 7 7 8 11 9 8 10 10 11 9 12
REMARK H PARENT 3 5
REMARK Flexibility Score: inf
ROOT
ATOM      1  C   UNL     1       8.118   0.298  -2.111  1.00  0.00     0.127 C 
ENDROOT
BRANCH   1   2
ATOM      2  C   UNL     1       9.301   0.388  -1.224  1.00  0.00     0.303 C 
ATOM      3  O   UNL     1       9.454  -0.402  -0.259  1.00  0.00    -0.252 OA
BRANCH   2   4
ATOM      4  O   UNL     1      10.275   1.351  -1.435  1.00  0.00    -0.481 OA
ATOM      5  H   UNL     1      11.011   1.481  -0.735  1.00  0.00     0.296 HD
ENDBRANCH   2   4
ENDBRANCH   1   2
BRANCH   1   6
ATOM      6  C   UNL     1       7.085  -0.550  -1.433  1.00  0.00     0.047 C 
BRANCH   6   7
ATOM      7  C   UNL     1       6.312   0.157  -0.413  1.00  0.00    -0.047 A 
ATOM      8  C   UNL     1       5.767   1.393  -0.674  1.00  0.00     0.004 A 
ATOM      9  C   UNL     1       6.131  -0.429   0.819  1.00  0.00     0.004 A 
ATOM     10  C   UNL     1       5.041   2.010   0.347  1.00  0.00     0.000 A 
ATOM     11  C   UNL     1       5.413   0.183   1.827  1.00  0.00     0.000 A 
ATOM     12  C   UNL     1       4.864   1.421   1.574  1.00  0.00     0.000 A 
ENDBRANCH   6   7
ENDBRANCH   1   6
TORSDOF 4
ENDMDL
