@<TRIPOS>MOLECULE
/home/cewinharhar/GITHUB/reincatalyze/data/processed/docking_pred/2023-Apr-26-1657_maxeplen10_maxtrainstep1000_exh32_gamma099_lrac9e-4_lrcr1e-3/ab5903e155d5198269deee73f32ad6fb308dffee_ligand_2.pdbqt
 12 12 0 0 0
SMALL
GASTEIGER

@<TRIPOS>ATOM
      1  C          4.9870    1.7680    0.6870 C.3     1  UNL1        0.1270
      2  C          4.4790    1.1050    1.9110 C.2     1  UNL1        0.3030
      3  O          5.1400    0.2060    2.4860 O.2     1  UNL1       -0.2520
      4  O          3.2550    1.4610    2.4560 O.3     1  UNL1       -0.4810
      5  H          3.0920    1.3200    3.4560 H       1  UNL1        0.2960
      6  C          6.4840    1.7680    0.7380 C.3     1  UNL1        0.0470
      7  C          7.1160    1.0180   -0.3460 C.2     1  UNL1       -0.0470
      8  C          6.3950    0.1100   -1.0860 C.2     1  UNL1        0.0040
      9  C          8.4470    1.2310   -0.6220 C.2     1  UNL1        0.0040
     10  C          7.0630   -0.5700   -2.1070 C.2     1  UNL1        0.0000
     11  C          9.1060    0.5570   -1.6320 C.2     1  UNL1        0.0000
     12  C          8.3910   -0.3540   -2.3780 C.2     1  UNL1        0.0000
@<TRIPOS>BOND
     1    12    10    2
     2    12    11    1
     3    10     8    1
     4    11     9    2
     5     8     7    2
     6     9     7    1
     7     7     6    1
     8     1     6    1
     9     1     2    1
    10     2     4    1
    11     2     3    2
    12     4     5    1
