@<TRIPOS>MOLECULE
/home/cewinharhar/GITHUB/reincatalyze/data/processed/docking_pred/2023-Apr-26-1657_maxeplen10_maxtrainstep1000_exh32_gamma099_lrac9e-4_lrcr1e-3/ab955c776f37f5544fae82246801d9a2769dfb79_ligand_2.pdbqt
 12 12 0 0 0
SMALL
GASTEIGER

@<TRIPOS>ATOM
      1  C          8.2530    0.2480   -2.2210 C.3     1  UNL1        0.1270
      2  C          9.3780    0.3450   -1.2610 C.2     1  UNL1        0.3030
      3  O          9.4440   -0.4070   -0.2570 O.2     1  UNL1       -0.2520
      4  O         10.3910    1.2720   -1.4460 O.3     1  UNL1       -0.4810
      5  H         11.0880    1.4060   -0.7090 H       1  UNL1        0.2960
      6  C          7.1400   -0.5140   -1.5660 C.3     1  UNL1        0.0470
      7  C          6.3570    0.2760   -0.6180 C.2     1  UNL1       -0.0470
      8  C          6.1410   -0.1750    0.6630 C.2     1  UNL1        0.0040
      9  C          5.8350    1.4840   -1.0210 C.2     1  UNL1        0.0040
     10  C          5.3840    0.6320    1.5150 C.2     1  UNL1        0.0000
     11  C          5.0860    2.2800   -0.1770 C.2     1  UNL1        0.0000
     12  C          4.8650    1.8350    1.1080 C.2     1  UNL1        0.0000
@<TRIPOS>BOND
     1     1     6    1
     2     1     2    1
     3     6     7    1
     4     4     2    1
     5     4     5    1
     6     2     3    2
     7     9     7    2
     8     9    11    1
     9     7     8    1
    10    11    12    2
    11     8    10    2
    12    12    10    1
