@<TRIPOS>MOLECULE
/home/cewinharhar/GITHUB/reincatalyze/data/processed/docking_pred/2023-Apr-26-1657_maxeplen10_maxtrainstep1000_exh32_gamma099_lrac9e-4_lrcr1e-3/ab955c776f37f5544fae82246801d9a2769dfb79_ligand_2.pdbqt
 12 12 0 0 0
SMALL
GASTEIGER

@<TRIPOS>ATOM
      1  C          4.9970    1.7880    0.7040 C.3     1  UNL1        0.1270
      2  C          4.4810    1.1110    1.9170 C.2     1  UNL1        0.3030
      3  O          5.1380    0.2050    2.4860 O.2     1  UNL1       -0.2520
      4  O          3.2540    1.4610    2.4570 O.3     1  UNL1       -0.4810
      5  H          2.8440    0.8760    3.1910 H       1  UNL1        0.2960
      6  C          6.4940    1.7670    0.7550 C.3     1  UNL1        0.0470
      7  C          7.1160    1.0150   -0.3340 C.2     1  UNL1       -0.0470
      8  C          6.3890    0.1040   -1.0640 C.2     1  UNL1        0.0040
      9  C          8.4430    1.2290   -0.6260 C.2     1  UNL1        0.0040
     10  C          7.0470   -0.5780   -2.0900 C.2     1  UNL1        0.0000
     11  C          9.0920    0.5540   -1.6400 C.2     1  UNL1        0.0000
     12  C          8.3710   -0.3610   -2.3760 C.2     1  UNL1        0.0000
@<TRIPOS>BOND
     1    12    10    2
     2    12    11    1
     3    10     8    1
     4    11     9    2
     5     8     7    2
     6     9     7    1
     7     7     6    1
     8     1     6    1
     9     1     2    1
    10     2     4    1
    11     2     3    2
    12     4     5    1
