@<TRIPOS>MOLECULE
/home/cewinharhar/GITHUB/reincatalyze/data/processed/docking_pred/2023-Apr-26-1657_maxeplen10_maxtrainstep1000_exh32_gamma099_lrac9e-4_lrcr1e-3/ab955c776f37f5544fae82246801d9a2769dfb79_ligand_2.pdbqt
 12 12 0 0 0
SMALL
GASTEIGER

@<TRIPOS>ATOM
      1  C          8.4600   -0.6590   -2.1000 C.3     1  UNL1        0.1270
      2  C          8.4690   -1.9140   -2.8890 C.2     1  UNL1        0.3030
      3  O          9.5350   -2.5450   -3.0960 O.2     1  UNL1       -0.2520
      4  O          7.2970   -2.4260   -3.4220 O.3     1  UNL1       -0.4810
      5  H          6.9010   -3.2840   -3.0300 H       1  UNL1        0.2960
      6  C          7.0620   -0.1190   -2.0900 C.3     1  UNL1        0.0470
      7  C          6.4930    0.0350   -0.7520 C.2     1  UNL1       -0.0470
      8  C          6.6010   -0.9720    0.1780 C.2     1  UNL1        0.0040
      9  C          5.8470    1.2050   -0.4280 C.2     1  UNL1        0.0040
     10  C          6.0360   -0.7560    1.4370 C.2     1  UNL1        0.0000
     11  C          5.2880    1.4180    0.8160 C.2     1  UNL1        0.0000
     12  C          5.3910    0.4130    1.7540 C.2     1  UNL1        0.0000
@<TRIPOS>BOND
     1     4     5    1
     2     4     2    1
     3     3     2    2
     4     2     1    1
     5     1     6    1
     6     6     7    1
     7     7     9    2
     8     7     8    1
     9     9    11    1
    10     8    10    2
    11    11    12    2
    12    10    12    1
