MODEL 1
REMARK VINA RESULT:      -7.4      0.000      0.000
REMARK SMILES O=C(O)CCc1ccccc1
REMARK SMILES IDX 4 1 2 2 1 3 3 4 5 6 6 7 7 8 11 9 8 10 10 11 9 12
REMARK H PARENT 3 5
REMARK Flexibility Score: inf
ROOT
ATOM      1  C   UNL     1       8.460  -0.659  -2.100  1.00  0.00     0.127 C 
ENDROOT
BRANCH   1   2
ATOM      2  C   UNL     1       8.469  -1.914  -2.889  1.00  0.00     0.303 C 
ATOM      3  O   UNL     1       9.535  -2.545  -3.096  1.00  0.00    -0.252 OA
BRANCH   2   4
ATOM      4  O   UNL     1       7.297  -2.426  -3.422  1.00  0.00    -0.481 OA
ATOM      5  H   UNL     1       6.901  -3.284  -3.030  1.00  0.00     0.296 HD
ENDBRANCH   2   4
ENDBRANCH   1   2
BRANCH   1   6
ATOM      6  C   UNL     1       7.062  -0.119  -2.090  1.00  0.00     0.047 C 
BRANCH   6   7
ATOM      7  C   UNL     1       6.493   0.035  -0.752  1.00  0.00    -0.047 A 
ATOM      8  C   UNL     1       6.601  -0.972   0.178  1.00  0.00     0.004 A 
ATOM      9  C   UNL     1       5.847   1.205  -0.428  1.00  0.00     0.004 A 
ATOM     10  C   UNL     1       6.036  -0.756   1.437  1.00  0.00     0.000 A 
ATOM     11  C   UNL     1       5.288   1.418   0.816  1.00  0.00     0.000 A 
ATOM     12  C   UNL     1       5.391   0.413   1.754  1.00  0.00     0.000 A 
ENDBRANCH   6   7
ENDBRANCH   1   6
TORSDOF 4
ENDMDL
MODEL 2
REMARK VINA RESULT:      -7.3      0.107      1.731
REMARK SMILES O=C(O)CCc1ccccc1
REMARK SMILES IDX 4 1 2 2 1 3 3 4 5 6 6 7 7 8 11 9 8 10 10 11 9 12
REMARK H PARENT 3 5
REMARK Flexibility Score: inf
ROOT
ATOM      1  C   UNL     1       8.397  -0.647  -2.082  1.00  0.00     0.127 C 
ENDROOT
BRANCH   1   2
ATOM      2  C   UNL     1       8.361  -1.896  -2.880  1.00  0.00     0.303 C 
ATOM      3  O   UNL     1       7.272  -2.399  -3.252  1.00  0.00    -0.252 OA
BRANCH   2   4
ATOM      4  O   UNL     1       9.532  -2.543  -3.238  1.00  0.00    -0.481 OA
ATOM      5  H   UNL     1      10.432  -2.140  -2.962  1.00  0.00     0.296 HD
ENDBRANCH   2   4
ENDBRANCH   1   2
BRANCH   1   6
ATOM      6  C   UNL     1       7.020  -0.057  -2.068  1.00  0.00     0.047 C 
BRANCH   6   7
ATOM      7  C   UNL     1       6.456   0.107  -0.729  1.00  0.00    -0.047 A 
ATOM      8  C   UNL     1       5.800   1.264  -0.380  1.00  0.00     0.004 A 
ATOM      9  C   UNL     1       6.588  -0.913   0.184  1.00  0.00     0.004 A 
ATOM     10  C   UNL     1       5.286   1.352   0.916  1.00  0.00     0.000 A 
ATOM     11  C   UNL     1       6.080  -0.825   1.465  1.00  0.00     0.000 A 
ATOM     12  C   UNL     1       5.421   0.331   1.823  1.00  0.00     0.000 A 
ENDBRANCH   6   7
ENDBRANCH   1   6
TORSDOF 4
ENDMDL
MODEL 3
REMARK VINA RESULT:      -6.8      3.371      5.066
REMARK SMILES O=C(O)CCc1ccccc1
REMARK SMILES IDX 4 1 2 2 1 3 3 4 5 6 6 7 7 8 11 9 8 10 10 11 9 12
REMARK H PARENT 3 5
REMARK Flexibility Score: inf
ROOT
ATOM      1  C   UNL     1       4.997   1.788   0.704  1.00  0.00     0.127 C 
ENDROOT
BRANCH   1   2
ATOM      2  C   UNL     1       4.481   1.111   1.917  1.00  0.00     0.303 C 
ATOM      3  O   UNL     1       5.138   0.205   2.486  1.00  0.00    -0.252 OA
BRANCH   2   4
ATOM      4  O   UNL     1       3.254   1.461   2.457  1.00  0.00    -0.481 OA
ATOM      5  H   UNL     1       2.844   0.876   3.191  1.00  0.00     0.296 HD
ENDBRANCH   2   4
ENDBRANCH   1   2
BRANCH   1   6
ATOM      6  C   UNL     1       6.494   1.767   0.755  1.00  0.00     0.047 C 
BRANCH   6   7
ATOM      7  C   UNL     1       7.116   1.015  -0.334  1.00  0.00    -0.047 A 
ATOM      8  C   UNL     1       6.389   0.104  -1.064  1.00  0.00     0.004 A 
ATOM      9  C   UNL     1       8.443   1.229  -0.626  1.00  0.00     0.004 A 
ATOM     10  C   UNL     1       7.047  -0.578  -2.090  1.00  0.00     0.000 A 
ATOM     11  C   UNL     1       9.092   0.554  -1.640  1.00  0.00     0.000 A 
ATOM     12  C   UNL     1       8.371  -0.361  -2.376  1.00  0.00     0.000 A 
ENDBRANCH   6   7
ENDBRANCH   1   6
TORSDOF 4
ENDMDL
MODEL 4
REMARK VINA RESULT:      -6.7      1.929      2.299
REMARK SMILES O=C(O)CCc1ccccc1
REMARK SMILES IDX 4 1 2 2 1 3 3 4 5 6 6 7 7 8 11 9 8 10 10 11 9 12
REMARK H PARENT 3 5
REMARK Flexibility Score: inf
ROOT
ATOM      1  C   UNL     1       8.253   0.248  -2.221  1.00  0.00     0.127 C 
ENDROOT
BRANCH   1   2
ATOM      2  C   UNL     1       9.378   0.345  -1.261  1.00  0.00     0.303 C 
ATOM      3  O   UNL     1       9.444  -0.407  -0.257  1.00  0.00    -0.252 OA
BRANCH   2   4
ATOM      4  O   UNL     1      10.391   1.272  -1.446  1.00  0.00    -0.481 OA
ATOM      5  H   UNL     1      11.088   1.406  -0.709  1.00  0.00     0.296 HD
ENDBRANCH   2   4
ENDBRANCH   1   2
BRANCH   1   6
ATOM      6  C   UNL     1       7.140  -0.514  -1.566  1.00  0.00     0.047 C 
BRANCH   6   7
ATOM      7  C   UNL     1       6.357   0.276  -0.618  1.00  0.00    -0.047 A 
ATOM      8  C   UNL     1       6.141  -0.175   0.663  1.00  0.00     0.004 A 
ATOM      9  C   UNL     1       5.835   1.484  -1.021  1.00  0.00     0.004 A 
ATOM     10  C   UNL     1       5.384   0.632   1.515  1.00  0.00     0.000 A 
ATOM     11  C   UNL     1       5.086   2.280  -0.177  1.00  0.00     0.000 A 
ATOM     12  C   UNL     1       4.865   1.835   1.108  1.00  0.00     0.000 A 
ENDBRANCH   6   7
ENDBRANCH   1   6
TORSDOF 4
ENDMDL
MODEL 5
REMARK VINA RESULT:      -6.6      1.865      2.816
REMARK SMILES O=C(O)CCc1ccccc1
REMARK SMILES IDX 4 1 2 2 1 3 3 4 5 6 6 7 7 8 11 9 8 10 10 11 9 12
REMARK H PARENT 3 5
REMARK Flexibility Score: inf
ROOT
ATOM      1  C   UNL     1       8.200  -1.531   1.069  1.00  0.00     0.127 C 
ENDROOT
BRANCH   1   2
ATOM      2  C   UNL     1       8.480  -2.767   0.301  1.00  0.00     0.303 C 
ATOM      3  O   UNL     1       9.098  -3.729   0.820  1.00  0.00    -0.252 OA
BRANCH   2   4
ATOM      4  O   UNL     1       8.068  -2.894  -1.016  1.00  0.00    -0.481 OA
ATOM      5  H   UNL     1       7.593  -2.109  -1.470  1.00  0.00     0.296 HD
ENDBRANCH   2   4
ENDBRANCH   1   2
BRANCH   1   6
ATOM      6  C   UNL     1       6.717  -1.418   1.253  1.00  0.00     0.047 C 
BRANCH   6   7
ATOM      7  C   UNL     1       6.152  -0.158   0.772  1.00  0.00    -0.047 A 
ATOM      8  C   UNL     1       5.387   0.631   1.599  1.00  0.00     0.004 A 
ATOM      9  C   UNL     1       6.397   0.236  -0.523  1.00  0.00     0.004 A 
ATOM     10  C   UNL     1       4.881   1.822   1.073  1.00  0.00     0.000 A 
ATOM     11  C   UNL     1       5.896   1.414  -1.042  1.00  0.00     0.000 A 
ATOM     12  C   UNL     1       5.127   2.209  -0.220  1.00  0.00     0.000 A 
ENDBRANCH   6   7
ENDBRANCH   1   6
TORSDOF 4
ENDMDL
