@<TRIPOS>MOLECULE
/home/cewinharhar/GITHUB/reincatalyze/data/processed/docking_pred/2023-Apr-26-1657_maxeplen10_maxtrainstep1000_exh32_gamma099_lrac9e-4_lrcr1e-3/ab955c776f37f5544fae82246801d9a2769dfb79_ligand_2.pdbqt
 12 12 0 0 0
SMALL
GASTEIGER

@<TRIPOS>ATOM
      1  C          8.2000   -1.5310    1.0690 C.3     1  UNL1        0.1270
      2  C          8.4800   -2.7670    0.3010 C.2     1  UNL1        0.3030
      3  O          9.0980   -3.7290    0.8200 O.2     1  UNL1       -0.2520
      4  O          8.0680   -2.8940   -1.0160 O.3     1  UNL1       -0.4810
      5  H          7.5930   -2.1090   -1.4700 H       1  UNL1        0.2960
      6  C          6.7170   -1.4180    1.2530 C.3     1  UNL1        0.0470
      7  C          6.1520   -0.1580    0.7720 C.2     1  UNL1       -0.0470
      8  C          5.3870    0.6310    1.5990 C.2     1  UNL1        0.0040
      9  C          6.3970    0.2360   -0.5230 C.2     1  UNL1        0.0040
     10  C          4.8810    1.8220    1.0730 C.2     1  UNL1        0.0000
     11  C          5.8960    1.4140   -1.0420 C.2     1  UNL1        0.0000
     12  C          5.1270    2.2090   -0.2200 C.2     1  UNL1        0.0000
@<TRIPOS>BOND
     1     5     4    1
     2    11     9    1
     3    11    12    2
     4     4     2    1
     5     9     7    2
     6    12    10    1
     7     2     3    2
     8     2     1    1
     9     7     6    1
    10     7     8    1
    11     1     6    1
    12    10     8    2
