@<TRIPOS>MOLECULE
/home/cewinharhar/GITHUB/reincatalyze/data/processed/docking_pred/2023-Apr-26-1657_maxeplen10_maxtrainstep1000_exh32_gamma099_lrac9e-4_lrcr1e-3/ada201db5b439d74c350b173ce56903753062bb1_ligand_2.pdbqt
 12 12 0 0 0
SMALL
GASTEIGER

@<TRIPOS>ATOM
      1  C          8.4620   -0.6290   -2.1330 C.3     1  UNL1        0.1270
      2  C          8.4760   -1.9030   -2.8890 C.2     1  UNL1        0.3030
      3  O          9.5460   -2.5330   -3.0820 O.2     1  UNL1       -0.2520
      4  O          7.3060   -2.4360   -3.4050 O.3     1  UNL1       -0.4810
      5  H          6.8590   -3.2220   -2.9260 H       1  UNL1        0.2960
      6  C          7.0560   -0.1100   -2.1120 C.3     1  UNL1        0.0470
      7  C          6.5000    0.0460   -0.7690 C.2     1  UNL1       -0.0470
      8  C          6.5940   -0.9700    0.1540 C.2     1  UNL1        0.0040
      9  C          5.8790    1.2270   -0.4330 C.2     1  UNL1        0.0040
     10  C          6.0410   -0.7510    1.4170 C.2     1  UNL1        0.0000
     11  C          5.3320    1.4410    0.8170 C.2     1  UNL1        0.0000
     12  C          5.4220    0.4280    1.7470 C.2     1  UNL1        0.0000
@<TRIPOS>BOND
     1     4     5    1
     2     4     2    1
     3     3     2    2
     4     2     1    1
     5     1     6    1
     6     6     7    1
     7     7     9    2
     8     7     8    1
     9     9    11    1
    10     8    10    2
    11    11    12    2
    12    10    12    1
