@<TRIPOS>MOLECULE
/home/cewinharhar/GITHUB/reincatalyze/data/processed/docking_pred/2023-Apr-26-1657_maxeplen10_maxtrainstep1000_exh32_gamma099_lrac9e-4_lrcr1e-3/ada201db5b439d74c350b173ce56903753062bb1_ligand_2.pdbqt
 12 12 0 0 0
SMALL
GASTEIGER

@<TRIPOS>ATOM
      1  C          8.4300   -0.6640   -2.0710 C.3     1  UNL1        0.1270
      2  C          8.3900   -1.9150   -2.8640 C.2     1  UNL1        0.3030
      3  O          7.2990   -2.4200   -3.2270 O.2     1  UNL1       -0.2520
      4  O          9.5590   -2.5640   -3.2270 O.3     1  UNL1       -0.4810
      5  H          9.7900   -2.6640   -4.2190 H       1  UNL1        0.2960
      6  C          7.0590   -0.0590   -2.0760 C.3     1  UNL1        0.0470
      7  C          6.4770    0.1060   -0.7450 C.2     1  UNL1       -0.0470
      8  C          5.8110    1.2610   -0.4070 C.2     1  UNL1        0.0040
      9  C          6.6010   -0.9120    0.1720 C.2     1  UNL1        0.0040
     10  C          5.2800    1.3490    0.8820 C.2     1  UNL1        0.0000
     11  C          6.0750   -0.8230    1.4460 C.2     1  UNL1        0.0000
     12  C          5.4070    0.3310    1.7930 C.2     1  UNL1        0.0000
@<TRIPOS>BOND
     1     5     4    1
     2     3     2    2
     3     4     2    1
     4     2     1    1
     5     6     1    1
     6     6     7    1
     7     7     8    2
     8     7     9    1
     9     8    10    1
    10     9    11    2
    11    10    12    2
    12    11    12    1
