@<TRIPOS>MOLECULE
/home/cewinharhar/GITHUB/reincatalyze/data/processed/docking_pred/2023-Apr-26-1657_maxeplen10_maxtrainstep1000_exh32_gamma099_lrac9e-4_lrcr1e-3/ada201db5b439d74c350b173ce56903753062bb1_ligand_2.pdbqt
 12 12 0 0 0
SMALL
GASTEIGER

@<TRIPOS>ATOM
      1  C          8.2820   -1.0740   -1.6880 C.3     1  UNL1        0.1270
      2  C          8.3200   -2.0530   -2.7990 C.2     1  UNL1        0.3030
      3  O          7.2660   -2.4470   -3.3560 O.2     1  UNL1       -0.2520
      4  O          9.5250   -2.5640   -3.2540 O.3     1  UNL1       -0.4810
      5  H         10.2890   -1.9200   -3.4790 H       1  UNL1        0.2960
      6  C          7.2100   -1.4930   -0.7280 C.3     1  UNL1        0.0470
      7  C          6.4650   -0.3780   -0.1450 C.2     1  UNL1       -0.0470
      8  C          6.0410   -0.4220    1.1620 C.2     1  UNL1        0.0040
      9  C          6.1920    0.7250   -0.9210 C.2     1  UNL1        0.0040
     10  C          5.3350    0.6790    1.6530 C.2     1  UNL1        0.0000
     11  C          5.4940    1.8120   -0.4350 C.2     1  UNL1        0.0000
     12  C          5.0640    1.7760    0.8740 C.2     1  UNL1        0.0000
@<TRIPOS>BOND
     1     5     4    1
     2     3     2    2
     3     4     2    1
     4     2     1    1
     5     1     6    1
     6     9    11    1
     7     9     7    2
     8     6     7    1
     9    11    12    2
    10     7     8    1
    11    12    10    1
    12     8    10    2
