MODEL 1
REMARK VINA RESULT:      -7.4      0.000      0.000
REMARK SMILES O=C(O)CCc1ccccc1
REMARK SMILES IDX 4 1 2 2 1 3 3 4 5 6 6 7 7 8 11 9 8 10 10 11 9 12
REMARK H PARENT 3 5
REMARK Flexibility Score: inf
ROOT
ATOM      1  C   UNL     1       8.462  -0.629  -2.133  1.00  0.00     0.127 C 
ENDROOT
BRANCH   1   2
ATOM      2  C   UNL     1       8.476  -1.903  -2.889  1.00  0.00     0.303 C 
ATOM      3  O   UNL     1       9.546  -2.533  -3.082  1.00  0.00    -0.252 OA
BRANCH   2   4
ATOM      4  O   UNL     1       7.306  -2.436  -3.405  1.00  0.00    -0.481 OA
ATOM      5  H   UNL     1       6.859  -3.222  -2.926  1.00  0.00     0.296 HD
ENDBRANCH   2   4
ENDBRANCH   1   2
BRANCH   1   6
ATOM      6  C   UNL     1       7.056  -0.110  -2.112  1.00  0.00     0.047 C 
BRANCH   6   7
ATOM      7  C   UNL     1       6.500   0.046  -0.769  1.00  0.00    -0.047 A 
ATOM      8  C   UNL     1       6.594  -0.970   0.154  1.00  0.00     0.004 A 
ATOM      9  C   UNL     1       5.879   1.227  -0.433  1.00  0.00     0.004 A 
ATOM     10  C   UNL     1       6.041  -0.751   1.417  1.00  0.00     0.000 A 
ATOM     11  C   UNL     1       5.332   1.441   0.817  1.00  0.00     0.000 A 
ATOM     12  C   UNL     1       5.422   0.428   1.747  1.00  0.00     0.000 A 
ENDBRANCH   6   7
ENDBRANCH   1   6
TORSDOF 4
ENDMDL
MODEL 2
REMARK VINA RESULT:      -7.3      0.105      1.731
REMARK SMILES O=C(O)CCc1ccccc1
REMARK SMILES IDX 4 1 2 2 1 3 3 4 5 6 6 7 7 8 11 9 8 10 10 11 9 12
REMARK H PARENT 3 5
REMARK Flexibility Score: inf
ROOT
ATOM      1  C   UNL     1       8.430  -0.664  -2.071  1.00  0.00     0.127 C 
ENDROOT
BRANCH   1   2
ATOM      2  C   UNL     1       8.390  -1.915  -2.864  1.00  0.00     0.303 C 
ATOM      3  O   UNL     1       7.299  -2.420  -3.227  1.00  0.00    -0.252 OA
BRANCH   2   4
ATOM      4  O   UNL     1       9.559  -2.564  -3.227  1.00  0.00    -0.481 OA
ATOM      5  H   UNL     1       9.790  -2.664  -4.219  1.00  0.00     0.296 HD
ENDBRANCH   2   4
ENDBRANCH   1   2
BRANCH   1   6
ATOM      6  C   UNL     1       7.059  -0.059  -2.076  1.00  0.00     0.047 C 
BRANCH   6   7
ATOM      7  C   UNL     1       6.477   0.106  -0.745  1.00  0.00    -0.047 A 
ATOM      8  C   UNL     1       5.811   1.261  -0.407  1.00  0.00     0.004 A 
ATOM      9  C   UNL     1       6.601  -0.912   0.172  1.00  0.00     0.004 A 
ATOM     10  C   UNL     1       5.280   1.349   0.882  1.00  0.00     0.000 A 
ATOM     11  C   UNL     1       6.075  -0.823   1.446  1.00  0.00     0.000 A 
ATOM     12  C   UNL     1       5.407   0.331   1.793  1.00  0.00     0.000 A 
ENDBRANCH   6   7
ENDBRANCH   1   6
TORSDOF 4
ENDMDL
MODEL 3
REMARK VINA RESULT:      -7.1      0.680      1.489
REMARK SMILES O=C(O)CCc1ccccc1
REMARK SMILES IDX 4 1 2 2 1 3 3 4 5 6 6 7 7 8 11 9 8 10 10 11 9 12
REMARK H PARENT 3 5
REMARK Flexibility Score: inf
ROOT
ATOM      1  C   UNL     1       8.282  -1.074  -1.688  1.00  0.00     0.127 C 
ENDROOT
BRANCH   1   2
ATOM      2  C   UNL     1       8.320  -2.053  -2.799  1.00  0.00     0.303 C 
ATOM      3  O   UNL     1       7.266  -2.447  -3.356  1.00  0.00    -0.252 OA
BRANCH   2   4
ATOM      4  O   UNL     1       9.525  -2.564  -3.254  1.00  0.00    -0.481 OA
ATOM      5  H   UNL     1      10.289  -1.920  -3.479  1.00  0.00     0.296 HD
ENDBRANCH   2   4
ENDBRANCH   1   2
BRANCH   1   6
ATOM      6  C   UNL     1       7.210  -1.493  -0.728  1.00  0.00     0.047 C 
BRANCH   6   7
ATOM      7  C   UNL     1       6.465  -0.378  -0.145  1.00  0.00    -0.047 A 
ATOM      8  C   UNL     1       6.041  -0.422   1.162  1.00  0.00     0.004 A 
ATOM      9  C   UNL     1       6.192   0.725  -0.921  1.00  0.00     0.004 A 
ATOM     10  C   UNL     1       5.335   0.679   1.653  1.00  0.00     0.000 A 
ATOM     11  C   UNL     1       5.494   1.812  -0.435  1.00  0.00     0.000 A 
ATOM     12  C   UNL     1       5.064   1.776   0.874  1.00  0.00     0.000 A 
ENDBRANCH   6   7
ENDBRANCH   1   6
TORSDOF 4
ENDMDL
MODEL 4
REMARK VINA RESULT:      -6.7      3.328      5.035
REMARK SMILES O=C(O)CCc1ccccc1
REMARK SMILES IDX 4 1 2 2 1 3 3 4 5 6 6 7 7 8 11 9 8 10 10 11 9 12
REMARK H PARENT 3 5
REMARK Flexibility Score: inf
ROOT
ATOM      1  C   UNL     1       5.040   1.730   0.667  1.00  0.00     0.127 C 
ENDROOT
BRANCH   1   2
ATOM      2  C   UNL     1       4.602   1.049   1.909  1.00  0.00     0.303 C 
ATOM      3  O   UNL     1       5.335   0.206   2.482  1.00  0.00    -0.252 OA
BRANCH   2   4
ATOM      4  O   UNL     1       3.366   1.324   2.471  1.00  0.00    -0.481 OA
ATOM      5  H   UNL     1       3.289   2.066   3.173  1.00  0.00     0.296 HD
ENDBRANCH   2   4
ENDBRANCH   1   2
BRANCH   1   6
ATOM      6  C   UNL     1       6.536   1.810   0.678  1.00  0.00     0.047 C 
BRANCH   6   7
ATOM      7  C   UNL     1       7.181   1.040  -0.384  1.00  0.00    -0.047 A 
ATOM      8  C   UNL     1       8.519   1.201  -0.657  1.00  0.00     0.004 A 
ATOM      9  C   UNL     1       6.432   0.145  -1.113  1.00  0.00     0.004 A 
ATOM     10  C   UNL     1       9.068   0.431  -1.685  1.00  0.00     0.000 A 
ATOM     11  C   UNL     1       6.976  -0.615  -2.129  1.00  0.00     0.000 A 
ATOM     12  C   UNL     1       8.317  -0.459  -2.409  1.00  0.00     0.000 A 
ENDBRANCH   6   7
ENDBRANCH   1   6
TORSDOF 4
ENDMDL
MODEL 5
REMARK VINA RESULT:      -6.5      2.013      2.346
REMARK SMILES O=C(O)CCc1ccccc1
REMARK SMILES IDX 4 1 2 2 1 3 3 4 5 6 6 7 7 8 11 9 8 10 10 11 9 12
REMARK H PARENT 3 5
REMARK Flexibility Score: inf
ROOT
ATOM      1  C   UNL     1       8.457   0.584  -1.875  1.00  0.00     0.127 C 
ENDROOT
BRANCH   1   2
ATOM      2  C   UNL     1       9.580   0.303  -0.949  1.00  0.00     0.303 C 
ATOM      3  O   UNL     1       9.449  -0.499   0.008  1.00  0.00    -0.252 OA
BRANCH   2   4
ATOM      4  O   UNL     1      10.809   0.921  -1.116  1.00  0.00    -0.481 OA
ATOM      5  H   UNL     1      11.152   1.107  -2.062  1.00  0.00     0.296 HD
ENDBRANCH   2   4
ENDBRANCH   1   2
BRANCH   1   6
ATOM      6  C   UNL     1       7.290  -0.264  -1.470  1.00  0.00     0.047 C 
BRANCH   6   7
ATOM      7  C   UNL     1       6.428   0.353  -0.464  1.00  0.00    -0.047 A 
ATOM      8  C   UNL     1       6.203  -0.265   0.744  1.00  0.00     0.004 A 
ATOM      9  C   UNL     1       5.841   1.567  -0.736  1.00  0.00     0.004 A 
ATOM     10  C   UNL     1       5.370   0.382   1.659  1.00  0.00     0.000 A 
ATOM     11  C   UNL     1       5.016   2.205   0.169  1.00  0.00     0.000 A 
ATOM     12  C   UNL     1       4.785   1.592   1.382  1.00  0.00     0.000 A 
ENDBRANCH   6   7
ENDBRANCH   1   6
TORSDOF 4
ENDMDL
