@<TRIPOS>MOLECULE
/home/cewinharhar/GITHUB/reincatalyze/data/processed/docking_pred/2023-Apr-26-1657_maxeplen10_maxtrainstep1000_exh32_gamma099_lrac9e-4_lrcr1e-3/ada201db5b439d74c350b173ce56903753062bb1_ligand_2.pdbqt
 12 12 0 0 0
SMALL
GASTEIGER

@<TRIPOS>ATOM
      1  C          5.0400    1.7300    0.6670 C.3     1  UNL1        0.1270
      2  C          4.6020    1.0490    1.9090 C.2     1  UNL1        0.3030
      3  O          5.3350    0.2060    2.4820 O.2     1  UNL1       -0.2520
      4  O          3.3660    1.3240    2.4710 O.3     1  UNL1       -0.4810
      5  H          3.2890    2.0660    3.1730 H       1  UNL1        0.2960
      6  C          6.5360    1.8100    0.6780 C.3     1  UNL1        0.0470
      7  C          7.1810    1.0400   -0.3840 C.2     1  UNL1       -0.0470
      8  C          8.5190    1.2010   -0.6570 C.2     1  UNL1        0.0040
      9  C          6.4320    0.1450   -1.1130 C.2     1  UNL1        0.0040
     10  C          9.0680    0.4310   -1.6850 C.2     1  UNL1        0.0000
     11  C          6.9760   -0.6150   -2.1290 C.2     1  UNL1        0.0000
     12  C          8.3170   -0.4590   -2.4090 C.2     1  UNL1        0.0000
@<TRIPOS>BOND
     1    12    11    2
     2    12    10    1
     3    11     9    1
     4    10     8    2
     5     9     7    2
     6     8     7    1
     7     7     6    1
     8     1     6    1
     9     1     2    1
    10     2     4    1
    11     2     3    2
    12     4     5    1
