@<TRIPOS>MOLECULE
/home/cewinharhar/GITHUB/reincatalyze/data/processed/docking_pred/2023-Apr-26-1657_maxeplen10_maxtrainstep1000_exh32_gamma099_lrac9e-4_lrcr1e-3/ada201db5b439d74c350b173ce56903753062bb1_ligand_2.pdbqt
 12 12 0 0 0
SMALL
GASTEIGER

@<TRIPOS>ATOM
      1  C          8.4570    0.5840   -1.8750 C.3     1  UNL1        0.1270
      2  C          9.5800    0.3030   -0.9490 C.2     1  UNL1        0.3030
      3  O          9.4490   -0.4990    0.0080 O.2     1  UNL1       -0.2520
      4  O         10.8090    0.9210   -1.1160 O.3     1  UNL1       -0.4810
      5  H         11.1520    1.1070   -2.0620 H       1  UNL1        0.2960
      6  C          7.2900   -0.2640   -1.4700 C.3     1  UNL1        0.0470
      7  C          6.4280    0.3530   -0.4640 C.2     1  UNL1       -0.0470
      8  C          6.2030   -0.2650    0.7440 C.2     1  UNL1        0.0040
      9  C          5.8410    1.5670   -0.7360 C.2     1  UNL1        0.0040
     10  C          5.3700    0.3820    1.6590 C.2     1  UNL1        0.0000
     11  C          5.0160    2.2050    0.1690 C.2     1  UNL1        0.0000
     12  C          4.7850    1.5920    1.3820 C.2     1  UNL1        0.0000
@<TRIPOS>BOND
     1     5     4    1
     2     1     6    1
     3     1     2    1
     4     6     7    1
     5     4     2    1
     6     2     3    2
     7     9     7    2
     8     9    11    1
     9     7     8    1
    10    11    12    2
    11     8    10    2
    12    12    10    1
