@<TRIPOS>MOLECULE
/home/cewinharhar/GITHUB/reincatalyze/data/processed/docking_pred/2023-Apr-26-1657_maxeplen10_maxtrainstep1000_exh32_gamma099_lrac9e-4_lrcr1e-3/ae2b7ca0e57384ee3cd7889808440c06f68d274f_ligand_2.pdbqt
 12 12 0 0 0
SMALL
GASTEIGER

@<TRIPOS>ATOM
      1  C          8.2530   -0.9380   -1.8480 C.3     1  UNL1        0.1270
      2  C          8.3970   -2.0380   -2.8300 C.2     1  UNL1        0.3030
      3  O          9.5200   -2.5380   -3.0870 O.2     1  UNL1       -0.2520
      4  O          7.2920   -2.5460   -3.4950 O.3     1  UNL1       -0.4810
      5  H          6.6780   -3.2080   -3.0130 H       1  UNL1        0.2960
      6  C          7.3720   -1.4150   -0.7330 C.3     1  UNL1        0.0470
      7  C          6.5620   -0.3620   -0.1230 C.2     1  UNL1       -0.0470
      8  C          6.1280   -0.4730    1.1770 C.2     1  UNL1        0.0040
      9  C          6.2380    0.7500   -0.8650 C.2     1  UNL1        0.0040
     10  C          5.3590    0.5720    1.6950 C.2     1  UNL1        0.0000
     11  C          5.4780    1.7820   -0.3510 C.2     1  UNL1        0.0000
     12  C          5.0370    1.6780    0.9500 C.2     1  UNL1        0.0000
@<TRIPOS>BOND
     1     4     5    1
     2     4     2    1
     3     3     2    2
     4     2     1    1
     5     1     6    1
     6     9    11    1
     7     9     7    2
     8     6     7    1
     9    11    12    2
    10     7     8    1
    11    12    10    1
    12     8    10    2
