@<TRIPOS>MOLECULE
/home/cewinharhar/GITHUB/reincatalyze/data/processed/docking_pred/2023-Apr-26-1657_maxeplen10_maxtrainstep1000_exh32_gamma099_lrac9e-4_lrcr1e-3/ae2b7ca0e57384ee3cd7889808440c06f68d274f_ligand_2.pdbqt
 12 12 0 0 0
SMALL
GASTEIGER

@<TRIPOS>ATOM
      1  C          8.4550   -0.6170   -2.1520 C.3     1  UNL1        0.1270
      2  C          8.4870   -1.8940   -2.9020 C.2     1  UNL1        0.3030
      3  O          9.5650   -2.5070   -3.0990 O.2     1  UNL1       -0.2520
      4  O          7.3230   -2.4490   -3.4100 O.3     1  UNL1       -0.4810
      5  H          6.6060   -1.8340   -3.8050 H       1  UNL1        0.2960
      6  C          7.0420   -0.1190   -2.1290 C.3     1  UNL1        0.0470
      7  C          6.4900    0.0430   -0.7850 C.2     1  UNL1       -0.0470
      8  C          6.6160   -0.9570    0.1520 C.2     1  UNL1        0.0040
      9  C          5.8410    1.2120   -0.4620 C.2     1  UNL1        0.0040
     10  C          6.0650   -0.7330    1.4160 C.2     1  UNL1        0.0000
     11  C          5.2970    1.4310    0.7880 C.2     1  UNL1        0.0000
     12  C          5.4180    0.4350    1.7320 C.2     1  UNL1        0.0000
@<TRIPOS>BOND
     1     5     4    1
     2     4     2    1
     3     3     2    2
     4     2     1    1
     5     1     6    1
     6     6     7    1
     7     7     9    2
     8     7     8    1
     9     9    11    1
    10     8    10    2
    11    11    12    2
    12    10    12    1
