@<TRIPOS>MOLECULE
/home/cewinharhar/GITHUB/reincatalyze/data/processed/docking_pred/2023-Apr-26-1657_maxeplen10_maxtrainstep1000_exh32_gamma099_lrac9e-4_lrcr1e-3/ae2b7ca0e57384ee3cd7889808440c06f68d274f_ligand_2.pdbqt
 12 12 0 0 0
SMALL
GASTEIGER

@<TRIPOS>ATOM
      1  C          8.3950   -0.6140   -2.1240 C.3     1  UNL1        0.1270
      2  C          8.3640   -1.8790   -2.8940 C.2     1  UNL1        0.3030
      3  O          7.2780   -2.4000   -3.2480 O.2     1  UNL1       -0.2520
      4  O          9.5390   -2.5250   -3.2460 O.3     1  UNL1       -0.4810
      5  H         10.4090   -2.2780   -2.7660 H       1  UNL1        0.2960
      6  C          7.0070   -0.0490   -2.0910 C.3     1  UNL1        0.0470
      7  C          6.4560    0.0970   -0.7450 C.2     1  UNL1       -0.0470
      8  C          5.8140    1.2540   -0.3690 C.2     1  UNL1        0.0040
      9  C          6.5850   -0.9410    0.1490 C.2     1  UNL1        0.0040
     10  C          5.3120    1.3230    0.9320 C.2     1  UNL1        0.0000
     11  C          6.0880   -0.8700    1.4360 C.2     1  UNL1        0.0000
     12  C          5.4440    0.2850    1.8200 C.2     1  UNL1        0.0000
@<TRIPOS>BOND
     1     3     2    2
     2     4     2    1
     3     4     5    1
     4     2     1    1
     5     1     6    1
     6     6     7    1
     7     7     8    2
     8     7     9    1
     9     8    10    1
    10     9    11    2
    11    10    12    2
    12    11    12    1
