MODEL 1
REMARK VINA RESULT:      -7.4      0.000      0.000
REMARK SMILES O=C(O)CCc1ccccc1
REMARK SMILES IDX 4 1 2 2 1 3 3 4 5 6 6 7 7 8 11 9 8 10 10 11 9 12
REMARK H PARENT 3 5
REMARK Flexibility Score: inf
ROOT
ATOM      1  C   UNL     1       8.455  -0.617  -2.152  1.00  0.00     0.127 C 
ENDROOT
BRANCH   1   2
ATOM      2  C   UNL     1       8.487  -1.894  -2.902  1.00  0.00     0.303 C 
ATOM      3  O   UNL     1       9.565  -2.507  -3.099  1.00  0.00    -0.252 OA
BRANCH   2   4
ATOM      4  O   UNL     1       7.323  -2.449  -3.410  1.00  0.00    -0.481 OA
ATOM      5  H   UNL     1       6.606  -1.834  -3.805  1.00  0.00     0.296 HD
ENDBRANCH   2   4
ENDBRANCH   1   2
BRANCH   1   6
ATOM      6  C   UNL     1       7.042  -0.119  -2.129  1.00  0.00     0.047 C 
BRANCH   6   7
ATOM      7  C   UNL     1       6.490   0.043  -0.785  1.00  0.00    -0.047 A 
ATOM      8  C   UNL     1       6.616  -0.957   0.152  1.00  0.00     0.004 A 
ATOM      9  C   UNL     1       5.841   1.212  -0.462  1.00  0.00     0.004 A 
ATOM     10  C   UNL     1       6.065  -0.733   1.416  1.00  0.00     0.000 A 
ATOM     11  C   UNL     1       5.297   1.431   0.788  1.00  0.00     0.000 A 
ATOM     12  C   UNL     1       5.418   0.435   1.732  1.00  0.00     0.000 A 
ENDBRANCH   6   7
ENDBRANCH   1   6
TORSDOF 4
ENDMDL
MODEL 2
REMARK VINA RESULT:      -7.3      0.128      1.732
REMARK SMILES O=C(O)CCc1ccccc1
REMARK SMILES IDX 4 1 2 2 1 3 3 4 5 6 6 7 7 8 11 9 8 10 10 11 9 12
REMARK H PARENT 3 5
REMARK Flexibility Score: inf
ROOT
ATOM      1  C   UNL     1       8.395  -0.614  -2.124  1.00  0.00     0.127 C 
ENDROOT
BRANCH   1   2
ATOM      2  C   UNL     1       8.364  -1.879  -2.894  1.00  0.00     0.303 C 
ATOM      3  O   UNL     1       7.278  -2.400  -3.248  1.00  0.00    -0.252 OA
BRANCH   2   4
ATOM      4  O   UNL     1       9.539  -2.525  -3.246  1.00  0.00    -0.481 OA
ATOM      5  H   UNL     1      10.409  -2.278  -2.766  1.00  0.00     0.296 HD
ENDBRANCH   2   4
ENDBRANCH   1   2
BRANCH   1   6
ATOM      6  C   UNL     1       7.007  -0.049  -2.091  1.00  0.00     0.047 C 
BRANCH   6   7
ATOM      7  C   UNL     1       6.456   0.097  -0.745  1.00  0.00    -0.047 A 
ATOM      8  C   UNL     1       5.814   1.254  -0.369  1.00  0.00     0.004 A 
ATOM      9  C   UNL     1       6.585  -0.941   0.149  1.00  0.00     0.004 A 
ATOM     10  C   UNL     1       5.312   1.323   0.932  1.00  0.00     0.000 A 
ATOM     11  C   UNL     1       6.088  -0.870   1.436  1.00  0.00     0.000 A 
ATOM     12  C   UNL     1       5.444   0.285   1.820  1.00  0.00     0.000 A 
ENDBRANCH   6   7
ENDBRANCH   1   6
TORSDOF 4
ENDMDL
MODEL 3
REMARK VINA RESULT:      -7.3      0.624      1.076
REMARK SMILES O=C(O)CCc1ccccc1
REMARK SMILES IDX 4 1 2 2 1 3 3 4 5 6 6 7 7 8 11 9 8 10 10 11 9 12
REMARK H PARENT 3 5
REMARK Flexibility Score: inf
ROOT
ATOM      1  C   UNL     1       8.253  -0.938  -1.848  1.00  0.00     0.127 C 
ENDROOT
BRANCH   1   2
ATOM      2  C   UNL     1       8.397  -2.038  -2.830  1.00  0.00     0.303 C 
ATOM      3  O   UNL     1       9.520  -2.538  -3.087  1.00  0.00    -0.252 OA
BRANCH   2   4
ATOM      4  O   UNL     1       7.292  -2.546  -3.495  1.00  0.00    -0.481 OA
ATOM      5  H   UNL     1       6.678  -3.208  -3.013  1.00  0.00     0.296 HD
ENDBRANCH   2   4
ENDBRANCH   1   2
BRANCH   1   6
ATOM      6  C   UNL     1       7.372  -1.415  -0.733  1.00  0.00     0.047 C 
BRANCH   6   7
ATOM      7  C   UNL     1       6.562  -0.362  -0.123  1.00  0.00    -0.047 A 
ATOM      8  C   UNL     1       6.128  -0.473   1.177  1.00  0.00     0.004 A 
ATOM      9  C   UNL     1       6.238   0.750  -0.865  1.00  0.00     0.004 A 
ATOM     10  C   UNL     1       5.359   0.572   1.695  1.00  0.00     0.000 A 
ATOM     11  C   UNL     1       5.478   1.782  -0.351  1.00  0.00     0.000 A 
ATOM     12  C   UNL     1       5.037   1.678   0.950  1.00  0.00     0.000 A 
ENDBRANCH   6   7
ENDBRANCH   1   6
TORSDOF 4
ENDMDL
MODEL 4
REMARK VINA RESULT:      -6.8      3.370      5.060
REMARK SMILES O=C(O)CCc1ccccc1
REMARK SMILES IDX 4 1 2 2 1 3 3 4 5 6 6 7 7 8 11 9 8 10 10 11 9 12
REMARK H PARENT 3 5
REMARK Flexibility Score: inf
ROOT
ATOM      1  C   UNL     1       5.015   1.780   0.712  1.00  0.00     0.127 C 
ENDROOT
BRANCH   1   2
ATOM      2  C   UNL     1       4.483   1.101   1.917  1.00  0.00     0.303 C 
ATOM      3  O   UNL     1       5.127   0.184   2.484  1.00  0.00    -0.252 OA
BRANCH   2   4
ATOM      4  O   UNL     1       3.257   1.461   2.453  1.00  0.00    -0.481 OA
ATOM      5  H   UNL     1       2.929   1.001   3.307  1.00  0.00     0.296 HD
ENDBRANCH   2   4
ENDBRANCH   1   2
BRANCH   1   6
ATOM      6  C   UNL     1       6.511   1.734   0.767  1.00  0.00     0.047 C 
BRANCH   6   7
ATOM      7  C   UNL     1       7.124   0.984  -0.328  1.00  0.00    -0.047 A 
ATOM      8  C   UNL     1       6.400   0.048  -1.030  1.00  0.00     0.004 A 
ATOM      9  C   UNL     1       8.438   1.226  -0.655  1.00  0.00     0.004 A 
ATOM     10  C   UNL     1       7.049  -0.630  -2.065  1.00  0.00     0.000 A 
ATOM     11  C   UNL     1       9.078   0.554  -1.677  1.00  0.00     0.000 A 
ATOM     12  C   UNL     1       8.361  -0.386  -2.385  1.00  0.00     0.000 A 
ENDBRANCH   6   7
ENDBRANCH   1   6
TORSDOF 4
ENDMDL
MODEL 5
REMARK VINA RESULT:      -6.8      3.366      5.069
REMARK SMILES O=C(O)CCc1ccccc1
REMARK SMILES IDX 4 1 2 2 1 3 3 4 5 6 6 7 7 8 11 9 8 10 10 11 9 12
REMARK H PARENT 3 5
REMARK Flexibility Score: inf
ROOT
ATOM      1  C   UNL     1       5.004   1.776   0.675  1.00  0.00     0.127 C 
ENDROOT
BRANCH   1   2
ATOM      2  C   UNL     1       4.502   1.108   1.899  1.00  0.00     0.303 C 
ATOM      3  O   UNL     1       5.170   0.212   2.472  1.00  0.00    -0.252 OA
BRANCH   2   4
ATOM      4  O   UNL     1       3.277   1.455   2.445  1.00  0.00    -0.481 OA
ATOM      5  H   UNL     1       3.031   1.116   3.379  1.00  0.00     0.296 HD
ENDBRANCH   2   4
ENDBRANCH   1   2
BRANCH   1   6
ATOM      6  C   UNL     1       6.501   1.802   0.733  1.00  0.00     0.047 C 
BRANCH   6   7
ATOM      7  C   UNL     1       7.151   1.051  -0.341  1.00  0.00    -0.047 A 
ATOM      8  C   UNL     1       8.485   1.236  -0.620  1.00  0.00     0.004 A 
ATOM      9  C   UNL     1       6.412   0.151  -1.072  1.00  0.00     0.004 A 
ATOM     10  C   UNL     1       9.039   0.485  -1.659  1.00  0.00     0.000 A 
ATOM     11  C   UNL     1       6.962  -0.591  -2.099  1.00  0.00     0.000 A 
ATOM     12  C   UNL     1       8.297  -0.411  -2.386  1.00  0.00     0.000 A 
ENDBRANCH   6   7
ENDBRANCH   1   6
TORSDOF 4
ENDMDL
