@<TRIPOS>MOLECULE
/home/cewinharhar/GITHUB/reincatalyze/data/processed/docking_pred/2023-Apr-26-1657_maxeplen10_maxtrainstep1000_exh32_gamma099_lrac9e-4_lrcr1e-3/ae2b7ca0e57384ee3cd7889808440c06f68d274f_ligand_2.pdbqt
 12 12 0 0 0
SMALL
GASTEIGER

@<TRIPOS>ATOM
      1  C          5.0040    1.7760    0.6750 C.3     1  UNL1        0.1270
      2  C          4.5020    1.1080    1.8990 C.2     1  UNL1        0.3030
      3  O          5.1700    0.2120    2.4720 O.2     1  UNL1       -0.2520
      4  O          3.2770    1.4550    2.4450 O.3     1  UNL1       -0.4810
      5  H          3.0310    1.1160    3.3790 H       1  UNL1        0.2960
      6  C          6.5010    1.8020    0.7330 C.3     1  UNL1        0.0470
      7  C          7.1510    1.0510   -0.3410 C.2     1  UNL1       -0.0470
      8  C          8.4850    1.2360   -0.6200 C.2     1  UNL1        0.0040
      9  C          6.4120    0.1510   -1.0720 C.2     1  UNL1        0.0040
     10  C          9.0390    0.4850   -1.6590 C.2     1  UNL1        0.0000
     11  C          6.9620   -0.5910   -2.0990 C.2     1  UNL1        0.0000
     12  C          8.2970   -0.4110   -2.3860 C.2     1  UNL1        0.0000
@<TRIPOS>BOND
     1    12    11    2
     2    12    10    1
     3    11     9    1
     4    10     8    2
     5     9     7    2
     6     8     7    1
     7     7     6    1
     8     1     6    1
     9     1     2    1
    10     2     4    1
    11     2     3    2
    12     4     5    1
