@<TRIPOS>MOLECULE
/home/cewinharhar/GITHUB/reincatalyze/data/processed/docking_pred/2023-Apr-26-1657_maxeplen10_maxtrainstep1000_exh32_gamma099_lrac9e-4_lrcr1e-3/ae2b7ca0e57384ee3cd7889808440c06f68d274f_ligand_2.pdbqt
 12 12 0 0 0
SMALL
GASTEIGER

@<TRIPOS>ATOM
      1  C          5.0150    1.7800    0.7120 C.3     1  UNL1        0.1270
      2  C          4.4830    1.1010    1.9170 C.2     1  UNL1        0.3030
      3  O          5.1270    0.1840    2.4840 O.2     1  UNL1       -0.2520
      4  O          3.2570    1.4610    2.4530 O.3     1  UNL1       -0.4810
      5  H          2.9290    1.0010    3.3070 H       1  UNL1        0.2960
      6  C          6.5110    1.7340    0.7670 C.3     1  UNL1        0.0470
      7  C          7.1240    0.9840   -0.3280 C.2     1  UNL1       -0.0470
      8  C          6.4000    0.0480   -1.0300 C.2     1  UNL1        0.0040
      9  C          8.4380    1.2260   -0.6550 C.2     1  UNL1        0.0040
     10  C          7.0490   -0.6300   -2.0650 C.2     1  UNL1        0.0000
     11  C          9.0780    0.5540   -1.6770 C.2     1  UNL1        0.0000
     12  C          8.3610   -0.3860   -2.3850 C.2     1  UNL1        0.0000
@<TRIPOS>BOND
     1    12    10    2
     2    12    11    1
     3    10     8    1
     4    11     9    2
     5     8     7    2
     6     9     7    1
     7     7     6    1
     8     1     6    1
     9     1     2    1
    10     2     4    1
    11     2     3    2
    12     4     5    1
