@<TRIPOS>MOLECULE
/home/cewinharhar/GITHUB/reincatalyze/data/processed/docking_pred/2023-Apr-26-1657_maxeplen10_maxtrainstep1000_exh32_gamma099_lrac9e-4_lrcr1e-3/ae45d061dddc84380b8ad6f9293329cc64ca5b9d_ligand_2.pdbqt
 12 12 0 0 0
SMALL
GASTEIGER

@<TRIPOS>ATOM
      1  C          5.4700    2.8090    0.0120 C.3     1  UNL1        0.1270
      2  C          6.2450    3.8020    0.7920 C.2     1  UNL1        0.3030
      3  O          6.8070    4.7750    0.2320 O.2     1  UNL1       -0.2520
      4  O          6.3700    3.6830    2.1670 O.3     1  UNL1       -0.4810
      5  H          6.4600    4.5280    2.7370 H       1  UNL1        0.2960
      6  C          4.9880    1.7450    0.9500 C.3     1  UNL1        0.0470
      7  C          5.7990    0.5290    0.9380 C.2     1  UNL1       -0.0470
      8  C          6.5870    0.2200   -0.1470 C.2     1  UNL1        0.0040
      9  C          5.7700   -0.3090    2.0290 C.2     1  UNL1        0.0040
     10  C          7.3370   -0.9570   -0.0890 C.2     1  UNL1        0.0000
     11  C          6.5120   -1.4720    2.0840 C.2     1  UNL1        0.0000
     12  C          7.3030   -1.7900    1.0010 C.2     1  UNL1        0.0000
@<TRIPOS>BOND
     1     8    10    1
     2     8     7    2
     3    10    12    2
     4     1     2    1
     5     1     6    1
     6     3     2    2
     7     2     4    1
     8     7     6    1
     9     7     9    1
    10    12    11    1
    11     9    11    2
    12     4     5    1
