@<TRIPOS>MOLECULE
/home/cewinharhar/GITHUB/reincatalyze/data/processed/docking_pred/2023-Apr-26-1657_maxeplen10_maxtrainstep1000_exh32_gamma099_lrac9e-4_lrcr1e-3/ae45d061dddc84380b8ad6f9293329cc64ca5b9d_ligand_2.pdbqt
 12 12 0 0 0
SMALL
GASTEIGER

@<TRIPOS>ATOM
      1  C          8.4070   -0.6350   -2.1010 C.3     1  UNL1        0.1270
      2  C          8.3780   -1.8960   -2.8780 C.2     1  UNL1        0.3030
      3  O          7.2910   -2.4130   -3.2400 O.2     1  UNL1       -0.2520
      4  O          9.5520   -2.5430   -3.2280 O.3     1  UNL1       -0.4810
      5  H          9.5980   -3.0530   -4.1150 H       1  UNL1        0.2960
      6  C          7.0260   -0.0540   -2.0930 C.3     1  UNL1        0.0470
      7  C          6.4580    0.1080   -0.7560 C.2     1  UNL1       -0.0470
      8  C          5.7970    1.2630   -0.4080 C.2     1  UNL1        0.0040
      9  C          6.5870   -0.9130    0.1570 C.2     1  UNL1        0.0040
     10  C          5.2780    1.3490    0.8860 C.2     1  UNL1        0.0000
     11  C          6.0740   -0.8260    1.4360 C.2     1  UNL1        0.0000
     12  C          5.4120    0.3280    1.7930 C.2     1  UNL1        0.0000
@<TRIPOS>BOND
     1     5     4    1
     2     3     2    2
     3     4     2    1
     4     2     1    1
     5     1     6    1
     6     6     7    1
     7     7     8    2
     8     7     9    1
     9     8    10    1
    10     9    11    2
    11    10    12    2
    12    11    12    1
