@<TRIPOS>MOLECULE
/home/cewinharhar/GITHUB/reincatalyze/data/processed/docking_pred/2023-Apr-26-1657_maxeplen10_maxtrainstep1000_exh32_gamma099_lrac9e-4_lrcr1e-3/ae45d061dddc84380b8ad6f9293329cc64ca5b9d_ligand_2.pdbqt
 12 12 0 0 0
SMALL
GASTEIGER

@<TRIPOS>ATOM
      1  C          8.4630   -0.5870   -2.2100 C.3     1  UNL1        0.1270
      2  C          8.4900   -1.8840   -2.9270 C.2     1  UNL1        0.3030
      3  O          9.5660   -2.5060   -3.1060 O.2     1  UNL1       -0.2520
      4  O          7.3240   -2.4470   -3.4210 O.3     1  UNL1       -0.4810
      5  H          6.4700   -1.8840   -3.4500 H       1  UNL1        0.2960
      6  C          7.0460   -0.1020   -2.1680 C.3     1  UNL1        0.0470
      7  C          6.5070    0.0440   -0.8170 C.2     1  UNL1       -0.0470
      8  C          6.6410   -0.9670    0.1070 C.2     1  UNL1        0.0040
      9  C          5.8620    1.2100   -0.4740 C.2     1  UNL1        0.0040
     10  C          6.1030   -0.7580    1.3790 C.2     1  UNL1        0.0000
     11  C          5.3300    1.4140    0.7840 C.2     1  UNL1        0.0000
     12  C          5.4590    0.4070    1.7150 C.2     1  UNL1        0.0000
@<TRIPOS>BOND
     1     5     4    1
     2     4     2    1
     3     3     2    2
     4     2     1    1
     5     1     6    1
     6     6     7    1
     7     7     9    2
     8     7     8    1
     9     9    11    1
    10     8    10    2
    11    11    12    2
    12    10    12    1
