@<TRIPOS>MOLECULE
/home/cewinharhar/GITHUB/reincatalyze/data/processed/docking_pred/2023-Apr-26-1657_maxeplen10_maxtrainstep1000_exh32_gamma099_lrac9e-4_lrcr1e-3/ae45d061dddc84380b8ad6f9293329cc64ca5b9d_ligand_2.pdbqt
 12 12 0 0 0
SMALL
GASTEIGER

@<TRIPOS>ATOM
      1  C          8.2680    0.1290   -2.1640 C.3     1  UNL1        0.1270
      2  C          9.3870    0.3160   -1.2110 C.2     1  UNL1        0.3030
      3  O          9.4860   -0.3910   -0.1770 O.2     1  UNL1       -0.2520
      4  O         10.3570    1.2800   -1.4350 O.3     1  UNL1       -0.4810
      5  H         10.0940    2.1590   -1.8870 H       1  UNL1        0.2960
      6  C          7.1730   -0.6180   -1.4640 C.3     1  UNL1        0.0470
      7  C          6.3800    0.2060   -0.5540 C.2     1  UNL1       -0.0470
      8  C          6.1460   -0.2010    0.7390 C.2     1  UNL1        0.0040
      9  C          5.8670    1.4010   -1.0030 C.2     1  UNL1        0.0040
     10  C          5.3810    0.6370    1.5540 C.2     1  UNL1        0.0000
     11  C          5.1100    2.2270   -0.1970 C.2     1  UNL1        0.0000
     12  C          4.8710    1.8270    1.1000 C.2     1  UNL1        0.0000
@<TRIPOS>BOND
     1     1     6    1
     2     1     2    1
     3     5     4    1
     4     6     7    1
     5     4     2    1
     6     2     3    2
     7     9     7    2
     8     9    11    1
     9     7     8    1
    10    11    12    2
    11     8    10    2
    12    12    10    1
