MODEL 1
REMARK VINA RESULT:      -7.3      0.000      0.000
REMARK SMILES O=C(O)CCc1ccccc1
REMARK SMILES IDX 4 1 2 2 1 3 3 4 5 6 6 7 7 8 11 9 8 10 10 11 9 12
REMARK H PARENT 3 5
REMARK Flexibility Score: inf
ROOT
ATOM      1  C   UNL     1       8.463  -0.587  -2.210  1.00  0.00     0.127 C 
ENDROOT
BRANCH   1   2
ATOM      2  C   UNL     1       8.490  -1.884  -2.927  1.00  0.00     0.303 C 
ATOM      3  O   UNL     1       9.566  -2.506  -3.106  1.00  0.00    -0.252 OA
BRANCH   2   4
ATOM      4  O   UNL     1       7.324  -2.447  -3.421  1.00  0.00    -0.481 OA
ATOM      5  H   UNL     1       6.470  -1.884  -3.450  1.00  0.00     0.296 HD
ENDBRANCH   2   4
ENDBRANCH   1   2
BRANCH   1   6
ATOM      6  C   UNL     1       7.046  -0.102  -2.168  1.00  0.00     0.047 C 
BRANCH   6   7
ATOM      7  C   UNL     1       6.507   0.044  -0.817  1.00  0.00    -0.047 A 
ATOM      8  C   UNL     1       6.641  -0.967   0.107  1.00  0.00     0.004 A 
ATOM      9  C   UNL     1       5.862   1.210  -0.474  1.00  0.00     0.004 A 
ATOM     10  C   UNL     1       6.103  -0.758   1.379  1.00  0.00     0.000 A 
ATOM     11  C   UNL     1       5.330   1.414   0.784  1.00  0.00     0.000 A 
ATOM     12  C   UNL     1       5.459   0.407   1.715  1.00  0.00     0.000 A 
ENDBRANCH   6   7
ENDBRANCH   1   6
TORSDOF 4
ENDMDL
MODEL 2
REMARK VINA RESULT:      -7.3      0.122      1.732
REMARK SMILES O=C(O)CCc1ccccc1
REMARK SMILES IDX 4 1 2 2 1 3 3 4 5 6 6 7 7 8 11 9 8 10 10 11 9 12
REMARK H PARENT 3 5
REMARK Flexibility Score: inf
ROOT
ATOM      1  C   UNL     1       8.407  -0.635  -2.101  1.00  0.00     0.127 C 
ENDROOT
BRANCH   1   2
ATOM      2  C   UNL     1       8.378  -1.896  -2.878  1.00  0.00     0.303 C 
ATOM      3  O   UNL     1       7.291  -2.413  -3.240  1.00  0.00    -0.252 OA
BRANCH   2   4
ATOM      4  O   UNL     1       9.552  -2.543  -3.228  1.00  0.00    -0.481 OA
ATOM      5  H   UNL     1       9.598  -3.053  -4.115  1.00  0.00     0.296 HD
ENDBRANCH   2   4
ENDBRANCH   1   2
BRANCH   1   6
ATOM      6  C   UNL     1       7.026  -0.054  -2.093  1.00  0.00     0.047 C 
BRANCH   6   7
ATOM      7  C   UNL     1       6.458   0.108  -0.756  1.00  0.00    -0.047 A 
ATOM      8  C   UNL     1       5.797   1.263  -0.408  1.00  0.00     0.004 A 
ATOM      9  C   UNL     1       6.587  -0.913   0.157  1.00  0.00     0.004 A 
ATOM     10  C   UNL     1       5.278   1.349   0.886  1.00  0.00     0.000 A 
ATOM     11  C   UNL     1       6.074  -0.826   1.436  1.00  0.00     0.000 A 
ATOM     12  C   UNL     1       5.412   0.328   1.793  1.00  0.00     0.000 A 
ENDBRANCH   6   7
ENDBRANCH   1   6
TORSDOF 4
ENDMDL
MODEL 3
REMARK VINA RESULT:      -6.8      3.377      5.062
REMARK SMILES O=C(O)CCc1ccccc1
REMARK SMILES IDX 4 1 2 2 1 3 3 4 5 6 6 7 7 8 11 9 8 10 10 11 9 12
REMARK H PARENT 3 5
REMARK Flexibility Score: inf
ROOT
ATOM      1  C   UNL     1       5.007   1.790   0.713  1.00  0.00     0.127 C 
ENDROOT
BRANCH   1   2
ATOM      2  C   UNL     1       4.483   1.108   1.921  1.00  0.00     0.303 C 
ATOM      3  O   UNL     1       5.136   0.197   2.488  1.00  0.00    -0.252 OA
BRANCH   2   4
ATOM      4  O   UNL     1       3.255   1.458   2.457  1.00  0.00    -0.481 OA
ATOM      5  H   UNL     1       2.477   0.795   2.403  1.00  0.00     0.296 HD
ENDBRANCH   2   4
ENDBRANCH   1   2
BRANCH   1   6
ATOM      6  C   UNL     1       6.504   1.754   0.765  1.00  0.00     0.047 C 
BRANCH   6   7
ATOM      7  C   UNL     1       7.119   1.008  -0.331  1.00  0.00    -0.047 A 
ATOM      8  C   UNL     1       6.391   0.092  -1.054  1.00  0.00     0.004 A 
ATOM      9  C   UNL     1       8.442   1.233  -0.637  1.00  0.00     0.004 A 
ATOM     10  C   UNL     1       7.043  -0.584  -2.088  1.00  0.00     0.000 A 
ATOM     11  C   UNL     1       9.085   0.563  -1.659  1.00  0.00     0.000 A 
ATOM     12  C   UNL     1       8.363  -0.356  -2.388  1.00  0.00     0.000 A 
ENDBRANCH   6   7
ENDBRANCH   1   6
TORSDOF 4
ENDMDL
MODEL 4
REMARK VINA RESULT:      -6.7      1.941      2.308
REMARK SMILES O=C(O)CCc1ccccc1
REMARK SMILES IDX 4 1 2 2 1 3 3 4 5 6 6 7 7 8 11 9 8 10 10 11 9 12
REMARK H PARENT 3 5
REMARK Flexibility Score: inf
ROOT
ATOM      1  C   UNL     1       8.268   0.129  -2.164  1.00  0.00     0.127 C 
ENDROOT
BRANCH   1   2
ATOM      2  C   UNL     1       9.387   0.316  -1.211  1.00  0.00     0.303 C 
ATOM      3  O   UNL     1       9.486  -0.391  -0.177  1.00  0.00    -0.252 OA
BRANCH   2   4
ATOM      4  O   UNL     1      10.357   1.280  -1.435  1.00  0.00    -0.481 OA
ATOM      5  H   UNL     1      10.094   2.159  -1.887  1.00  0.00     0.296 HD
ENDBRANCH   2   4
ENDBRANCH   1   2
BRANCH   1   6
ATOM      6  C   UNL     1       7.173  -0.618  -1.464  1.00  0.00     0.047 C 
BRANCH   6   7
ATOM      7  C   UNL     1       6.380   0.206  -0.554  1.00  0.00    -0.047 A 
ATOM      8  C   UNL     1       6.146  -0.201   0.739  1.00  0.00     0.004 A 
ATOM      9  C   UNL     1       5.867   1.401  -1.003  1.00  0.00     0.004 A 
ATOM     10  C   UNL     1       5.381   0.637   1.554  1.00  0.00     0.000 A 
ATOM     11  C   UNL     1       5.110   2.227  -0.197  1.00  0.00     0.000 A 
ATOM     12  C   UNL     1       4.871   1.827   1.100  1.00  0.00     0.000 A 
ENDBRANCH   6   7
ENDBRANCH   1   6
TORSDOF 4
ENDMDL
MODEL 5
REMARK VINA RESULT:      -6.6      3.842      4.984
REMARK SMILES O=C(O)CCc1ccccc1
REMARK SMILES IDX 4 1 2 2 1 3 3 4 5 6 6 7 7 8 11 9 8 10 10 11 9 12
REMARK H PARENT 3 5
REMARK Flexibility Score: inf
ROOT
ATOM      1  C   UNL     1       5.470   2.809   0.012  1.00  0.00     0.127 C 
ENDROOT
BRANCH   1   2
ATOM      2  C   UNL     1       6.245   3.802   0.792  1.00  0.00     0.303 C 
ATOM      3  O   UNL     1       6.807   4.775   0.232  1.00  0.00    -0.252 OA
BRANCH   2   4
ATOM      4  O   UNL     1       6.370   3.683   2.167  1.00  0.00    -0.481 OA
ATOM      5  H   UNL     1       6.460   4.528   2.737  1.00  0.00     0.296 HD
ENDBRANCH   2   4
ENDBRANCH   1   2
BRANCH   1   6
ATOM      6  C   UNL     1       4.988   1.745   0.950  1.00  0.00     0.047 C 
BRANCH   6   7
ATOM      7  C   UNL     1       5.799   0.529   0.938  1.00  0.00    -0.047 A 
ATOM      8  C   UNL     1       6.587   0.220  -0.147  1.00  0.00     0.004 A 
ATOM      9  C   UNL     1       5.770  -0.309   2.029  1.00  0.00     0.004 A 
ATOM     10  C   UNL     1       7.337  -0.957  -0.089  1.00  0.00     0.000 A 
ATOM     11  C   UNL     1       6.512  -1.472   2.084  1.00  0.00     0.000 A 
ATOM     12  C   UNL     1       7.303  -1.790   1.001  1.00  0.00     0.000 A 
ENDBRANCH   6   7
ENDBRANCH   1   6
TORSDOF 4
ENDMDL
