@<TRIPOS>MOLECULE
/home/cewinharhar/GITHUB/reincatalyze/data/processed/docking_pred/2023-Apr-26-1657_maxeplen10_maxtrainstep1000_exh32_gamma099_lrac9e-4_lrcr1e-3/ae45d061dddc84380b8ad6f9293329cc64ca5b9d_ligand_2.pdbqt
 12 12 0 0 0
SMALL
GASTEIGER

@<TRIPOS>ATOM
      1  C          5.0070    1.7900    0.7130 C.3     1  UNL1        0.1270
      2  C          4.4830    1.1080    1.9210 C.2     1  UNL1        0.3030
      3  O          5.1360    0.1970    2.4880 O.2     1  UNL1       -0.2520
      4  O          3.2550    1.4580    2.4570 O.3     1  UNL1       -0.4810
      5  H          2.4770    0.7950    2.4030 H       1  UNL1        0.2960
      6  C          6.5040    1.7540    0.7650 C.3     1  UNL1        0.0470
      7  C          7.1190    1.0080   -0.3310 C.2     1  UNL1       -0.0470
      8  C          6.3910    0.0920   -1.0540 C.2     1  UNL1        0.0040
      9  C          8.4420    1.2330   -0.6370 C.2     1  UNL1        0.0040
     10  C          7.0430   -0.5840   -2.0880 C.2     1  UNL1        0.0000
     11  C          9.0850    0.5630   -1.6590 C.2     1  UNL1        0.0000
     12  C          8.3630   -0.3560   -2.3880 C.2     1  UNL1        0.0000
@<TRIPOS>BOND
     1    12    10    2
     2    12    11    1
     3    10     8    1
     4    11     9    2
     5     8     7    2
     6     9     7    1
     7     7     6    1
     8     1     6    1
     9     1     2    1
    10     2     4    1
    11     2     3    2
    12     5     4    1
