@<TRIPOS>MOLECULE
/home/cewinharhar/GITHUB/reincatalyze/data/processed/docking_pred/2023-Apr-26-1657_maxeplen10_maxtrainstep1000_exh32_gamma099_lrac9e-4_lrcr1e-3/ae62664a3c9eef67376bdc077c2faa7ac5a69a78_ligand_2.pdbqt
 12 12 0 0 0
SMALL
GASTEIGER

@<TRIPOS>ATOM
      1  C          4.9910    1.7940    0.7030 C.3     1  UNL1        0.1270
      2  C          4.4800    1.1100    1.9150 C.2     1  UNL1        0.3030
      3  O          5.1420    0.2030    2.4770 O.2     1  UNL1       -0.2520
      4  O          3.2540    1.4550    2.4610 O.3     1  UNL1       -0.4810
      5  H          3.2260    1.9410    3.3610 H       1  UNL1        0.2960
      6  C          6.4890    1.7780    0.7500 C.3     1  UNL1        0.0470
      7  C          7.1090    1.0280   -0.3410 C.2     1  UNL1       -0.0470
      8  C          6.3740    0.1380   -1.0900 C.2     1  UNL1        0.0040
      9  C          8.4430    1.2220   -0.6160 C.2     1  UNL1        0.0040
     10  C          7.0320   -0.5430   -2.1170 C.2     1  UNL1        0.0000
     11  C          9.0920    0.5470   -1.6310 C.2     1  UNL1        0.0000
     12  C          8.3630   -0.3460   -2.3860 C.2     1  UNL1        0.0000
@<TRIPOS>BOND
     1    12    10    2
     2    12    11    1
     3    10     8    1
     4    11     9    2
     5     8     7    2
     6     9     7    1
     7     7     6    1
     8     1     6    1
     9     1     2    1
    10     2     4    1
    11     2     3    2
    12     4     5    1
