MODEL 1
REMARK VINA RESULT:      -7.4      0.000      0.000
REMARK SMILES O=C(O)CCc1ccccc1
REMARK SMILES IDX 4 1 2 2 1 3 3 4 5 6 6 7 7 8 11 9 8 10 10 11 9 12
REMARK H PARENT 3 5
REMARK Flexibility Score: inf
ROOT
ATOM      1  C   UNL     1       8.431  -0.585  -2.201  1.00  0.00     0.127 C 
ENDROOT
BRANCH   1   2
ATOM      2  C   UNL     1       8.481  -1.888  -2.905  1.00  0.00     0.303 C 
ATOM      3  O   UNL     1       9.565  -2.504  -3.058  1.00  0.00    -0.252 OA
BRANCH   2   4
ATOM      4  O   UNL     1       7.329  -2.464  -3.415  1.00  0.00    -0.481 OA
ATOM      5  H   UNL     1       7.246  -2.608  -4.426  1.00  0.00     0.296 HD
ENDBRANCH   2   4
ENDBRANCH   1   2
BRANCH   1   6
ATOM      6  C   UNL     1       7.005  -0.129  -2.155  1.00  0.00     0.047 C 
BRANCH   6   7
ATOM      7  C   UNL     1       6.480   0.047  -0.801  1.00  0.00    -0.047 A 
ATOM      8  C   UNL     1       5.867   1.221  -0.432  1.00  0.00     0.004 A 
ATOM      9  C   UNL     1       6.604  -0.980   0.105  1.00  0.00     0.004 A 
ATOM     10  C   UNL     1       5.389   1.319   0.877  1.00  0.00     0.000 A 
ATOM     11  C   UNL     1       6.131  -0.882   1.399  1.00  0.00     0.000 A 
ATOM     12  C   UNL     1       5.516   0.292   1.777  1.00  0.00     0.000 A 
ENDBRANCH   6   7
ENDBRANCH   1   6
TORSDOF 4
ENDMDL
MODEL 2
REMARK VINA RESULT:      -7.3      0.191      1.736
REMARK SMILES O=C(O)CCc1ccccc1
REMARK SMILES IDX 4 1 2 2 1 3 3 4 5 6 6 7 7 8 11 9 8 10 10 11 9 12
REMARK H PARENT 3 5
REMARK Flexibility Score: inf
ROOT
ATOM      1  C   UNL     1       8.461  -0.668  -2.047  1.00  0.00     0.127 C 
ENDROOT
BRANCH   1   2
ATOM      2  C   UNL     1       8.398  -1.904  -2.862  1.00  0.00     0.303 C 
ATOM      3  O   UNL     1       7.297  -2.398  -3.210  1.00  0.00    -0.252 OA
BRANCH   2   4
ATOM      4  O   UNL     1       9.556  -2.550  -3.263  1.00  0.00    -0.481 OA
ATOM      5  H   UNL     1      10.024  -2.251  -4.123  1.00  0.00     0.296 HD
ENDBRANCH   2   4
ENDBRANCH   1   2
BRANCH   1   6
ATOM      6  C   UNL     1       7.108  -0.024  -2.063  1.00  0.00     0.047 C 
BRANCH   6   7
ATOM      7  C   UNL     1       6.505   0.126  -0.740  1.00  0.00    -0.047 A 
ATOM      8  C   UNL     1       6.620  -0.870   0.202  1.00  0.00     0.004 A 
ATOM      9  C   UNL     1       5.819   1.280  -0.441  1.00  0.00     0.004 A 
ATOM     10  C   UNL     1       6.019  -0.659   1.445  1.00  0.00     0.000 A 
ATOM     11  C   UNL     1       5.226   1.488   0.788  1.00  0.00     0.000 A 
ATOM     12  C   UNL     1       5.336   0.494   1.737  1.00  0.00     0.000 A 
ENDBRANCH   6   7
ENDBRANCH   1   6
TORSDOF 4
ENDMDL
MODEL 3
REMARK VINA RESULT:      -7.2      0.616      1.615
REMARK SMILES O=C(O)CCc1ccccc1
REMARK SMILES IDX 4 1 2 2 1 3 3 4 5 6 6 7 7 8 11 9 8 10 10 11 9 12
REMARK H PARENT 3 5
REMARK Flexibility Score: inf
ROOT
ATOM      1  C   UNL     1       8.053  -0.764  -2.089  1.00  0.00     0.127 C 
ENDROOT
BRANCH   1   2
ATOM      2  C   UNL     1       8.285  -1.954  -2.942  1.00  0.00     0.303 C 
ATOM      3  O   UNL     1       9.429  -2.459  -3.058  1.00  0.00    -0.252 OA
BRANCH   2   4
ATOM      4  O   UNL     1       7.242  -2.544  -3.636  1.00  0.00    -0.481 OA
ATOM      5  H   UNL     1       6.571  -1.950  -4.132  1.00  0.00     0.296 HD
ENDBRANCH   2   4
ENDBRANCH   1   2
BRANCH   1   6
ATOM      6  C   UNL     1       7.505  -1.227  -0.774  1.00  0.00     0.047 C 
BRANCH   6   7
ATOM      7  C   UNL     1       6.625  -0.258  -0.123  1.00  0.00    -0.047 A 
ATOM      8  C   UNL     1       6.214  -0.443   1.177  1.00  0.00     0.004 A 
ATOM      9  C   UNL     1       6.210   0.850  -0.825  1.00  0.00     0.004 A 
ATOM     10  C   UNL     1       5.375   0.524   1.736  1.00  0.00     0.000 A 
ATOM     11  C   UNL     1       5.380   1.805  -0.271  1.00  0.00     0.000 A 
ATOM     12  C   UNL     1       4.964   1.626   1.030  1.00  0.00     0.000 A 
ENDBRANCH   6   7
ENDBRANCH   1   6
TORSDOF 4
ENDMDL
MODEL 4
REMARK VINA RESULT:      -6.8      3.384      5.078
REMARK SMILES O=C(O)CCc1ccccc1
REMARK SMILES IDX 4 1 2 2 1 3 3 4 5 6 6 7 7 8 11 9 8 10 10 11 9 12
REMARK H PARENT 3 5
REMARK Flexibility Score: inf
ROOT
ATOM      1  C   UNL     1       4.991   1.794   0.703  1.00  0.00     0.127 C 
ENDROOT
BRANCH   1   2
ATOM      2  C   UNL     1       4.480   1.110   1.915  1.00  0.00     0.303 C 
ATOM      3  O   UNL     1       5.142   0.203   2.477  1.00  0.00    -0.252 OA
BRANCH   2   4
ATOM      4  O   UNL     1       3.254   1.455   2.461  1.00  0.00    -0.481 OA
ATOM      5  H   UNL     1       3.226   1.941   3.361  1.00  0.00     0.296 HD
ENDBRANCH   2   4
ENDBRANCH   1   2
BRANCH   1   6
ATOM      6  C   UNL     1       6.489   1.778   0.750  1.00  0.00     0.047 C 
BRANCH   6   7
ATOM      7  C   UNL     1       7.109   1.028  -0.341  1.00  0.00    -0.047 A 
ATOM      8  C   UNL     1       6.374   0.138  -1.090  1.00  0.00     0.004 A 
ATOM      9  C   UNL     1       8.443   1.222  -0.616  1.00  0.00     0.004 A 
ATOM     10  C   UNL     1       7.032  -0.543  -2.117  1.00  0.00     0.000 A 
ATOM     11  C   UNL     1       9.092   0.547  -1.631  1.00  0.00     0.000 A 
ATOM     12  C   UNL     1       8.363  -0.346  -2.386  1.00  0.00     0.000 A 
ENDBRANCH   6   7
ENDBRANCH   1   6
TORSDOF 4
ENDMDL
MODEL 5
REMARK VINA RESULT:      -6.7      3.780      4.979
REMARK SMILES O=C(O)CCc1ccccc1
REMARK SMILES IDX 4 1 2 2 1 3 3 4 5 6 6 7 7 8 11 9 8 10 10 11 9 12
REMARK H PARENT 3 5
REMARK Flexibility Score: inf
ROOT
ATOM      1  C   UNL     1       5.438   2.894   0.005  1.00  0.00     0.127 C 
ENDROOT
BRANCH   1   2
ATOM      2  C   UNL     1       6.249   3.842   0.805  1.00  0.00     0.303 C 
ATOM      3  O   UNL     1       6.888   4.775   0.258  1.00  0.00    -0.252 OA
BRANCH   2   4
ATOM      4  O   UNL     1       6.326   3.723   2.184  1.00  0.00    -0.481 OA
ATOM      5  H   UNL     1       6.422   4.567   2.755  1.00  0.00     0.296 HD
ENDBRANCH   2   4
ENDBRANCH   1   2
BRANCH   1   6
ATOM      6  C   UNL     1       4.973   1.793   0.909  1.00  0.00     0.047 C 
BRANCH   6   7
ATOM      7  C   UNL     1       5.775   0.575   0.822  1.00  0.00    -0.047 A 
ATOM      8  C   UNL     1       5.908  -0.259   1.909  1.00  0.00     0.004 A 
ATOM      9  C   UNL     1       6.399   0.264  -0.364  1.00  0.00     0.004 A 
ATOM     10  C   UNL     1       6.689  -1.406   1.754  1.00  0.00     0.000 A 
ATOM     11  C   UNL     1       7.171  -0.871  -0.515  1.00  0.00     0.000 A 
ATOM     12  C   UNL     1       7.310  -1.710   0.569  1.00  0.00     0.000 A 
ENDBRANCH   6   7
ENDBRANCH   1   6
TORSDOF 4
ENDMDL
