@<TRIPOS>MOLECULE
/home/cewinharhar/GITHUB/reincatalyze/data/processed/docking_pred/2023-Apr-26-1657_maxeplen10_maxtrainstep1000_exh32_gamma099_lrac9e-4_lrcr1e-3/ae62664a3c9eef67376bdc077c2faa7ac5a69a78_ligand_2.pdbqt
 12 12 0 0 0
SMALL
GASTEIGER

@<TRIPOS>ATOM
      1  C          8.0530   -0.7640   -2.0890 C.3     1  UNL1        0.1270
      2  C          8.2850   -1.9540   -2.9420 C.2     1  UNL1        0.3030
      3  O          9.4290   -2.4590   -3.0580 O.2     1  UNL1       -0.2520
      4  O          7.2420   -2.5440   -3.6360 O.3     1  UNL1       -0.4810
      5  H          6.5710   -1.9500   -4.1320 H       1  UNL1        0.2960
      6  C          7.5050   -1.2270   -0.7740 C.3     1  UNL1        0.0470
      7  C          6.6250   -0.2580   -0.1230 C.2     1  UNL1       -0.0470
      8  C          6.2140   -0.4430    1.1770 C.2     1  UNL1        0.0040
      9  C          6.2100    0.8500   -0.8250 C.2     1  UNL1        0.0040
     10  C          5.3750    0.5240    1.7360 C.2     1  UNL1        0.0000
     11  C          5.3800    1.8050   -0.2710 C.2     1  UNL1        0.0000
     12  C          4.9640    1.6260    1.0300 C.2     1  UNL1        0.0000
@<TRIPOS>BOND
     1     5     4    1
     2     4     2    1
     3     3     2    2
     4     2     1    1
     5     1     6    1
     6     9    11    1
     7     9     7    2
     8     6     7    1
     9    11    12    2
    10     7     8    1
    11    12    10    1
    12     8    10    2
