@<TRIPOS>MOLECULE
/home/cewinharhar/GITHUB/reincatalyze/data/processed/docking_pred/2023-Apr-26-1657_maxeplen10_maxtrainstep1000_exh32_gamma099_lrac9e-4_lrcr1e-3/ae62664a3c9eef67376bdc077c2faa7ac5a69a78_ligand_2.pdbqt
 12 12 0 0 0
SMALL
GASTEIGER

@<TRIPOS>ATOM
      1  C          5.4380    2.8940    0.0050 C.3     1  UNL1        0.1270
      2  C          6.2490    3.8420    0.8050 C.2     1  UNL1        0.3030
      3  O          6.8880    4.7750    0.2580 O.2     1  UNL1       -0.2520
      4  O          6.3260    3.7230    2.1840 O.3     1  UNL1       -0.4810
      5  H          6.4220    4.5670    2.7550 H       1  UNL1        0.2960
      6  C          4.9730    1.7930    0.9090 C.3     1  UNL1        0.0470
      7  C          5.7750    0.5750    0.8220 C.2     1  UNL1       -0.0470
      8  C          5.9080   -0.2590    1.9090 C.2     1  UNL1        0.0040
      9  C          6.3990    0.2640   -0.3640 C.2     1  UNL1        0.0040
     10  C          6.6890   -1.4060    1.7540 C.2     1  UNL1        0.0000
     11  C          7.1710   -0.8710   -0.5150 C.2     1  UNL1        0.0000
     12  C          7.3100   -1.7100    0.5690 C.2     1  UNL1        0.0000
@<TRIPOS>BOND
     1    11     9    1
     2    11    12    2
     3     9     7    2
     4     1     2    1
     5     1     6    1
     6     3     2    2
     7    12    10    1
     8     2     4    1
     9     7     6    1
    10     7     8    1
    11    10     8    2
    12     4     5    1
