@<TRIPOS>MOLECULE
/home/cewinharhar/GITHUB/reincatalyze/data/processed/docking_pred/2023-Apr-26-1657_maxeplen10_maxtrainstep1000_exh32_gamma099_lrac9e-4_lrcr1e-3/ae62664a3c9eef67376bdc077c2faa7ac5a69a78_ligand_2.pdbqt
 12 12 0 0 0
SMALL
GASTEIGER

@<TRIPOS>ATOM
      1  C          8.4610   -0.6680   -2.0470 C.3     1  UNL1        0.1270
      2  C          8.3980   -1.9040   -2.8620 C.2     1  UNL1        0.3030
      3  O          7.2970   -2.3980   -3.2100 O.2     1  UNL1       -0.2520
      4  O          9.5560   -2.5500   -3.2630 O.3     1  UNL1       -0.4810
      5  H         10.0240   -2.2510   -4.1230 H       1  UNL1        0.2960
      6  C          7.1080   -0.0240   -2.0630 C.3     1  UNL1        0.0470
      7  C          6.5050    0.1260   -0.7400 C.2     1  UNL1       -0.0470
      8  C          6.6200   -0.8700    0.2020 C.2     1  UNL1        0.0040
      9  C          5.8190    1.2800   -0.4410 C.2     1  UNL1        0.0040
     10  C          6.0190   -0.6590    1.4450 C.2     1  UNL1        0.0000
     11  C          5.2260    1.4880    0.7880 C.2     1  UNL1        0.0000
     12  C          5.3360    0.4940    1.7370 C.2     1  UNL1        0.0000
@<TRIPOS>BOND
     1     5     4    1
     2     4     2    1
     3     3     2    2
     4     2     1    1
     5     6     1    1
     6     6     7    1
     7     7     9    2
     8     7     8    1
     9     9    11    1
    10     8    10    2
    11    11    12    2
    12    10    12    1
