@<TRIPOS>MOLECULE
/home/cewinharhar/GITHUB/reincatalyze/data/processed/docking_pred/2023-Apr-26-1657_maxeplen10_maxtrainstep1000_exh32_gamma099_lrac9e-4_lrcr1e-3/af0dd28332db5651a88784e76b435690c0a42449_ligand_2.pdbqt
 12 12 0 0 0
SMALL
GASTEIGER

@<TRIPOS>ATOM
      1  C          8.4340   -0.6490   -2.1080 C.3     1  UNL1        0.1270
      2  C          8.4600   -1.9110   -2.8840 C.2     1  UNL1        0.3030
      3  O          9.5290   -2.5470   -3.0570 O.2     1  UNL1       -0.2520
      4  O          7.3010   -2.4250   -3.4440 O.3     1  UNL1       -0.4810
      5  H          6.9820   -3.3570   -3.1670 H       1  UNL1        0.2960
      6  C          7.0240   -0.1450   -2.0770 C.3     1  UNL1        0.0470
      7  C          6.4760    0.0070   -0.7290 C.2     1  UNL1       -0.0470
      8  C          6.5910   -1.0060    0.1940 C.2     1  UNL1        0.0040
      9  C          5.8430    1.1800   -0.3900 C.2     1  UNL1        0.0040
     10  C          6.0460   -0.7920    1.4620 C.2     1  UNL1        0.0000
     11  C          5.3040    1.3890    0.8640 C.2     1  UNL1        0.0000
     12  C          5.4140    0.3790    1.7950 C.2     1  UNL1        0.0000
@<TRIPOS>BOND
     1     4     5    1
     2     4     2    1
     3     3     2    2
     4     2     1    1
     5     1     6    1
     6     6     7    1
     7     7     9    2
     8     7     8    1
     9     9    11    1
    10     8    10    2
    11    11    12    2
    12    10    12    1
