@<TRIPOS>MOLECULE
/home/cewinharhar/GITHUB/reincatalyze/data/processed/docking_pred/2023-Apr-26-1657_maxeplen10_maxtrainstep1000_exh32_gamma099_lrac9e-4_lrcr1e-3/af0dd28332db5651a88784e76b435690c0a42449_ligand_2.pdbqt
 12 12 0 0 0
SMALL
GASTEIGER

@<TRIPOS>ATOM
      1  C          8.2570    0.1680   -2.1570 C.3     1  UNL1        0.1270
      2  C          9.3890    0.3410   -1.2180 C.2     1  UNL1        0.3030
      3  O          9.5000   -0.3770   -0.1930 O.2     1  UNL1       -0.2520
      4  O         10.3600    1.3030   -1.4450 O.3     1  UNL1       -0.4810
      5  H         10.8700    1.6980   -0.6500 H       1  UNL1        0.2960
      6  C          7.1740   -0.5930   -1.4550 C.3     1  UNL1        0.0470
      7  C          6.3800    0.2160   -0.5320 C.2     1  UNL1       -0.0470
      8  C          6.1470   -0.2110    0.7540 C.2     1  UNL1        0.0040
      9  C          5.8670    1.4170   -0.9640 C.2     1  UNL1        0.0040
     10  C          5.3810    0.6140    1.5810 C.2     1  UNL1        0.0000
     11  C          5.1100    2.2310   -0.1450 C.2     1  UNL1        0.0000
     12  C          4.8700    1.8110    1.1450 C.2     1  UNL1        0.0000
@<TRIPOS>BOND
     1     1     6    1
     2     1     2    1
     3     6     7    1
     4     4     2    1
     5     4     5    1
     6     2     3    2
     7     9     7    2
     8     9    11    1
     9     7     8    1
    10    11    12    2
    11     8    10    2
    12    12    10    1
