MODEL 1
REMARK VINA RESULT:      -7.3      0.000      0.000
REMARK SMILES O=C(O)CCc1ccccc1
REMARK SMILES IDX 4 1 2 2 1 3 3 4 5 6 6 7 7 8 11 9 8 10 10 11 9 12
REMARK H PARENT 3 5
REMARK Flexibility Score: inf
ROOT
ATOM      1  C   UNL     1       8.444  -0.658  -2.098  1.00  0.00     0.127 C 
ENDROOT
BRANCH   1   2
ATOM      2  C   UNL     1       8.474  -1.908  -2.893  1.00  0.00     0.303 C 
ATOM      3  O   UNL     1       9.551  -2.519  -3.106  1.00  0.00    -0.252 OA
BRANCH   2   4
ATOM      4  O   UNL     1       7.310  -2.439  -3.425  1.00  0.00    -0.481 OA
ATOM      5  H   UNL     1       6.478  -2.517  -2.834  1.00  0.00     0.296 HD
ENDBRANCH   2   4
ENDBRANCH   1   2
BRANCH   1   6
ATOM      6  C   UNL     1       7.047  -0.117  -2.123  1.00  0.00     0.047 C 
BRANCH   6   7
ATOM      7  C   UNL     1       6.466   0.091  -0.798  1.00  0.00    -0.047 A 
ATOM      8  C   UNL     1       5.851   1.279  -0.478  1.00  0.00     0.004 A 
ATOM      9  C   UNL     1       6.539  -0.919   0.133  1.00  0.00     0.004 A 
ATOM     10  C   UNL     1       5.318   1.408   0.806  1.00  0.00     0.000 A 
ATOM     11  C   UNL     1       6.012  -0.790   1.403  1.00  0.00     0.000 A 
ATOM     12  C   UNL     1       5.394   0.398   1.731  1.00  0.00     0.000 A 
ENDBRANCH   6   7
ENDBRANCH   1   6
TORSDOF 4
ENDMDL
MODEL 2
REMARK VINA RESULT:      -7.3      0.077      1.438
REMARK SMILES O=C(O)CCc1ccccc1
REMARK SMILES IDX 4 1 2 2 1 3 3 4 5 6 6 7 7 8 11 9 8 10 10 11 9 12
REMARK H PARENT 3 5
REMARK Flexibility Score: inf
ROOT
ATOM      1  C   UNL     1       8.434  -0.649  -2.108  1.00  0.00     0.127 C 
ENDROOT
BRANCH   1   2
ATOM      2  C   UNL     1       8.460  -1.911  -2.884  1.00  0.00     0.303 C 
ATOM      3  O   UNL     1       9.529  -2.547  -3.057  1.00  0.00    -0.252 OA
BRANCH   2   4
ATOM      4  O   UNL     1       7.301  -2.425  -3.444  1.00  0.00    -0.481 OA
ATOM      5  H   UNL     1       6.982  -3.357  -3.167  1.00  0.00     0.296 HD
ENDBRANCH   2   4
ENDBRANCH   1   2
BRANCH   1   6
ATOM      6  C   UNL     1       7.024  -0.145  -2.077  1.00  0.00     0.047 C 
BRANCH   6   7
ATOM      7  C   UNL     1       6.476   0.007  -0.729  1.00  0.00    -0.047 A 
ATOM      8  C   UNL     1       6.591  -1.006   0.194  1.00  0.00     0.004 A 
ATOM      9  C   UNL     1       5.843   1.180  -0.390  1.00  0.00     0.004 A 
ATOM     10  C   UNL     1       6.046  -0.792   1.462  1.00  0.00     0.000 A 
ATOM     11  C   UNL     1       5.304   1.389   0.864  1.00  0.00     0.000 A 
ATOM     12  C   UNL     1       5.414   0.379   1.795  1.00  0.00     0.000 A 
ENDBRANCH   6   7
ENDBRANCH   1   6
TORSDOF 4
ENDMDL
MODEL 3
REMARK VINA RESULT:      -6.7      3.340      5.019
REMARK SMILES O=C(O)CCc1ccccc1
REMARK SMILES IDX 4 1 2 2 1 3 3 4 5 6 6 7 7 8 11 9 8 10 10 11 9 12
REMARK H PARENT 3 5
REMARK Flexibility Score: inf
ROOT
ATOM      1  C   UNL     1       5.052   1.726   0.672  1.00  0.00     0.127 C 
ENDROOT
BRANCH   1   2
ATOM      2  C   UNL     1       4.592   1.049   1.908  1.00  0.00     0.303 C 
ATOM      3  O   UNL     1       5.304   0.189   2.482  1.00  0.00    -0.252 OA
BRANCH   2   4
ATOM      4  O   UNL     1       3.360   1.350   2.465  1.00  0.00    -0.481 OA
ATOM      5  H   UNL     1       2.833   0.613   2.943  1.00  0.00     0.296 HD
ENDBRANCH   2   4
ENDBRANCH   1   2
BRANCH   1   6
ATOM      6  C   UNL     1       6.549   1.781   0.695  1.00  0.00     0.047 C 
BRANCH   6   7
ATOM      7  C   UNL     1       7.189   1.019  -0.376  1.00  0.00    -0.047 A 
ATOM      8  C   UNL     1       8.518   1.209  -0.677  1.00  0.00     0.004 A 
ATOM      9  C   UNL     1       6.446   0.103  -1.084  1.00  0.00     0.004 A 
ATOM     10  C   UNL     1       9.063   0.445  -1.712  1.00  0.00     0.000 A 
ATOM     11  C   UNL     1       6.987  -0.651  -2.107  1.00  0.00     0.000 A 
ATOM     12  C   UNL     1       8.318  -0.467  -2.415  1.00  0.00     0.000 A 
ENDBRANCH   6   7
ENDBRANCH   1   6
TORSDOF 4
ENDMDL
MODEL 4
REMARK VINA RESULT:      -6.7      1.945      2.657
REMARK SMILES O=C(O)CCc1ccccc1
REMARK SMILES IDX 4 1 2 2 1 3 3 4 5 6 6 7 7 8 11 9 8 10 10 11 9 12
REMARK H PARENT 3 5
REMARK Flexibility Score: inf
ROOT
ATOM      1  C   UNL     1       8.257   0.168  -2.157  1.00  0.00     0.127 C 
ENDROOT
BRANCH   1   2
ATOM      2  C   UNL     1       9.389   0.341  -1.218  1.00  0.00     0.303 C 
ATOM      3  O   UNL     1       9.500  -0.377  -0.193  1.00  0.00    -0.252 OA
BRANCH   2   4
ATOM      4  O   UNL     1      10.360   1.303  -1.445  1.00  0.00    -0.481 OA
ATOM      5  H   UNL     1      10.870   1.698  -0.650  1.00  0.00     0.296 HD
ENDBRANCH   2   4
ENDBRANCH   1   2
BRANCH   1   6
ATOM      6  C   UNL     1       7.174  -0.593  -1.455  1.00  0.00     0.047 C 
BRANCH   6   7
ATOM      7  C   UNL     1       6.380   0.216  -0.532  1.00  0.00    -0.047 A 
ATOM      8  C   UNL     1       6.147  -0.211   0.754  1.00  0.00     0.004 A 
ATOM      9  C   UNL     1       5.867   1.417  -0.964  1.00  0.00     0.004 A 
ATOM     10  C   UNL     1       5.381   0.614   1.581  1.00  0.00     0.000 A 
ATOM     11  C   UNL     1       5.110   2.231  -0.145  1.00  0.00     0.000 A 
ATOM     12  C   UNL     1       4.870   1.811   1.145  1.00  0.00     0.000 A 
ENDBRANCH   6   7
ENDBRANCH   1   6
TORSDOF 4
ENDMDL
MODEL 5
REMARK VINA RESULT:      -6.6      3.790      5.024
REMARK SMILES O=C(O)CCc1ccccc1
REMARK SMILES IDX 4 1 2 2 1 3 3 4 5 6 6 7 7 8 11 9 8 10 10 11 9 12
REMARK H PARENT 3 5
REMARK Flexibility Score: inf
ROOT
ATOM      1  C   UNL     1       5.369   2.921   0.028  1.00  0.00     0.127 C 
ENDROOT
BRANCH   1   2
ATOM      2  C   UNL     1       6.193   3.885   0.794  1.00  0.00     0.303 C 
ATOM      3  O   UNL     1       6.873   4.766   0.211  1.00  0.00    -0.252 OA
BRANCH   2   4
ATOM      4  O   UNL     1       6.237   3.840   2.178  1.00  0.00    -0.481 OA
ATOM      5  H   UNL     1       6.987   4.331   2.672  1.00  0.00     0.296 HD
ENDBRANCH   2   4
ENDBRANCH   1   2
BRANCH   1   6
ATOM      6  C   UNL     1       4.908   1.847   0.966  1.00  0.00     0.047 C 
BRANCH   6   7
ATOM      7  C   UNL     1       5.705   0.623   0.906  1.00  0.00    -0.047 A 
ATOM      8  C   UNL     1       5.832  -0.189   2.009  1.00  0.00     0.004 A 
ATOM      9  C   UNL     1       6.331   0.287  -0.272  1.00  0.00     0.004 A 
ATOM     10  C   UNL     1       6.608  -1.343   1.880  1.00  0.00     0.000 A 
ATOM     11  C   UNL     1       7.099  -0.854  -0.398  1.00  0.00     0.000 A 
ATOM     12  C   UNL     1       7.231  -1.673   0.702  1.00  0.00     0.000 A 
ENDBRANCH   6   7
ENDBRANCH   1   6
TORSDOF 4
ENDMDL
