@<TRIPOS>MOLECULE
/home/cewinharhar/GITHUB/reincatalyze/data/processed/docking_pred/2023-Apr-26-1657_maxeplen10_maxtrainstep1000_exh32_gamma099_lrac9e-4_lrcr1e-3/af0dd28332db5651a88784e76b435690c0a42449_ligand_2.pdbqt
 12 12 0 0 0
SMALL
GASTEIGER

@<TRIPOS>ATOM
      1  C          5.0520    1.7260    0.6720 C.3     1  UNL1        0.1270
      2  C          4.5920    1.0490    1.9080 C.2     1  UNL1        0.3030
      3  O          5.3040    0.1890    2.4820 O.2     1  UNL1       -0.2520
      4  O          3.3600    1.3500    2.4650 O.3     1  UNL1       -0.4810
      5  H          2.8330    0.6130    2.9430 H       1  UNL1        0.2960
      6  C          6.5490    1.7810    0.6950 C.3     1  UNL1        0.0470
      7  C          7.1890    1.0190   -0.3760 C.2     1  UNL1       -0.0470
      8  C          8.5180    1.2090   -0.6770 C.2     1  UNL1        0.0040
      9  C          6.4460    0.1030   -1.0840 C.2     1  UNL1        0.0040
     10  C          9.0630    0.4450   -1.7120 C.2     1  UNL1        0.0000
     11  C          6.9870   -0.6510   -2.1070 C.2     1  UNL1        0.0000
     12  C          8.3180   -0.4670   -2.4150 C.2     1  UNL1        0.0000
@<TRIPOS>BOND
     1    12    11    2
     2    12    10    1
     3    11     9    1
     4    10     8    2
     5     9     7    2
     6     8     7    1
     7     7     6    1
     8     1     6    1
     9     1     2    1
    10     2     4    1
    11     2     3    2
    12     4     5    1
