@<TRIPOS>MOLECULE
/home/cewinharhar/GITHUB/reincatalyze/data/processed/docking_pred/2023-Apr-26-1657_maxeplen10_maxtrainstep1000_exh32_gamma099_lrac9e-4_lrcr1e-3/af0dd28332db5651a88784e76b435690c0a42449_ligand_2.pdbqt
 12 12 0 0 0
SMALL
GASTEIGER

@<TRIPOS>ATOM
      1  C          8.4440   -0.6580   -2.0980 C.3     1  UNL1        0.1270
      2  C          8.4740   -1.9080   -2.8930 C.2     1  UNL1        0.3030
      3  O          9.5510   -2.5190   -3.1060 O.2     1  UNL1       -0.2520
      4  O          7.3100   -2.4390   -3.4250 O.3     1  UNL1       -0.4810
      5  H          6.4780   -2.5170   -2.8340 H       1  UNL1        0.2960
      6  C          7.0470   -0.1170   -2.1230 C.3     1  UNL1        0.0470
      7  C          6.4660    0.0910   -0.7980 C.2     1  UNL1       -0.0470
      8  C          5.8510    1.2790   -0.4780 C.2     1  UNL1        0.0040
      9  C          6.5390   -0.9190    0.1330 C.2     1  UNL1        0.0040
     10  C          5.3180    1.4080    0.8060 C.2     1  UNL1        0.0000
     11  C          6.0120   -0.7900    1.4030 C.2     1  UNL1        0.0000
     12  C          5.3940    0.3980    1.7310 C.2     1  UNL1        0.0000
@<TRIPOS>BOND
     1     4     2    1
     2     4     5    1
     3     3     2    2
     4     2     1    1
     5     6     1    1
     6     6     7    1
     7     7     8    2
     8     7     9    1
     9     8    10    1
    10     9    11    2
    11    10    12    2
    12    11    12    1
