@<TRIPOS>MOLECULE
/home/cewinharhar/GITHUB/reincatalyze/data/processed/docking_pred/2023-Apr-26-1657_maxeplen10_maxtrainstep1000_exh32_gamma099_lrac9e-4_lrcr1e-3/af0dd28332db5651a88784e76b435690c0a42449_ligand_2.pdbqt
 12 12 0 0 0
SMALL
GASTEIGER

@<TRIPOS>ATOM
      1  C          5.3690    2.9210    0.0280 C.3     1  UNL1        0.1270
      2  C          6.1930    3.8850    0.7940 C.2     1  UNL1        0.3030
      3  O          6.8730    4.7660    0.2110 O.2     1  UNL1       -0.2520
      4  O          6.2370    3.8400    2.1780 O.3     1  UNL1       -0.4810
      5  H          6.9870    4.3310    2.6720 H       1  UNL1        0.2960
      6  C          4.9080    1.8470    0.9660 C.3     1  UNL1        0.0470
      7  C          5.7050    0.6230    0.9060 C.2     1  UNL1       -0.0470
      8  C          5.8320   -0.1890    2.0090 C.2     1  UNL1        0.0040
      9  C          6.3310    0.2870   -0.2720 C.2     1  UNL1        0.0040
     10  C          6.6080   -1.3430    1.8800 C.2     1  UNL1        0.0000
     11  C          7.0990   -0.8540   -0.3980 C.2     1  UNL1        0.0000
     12  C          7.2310   -1.6730    0.7020 C.2     1  UNL1        0.0000
@<TRIPOS>BOND
     1    11     9    1
     2    11    12    2
     3     9     7    2
     4     1     2    1
     5     1     6    1
     6     3     2    2
     7    12    10    1
     8     2     4    1
     9     7     6    1
    10     7     8    1
    11    10     8    2
    12     4     5    1
