@<TRIPOS>MOLECULE
/home/cewinharhar/GITHUB/reincatalyze/data/processed/docking_pred/2023-Apr-26-1657_maxeplen10_maxtrainstep1000_exh32_gamma099_lrac9e-4_lrcr1e-3/af895cae38f50b8ad608cacdd29f7ae1ddca485c_ligand_2.pdbqt
 12 12 0 0 0
SMALL
GASTEIGER

@<TRIPOS>ATOM
      1  C          5.2570   -0.2180    1.9170 C.3     1  UNL1        0.1270
      2  C          4.5610    1.0900    1.9590 C.2     1  UNL1        0.3030
      3  O          5.0580    2.1100    1.4200 O.2     1  UNL1       -0.2520
      4  O          3.3370    1.2230    2.5960 O.3     1  UNL1       -0.4810
      5  H          2.5710    0.5930    2.3440 H       1  UNL1        0.2960
      6  C          6.7330    0.0370    1.8660 C.3     1  UNL1        0.0470
      7  C          7.4020   -0.5740    0.7190 C.2     1  UNL1       -0.0470
      8  C          8.7260   -0.9390    0.7890 C.2     1  UNL1        0.0040
      9  C          6.6900   -0.7840   -0.4400 C.2     1  UNL1        0.0040
     10  C          9.3000   -1.5180   -0.3450 C.2     1  UNL1        0.0000
     11  C          7.2590   -1.3560   -1.5600 C.2     1  UNL1        0.0000
     12  C          8.5860   -1.7240   -1.4980 C.2     1  UNL1        0.0000
@<TRIPOS>BOND
     1    11    12    2
     2    11     9    1
     3    12    10    1
     4     9     7    2
     5    10     8    2
     6     7     8    1
     7     7     6    1
     8     3     2    2
     9     6     1    1
    10     1     2    1
    11     2     4    1
    12     5     4    1
