@<TRIPOS>MOLECULE
/home/cewinharhar/GITHUB/reincatalyze/data/processed/docking_pred/2023-Apr-26-1657_maxeplen10_maxtrainstep1000_exh32_gamma099_lrac9e-4_lrcr1e-3/af895cae38f50b8ad608cacdd29f7ae1ddca485c_ligand_2.pdbqt
 12 12 0 0 0
SMALL
GASTEIGER

@<TRIPOS>ATOM
      1  C          6.0820   -0.8290    1.5110 C.3     1  UNL1        0.1270
      2  C          5.5280    0.4760    1.9410 C.2     1  UNL1        0.3030
      3  O          6.2000    1.5330    1.8410 O.2     1  UNL1       -0.2520
      4  O          4.2500    0.5670    2.4670 O.3     1  UNL1       -0.4810
      5  H          4.1270    0.6060    3.4820 H       1  UNL1        0.2960
      6  C          6.4670   -0.7250    0.0670 C.3     1  UNL1        0.0470
      7  C          7.8860   -0.9650   -0.1890 C.2     1  UNL1       -0.0470
      8  C          8.7900   -1.0070    0.8470 C.2     1  UNL1        0.0040
      9  C          8.3130   -1.1520   -1.4840 C.2     1  UNL1        0.0040
     10  C         10.1300   -1.2410    0.5290 C.2     1  UNL1        0.0000
     11  C          9.6380   -1.3830   -1.7960 C.2     1  UNL1        0.0000
     12  C         10.5500   -1.4260   -0.7640 C.2     1  UNL1        0.0000
@<TRIPOS>BOND
     1    11     9    1
     2    11    12    2
     3     9     7    2
     4    12    10    1
     5     7     6    1
     6     7     8    1
     7     6     1    1
     8    10     8    2
     9     1     2    1
    10     3     2    2
    11     2     4    1
    12     4     5    1
