@<TRIPOS>MOLECULE
/home/cewinharhar/GITHUB/reincatalyze/data/processed/docking_pred/2023-Apr-26-1657_maxeplen10_maxtrainstep1000_exh32_gamma099_lrac9e-4_lrcr1e-3/af895cae38f50b8ad608cacdd29f7ae1ddca485c_ligand_2.pdbqt
 12 12 0 0 0
SMALL
GASTEIGER

@<TRIPOS>ATOM
      1  C          6.4590   -0.9530    1.7440 C.3     1  UNL1        0.1270
      2  C          5.7330    0.3060    2.0310 C.2     1  UNL1        0.3030
      3  O          4.5330    0.2960    2.4000 O.2     1  UNL1       -0.2520
      4  O          6.3620    1.5340    1.9000 O.3     1  UNL1       -0.4810
      5  H          7.2640    1.6860    2.3590 H       1  UNL1        0.2960
      6  C          6.8720   -0.9410    0.3030 C.3     1  UNL1        0.0470
      7  C          8.3000   -0.7060    0.0960 C.2     1  UNL1       -0.0470
      8  C          8.7340    0.2390   -0.8040 C.2     1  UNL1        0.0040
      9  C          9.2120   -1.4430    0.8160 C.2     1  UNL1        0.0040
     10  C         10.1120    0.4100   -0.9490 C.2     1  UNL1        0.0000
     11  C         10.5750   -1.2730    0.6700 C.2     1  UNL1        0.0000
     12  C         11.0180   -0.3280   -0.2300 C.2     1  UNL1        0.0000
@<TRIPOS>BOND
     1    10     8    1
     2    10    12    2
     3     8     7    2
     4    12    11    1
     5     7     6    1
     6     7     9    1
     7     6     1    1
     8    11     9    2
     9     1     2    1
    10     4     2    1
    11     4     5    1
    12     2     3    2
