@<TRIPOS>MOLECULE
/home/cewinharhar/GITHUB/reincatalyze/data/processed/docking_pred/2023-Apr-26-1657_maxeplen10_maxtrainstep1000_exh32_gamma099_lrac9e-4_lrcr1e-3/af895cae38f50b8ad608cacdd29f7ae1ddca485c_ligand_2.pdbqt
 12 12 0 0 0
SMALL
GASTEIGER

@<TRIPOS>ATOM
      1  C          6.2810   -0.9580    1.5860 C.3     1  UNL1        0.1270
      2  C          5.6500    0.3210    1.9870 C.2     1  UNL1        0.3030
      3  O          4.4760    0.3570    2.4310 O.2     1  UNL1       -0.2520
      4  O          6.3410    1.5180    1.8800 O.3     1  UNL1       -0.4810
      5  H          6.4320    2.1180    2.7040 H       1  UNL1        0.2960
      6  C          6.7770   -0.8190    0.1790 C.3     1  UNL1        0.0470
      7  C          8.2300   -0.6930    0.0710 C.2     1  UNL1       -0.0470
      8  C          9.0630   -1.4980    0.8130 C.2     1  UNL1        0.0040
      9  C          8.7610    0.2420   -0.7870 C.2     1  UNL1        0.0040
     10  C         10.4400   -1.3230    0.6580 C.2     1  UNL1        0.0000
     11  C         10.1220    0.4140   -0.9390 C.2     1  UNL1        0.0000
     12  C         10.9640   -0.3880   -0.1980 C.2     1  UNL1        0.0000
@<TRIPOS>BOND
     1    11     9    1
     2    11    12    2
     3     9     7    2
     4    12    10    1
     5     7     6    1
     6     7     8    1
     7     6     1    1
     8    10     8    2
     9     1     2    1
    10     4     2    1
    11     4     5    1
    12     2     3    2
