@<TRIPOS>MOLECULE
/home/cewinharhar/GITHUB/reincatalyze/data/processed/docking_pred/2023-Apr-26-1657_maxeplen10_maxtrainstep1000_exh32_gamma099_lrac9e-4_lrcr1e-3/af895cae38f50b8ad608cacdd29f7ae1ddca485c_ligand_2.pdbqt
 12 12 0 0 0
SMALL
GASTEIGER

@<TRIPOS>ATOM
      1  C          5.2940   -0.2260    1.9350 C.3     1  UNL1        0.1270
      2  C          4.5770    1.0710    1.9690 C.2     1  UNL1        0.3030
      3  O          5.0570    2.0940    1.4210 O.2     1  UNL1       -0.2520
      4  O          3.3540    1.1890    2.6090 O.3     1  UNL1       -0.4810
      5  H          2.8620    0.3440    2.9100 H       1  UNL1        0.2960
      6  C          6.7620    0.0500    1.8280 C.3     1  UNL1        0.0470
      7  C          7.4140   -0.6190    0.7040 C.2     1  UNL1       -0.0470
      8  C          6.7400   -0.8270   -0.4770 C.2     1  UNL1        0.0040
      9  C          8.7160   -1.0410    0.8370 C.2     1  UNL1        0.0040
     10  C          7.4240   -1.4720   -1.5100 C.2     1  UNL1        0.0000
     11  C          9.3920   -1.6790   -0.1850 C.2     1  UNL1        0.0000
     12  C          8.7230   -1.8910   -1.3710 C.2     1  UNL1        0.0000
@<TRIPOS>BOND
     1    10    12    2
     2    10     8    1
     3    12    11    1
     4     8     7    2
     5    11     9    2
     6     7     9    1
     7     7     6    1
     8     3     2    2
     9     6     1    1
    10     1     2    1
    11     2     4    1
    12     4     5    1
