@<TRIPOS>MOLECULE
/home/cewinharhar/GITHUB/reincatalyze/data/processed/docking_pred/2023-Apr-26-1657_maxeplen10_maxtrainstep1000_exh32_gamma099_lrac9e-4_lrcr1e-3/af9628f04dddfdfce7c60ac864c84e5664a7a69f_ligand_2.pdbqt
 12 12 0 0 0
SMALL
GASTEIGER

@<TRIPOS>ATOM
      1  C          8.1520   -0.8350   -1.9710 C.3     1  UNL1        0.1270
      2  C          8.3670   -1.9840   -2.8820 C.2     1  UNL1        0.3030
      3  O          9.5160   -2.4490   -3.0840 O.2     1  UNL1       -0.2520
      4  O          7.3010   -2.5780   -3.5380 O.3     1  UNL1       -0.4810
      5  H          6.6510   -1.9920   -4.0700 H       1  UNL1        0.2960
      6  C          7.3100   -1.2970   -0.8200 C.3     1  UNL1        0.0470
      7  C          6.5070   -0.2390   -0.2090 C.2     1  UNL1       -0.0470
      8  C          6.1640    0.8860   -0.9240 C.2     1  UNL1        0.0040
      9  C          6.0910   -0.3800    1.0940 C.2     1  UNL1        0.0040
     10  C          5.3940    1.8550   -0.2770 C.2     1  UNL1        0.0000
     11  C          5.3300    0.5790    1.7320 C.2     1  UNL1        0.0000
     12  C          4.9830    1.7090    1.0240 C.2     1  UNL1        0.0000
@<TRIPOS>BOND
     1     5     4    1
     2     4     2    1
     3     3     2    2
     4     2     1    1
     5     1     6    1
     6     8    10    1
     7     8     7    2
     8     6     7    1
     9    10    12    2
    10     7     9    1
    11    12    11    1
    12     9    11    2
