@<TRIPOS>MOLECULE
/home/cewinharhar/GITHUB/reincatalyze/data/processed/docking_pred/2023-Apr-26-1657_maxeplen10_maxtrainstep1000_exh32_gamma099_lrac9e-4_lrcr1e-3/af9628f04dddfdfce7c60ac864c84e5664a7a69f_ligand_2.pdbqt
 12 12 0 0 0
SMALL
GASTEIGER

@<TRIPOS>ATOM
      1  C          5.4080    2.9130    0.0130 C.3     1  UNL1        0.1270
      2  C          6.2250    3.8620    0.8050 C.2     1  UNL1        0.3030
      3  O          6.8850    4.7750    0.2480 O.2     1  UNL1       -0.2520
      4  O          6.2840    3.7680    2.1860 O.3     1  UNL1       -0.4810
      5  H          7.1120    4.1150    2.6770 H       1  UNL1        0.2960
      6  C          4.8880    1.8540    0.9380 C.3     1  UNL1        0.0470
      7  C          5.6720    0.6200    0.9290 C.2     1  UNL1       -0.0470
      8  C          5.7610   -0.1640    2.0560 C.2     1  UNL1        0.0040
      9  C          6.3230    0.2460   -0.2240 C.2     1  UNL1        0.0040
     10  C          6.5260   -1.3300    1.9750 C.2     1  UNL1        0.0000
     11  C          7.0790   -0.9060   -0.3020 C.2     1  UNL1        0.0000
     12  C          7.1740   -1.6980    0.8230 C.2     1  UNL1        0.0000
@<TRIPOS>BOND
     1    11     9    1
     2    11    12    2
     3     9     7    2
     4     1     2    1
     5     1     6    1
     6     3     2    2
     7     2     4    1
     8    12    10    1
     9     7     6    1
    10     7     8    1
    11    10     8    2
    12     4     5    1
