@<TRIPOS>MOLECULE
/home/cewinharhar/GITHUB/reincatalyze/data/processed/docking_pred/2023-Apr-26-1657_maxeplen10_maxtrainstep1000_exh32_gamma099_lrac9e-4_lrcr1e-3/af9628f04dddfdfce7c60ac864c84e5664a7a69f_ligand_2.pdbqt
 12 12 0 0 0
SMALL
GASTEIGER

@<TRIPOS>ATOM
      1  C          8.4100   -0.5540   -2.2510 C.3     1  UNL1        0.1270
      2  C          8.4680   -1.8790   -2.9130 C.2     1  UNL1        0.3030
      3  O          9.5570   -2.4850   -3.0630 O.2     1  UNL1       -0.2520
      4  O          7.3160   -2.4870   -3.3860 O.3     1  UNL1       -0.4810
      5  H          7.3870   -3.3830   -3.8760 H       1  UNL1        0.2960
      6  C          6.9780   -0.1200   -2.1900 C.3     1  UNL1        0.0470
      7  C          6.4670    0.0540   -0.8310 C.2     1  UNL1       -0.0470
      8  C          6.6020   -0.9450    0.1040 C.2     1  UNL1        0.0040
      9  C          5.8480    1.2350   -0.4930 C.2     1  UNL1        0.0040
     10  C          6.0920   -0.7090    1.3830 C.2     1  UNL1        0.0000
     11  C          5.3440    1.4670    0.7710 C.2     1  UNL1        0.0000
     12  C          5.4740    0.4700    1.7140 C.2     1  UNL1        0.0000
@<TRIPOS>BOND
     1     5     4    1
     2     4     2    1
     3     3     2    2
     4     2     1    1
     5     1     6    1
     6     6     7    1
     7     7     9    2
     8     7     8    1
     9     9    11    1
    10     8    10    2
    11    11    12    2
    12    10    12    1
