MODEL 1
REMARK VINA RESULT:      -7.3      0.000      0.000
REMARK SMILES O=C(O)CCc1ccccc1
REMARK SMILES IDX 4 1 2 2 1 3 3 4 5 6 6 7 7 8 11 9 8 10 10 11 9 12
REMARK H PARENT 3 5
REMARK Flexibility Score: inf
ROOT
ATOM      1  C   UNL     1       8.425  -0.581  -2.198  1.00  0.00     0.127 C 
ENDROOT
BRANCH   1   2
ATOM      2  C   UNL     1       8.474  -1.881  -2.908  1.00  0.00     0.303 C 
ATOM      3  O   UNL     1       9.561  -2.486  -3.083  1.00  0.00    -0.252 OA
BRANCH   2   4
ATOM      4  O   UNL     1       7.318  -2.465  -3.401  1.00  0.00    -0.481 OA
ATOM      5  H   UNL     1       6.418  -2.003  -3.245  1.00  0.00     0.296 HD
ENDBRANCH   2   4
ENDBRANCH   1   2
BRANCH   1   6
ATOM      6  C   UNL     1       6.999  -0.123  -2.152  1.00  0.00     0.047 C 
BRANCH   6   7
ATOM      7  C   UNL     1       6.475   0.059  -0.800  1.00  0.00    -0.047 A 
ATOM      8  C   UNL     1       5.862   1.235  -0.435  1.00  0.00     0.004 A 
ATOM      9  C   UNL     1       6.600  -0.965   0.111  1.00  0.00     0.004 A 
ATOM     10  C   UNL     1       5.385   1.338   0.874  1.00  0.00     0.000 A 
ATOM     11  C   UNL     1       6.128  -0.861   1.405  1.00  0.00     0.000 A 
ATOM     12  C   UNL     1       5.513   0.314   1.779  1.00  0.00     0.000 A 
ENDBRANCH   6   7
ENDBRANCH   1   6
TORSDOF 4
ENDMDL
MODEL 2
REMARK VINA RESULT:      -7.3      0.093      1.439
REMARK SMILES O=C(O)CCc1ccccc1
REMARK SMILES IDX 4 1 2 2 1 3 3 4 5 6 6 7 7 8 11 9 8 10 10 11 9 12
REMARK H PARENT 3 5
REMARK Flexibility Score: inf
ROOT
ATOM      1  C   UNL     1       8.410  -0.554  -2.251  1.00  0.00     0.127 C 
ENDROOT
BRANCH   1   2
ATOM      2  C   UNL     1       8.468  -1.879  -2.913  1.00  0.00     0.303 C 
ATOM      3  O   UNL     1       9.557  -2.485  -3.063  1.00  0.00    -0.252 OA
BRANCH   2   4
ATOM      4  O   UNL     1       7.316  -2.487  -3.386  1.00  0.00    -0.481 OA
ATOM      5  H   UNL     1       7.387  -3.383  -3.876  1.00  0.00     0.296 HD
ENDBRANCH   2   4
ENDBRANCH   1   2
BRANCH   1   6
ATOM      6  C   UNL     1       6.978  -0.120  -2.190  1.00  0.00     0.047 C 
BRANCH   6   7
ATOM      7  C   UNL     1       6.467   0.054  -0.831  1.00  0.00    -0.047 A 
ATOM      8  C   UNL     1       6.602  -0.945   0.104  1.00  0.00     0.004 A 
ATOM      9  C   UNL     1       5.848   1.235  -0.493  1.00  0.00     0.004 A 
ATOM     10  C   UNL     1       6.092  -0.709   1.383  1.00  0.00     0.000 A 
ATOM     11  C   UNL     1       5.344   1.467   0.771  1.00  0.00     0.000 A 
ATOM     12  C   UNL     1       5.474   0.470   1.714  1.00  0.00     0.000 A 
ENDBRANCH   6   7
ENDBRANCH   1   6
TORSDOF 4
ENDMDL
MODEL 3
REMARK VINA RESULT:      -7.2      0.633      1.094
REMARK SMILES O=C(O)CCc1ccccc1
REMARK SMILES IDX 4 1 2 2 1 3 3 4 5 6 6 7 7 8 11 9 8 10 10 11 9 12
REMARK H PARENT 3 5
REMARK Flexibility Score: inf
ROOT
ATOM      1  C   UNL     1       8.152  -0.835  -1.971  1.00  0.00     0.127 C 
ENDROOT
BRANCH   1   2
ATOM      2  C   UNL     1       8.367  -1.984  -2.882  1.00  0.00     0.303 C 
ATOM      3  O   UNL     1       9.516  -2.449  -3.084  1.00  0.00    -0.252 OA
BRANCH   2   4
ATOM      4  O   UNL     1       7.301  -2.578  -3.538  1.00  0.00    -0.481 OA
ATOM      5  H   UNL     1       6.651  -1.992  -4.070  1.00  0.00     0.296 HD
ENDBRANCH   2   4
ENDBRANCH   1   2
BRANCH   1   6
ATOM      6  C   UNL     1       7.310  -1.297  -0.820  1.00  0.00     0.047 C 
BRANCH   6   7
ATOM      7  C   UNL     1       6.507  -0.239  -0.209  1.00  0.00    -0.047 A 
ATOM      8  C   UNL     1       6.164   0.886  -0.924  1.00  0.00     0.004 A 
ATOM      9  C   UNL     1       6.091  -0.380   1.094  1.00  0.00     0.004 A 
ATOM     10  C   UNL     1       5.394   1.855  -0.277  1.00  0.00     0.000 A 
ATOM     11  C   UNL     1       5.330   0.579   1.732  1.00  0.00     0.000 A 
ATOM     12  C   UNL     1       4.983   1.709   1.024  1.00  0.00     0.000 A 
ENDBRANCH   6   7
ENDBRANCH   1   6
TORSDOF 4
ENDMDL
MODEL 4
REMARK VINA RESULT:      -6.8      3.376      5.081
REMARK SMILES O=C(O)CCc1ccccc1
REMARK SMILES IDX 4 1 2 2 1 3 3 4 5 6 6 7 7 8 11 9 8 10 10 11 9 12
REMARK H PARENT 3 5
REMARK Flexibility Score: inf
ROOT
ATOM      1  C   UNL     1       5.026   1.789   0.730  1.00  0.00     0.127 C 
ENDROOT
BRANCH   1   2
ATOM      2  C   UNL     1       4.484   1.103   1.927  1.00  0.00     0.303 C 
ATOM      3  O   UNL     1       5.122   0.183   2.496  1.00  0.00    -0.252 OA
BRANCH   2   4
ATOM      4  O   UNL     1       3.252   1.460   2.453  1.00  0.00    -0.481 OA
ATOM      5  H   UNL     1       2.679   0.748   2.914  1.00  0.00     0.296 HD
ENDBRANCH   2   4
ENDBRANCH   1   2
BRANCH   1   6
ATOM      6  C   UNL     1       6.521   1.720   0.786  1.00  0.00     0.047 C 
BRANCH   6   7
ATOM      7  C   UNL     1       7.123   0.974  -0.318  1.00  0.00    -0.047 A 
ATOM      8  C   UNL     1       6.397   0.033  -1.010  1.00  0.00     0.004 A 
ATOM      9  C   UNL     1       8.431   1.224  -0.663  1.00  0.00     0.004 A 
ATOM     10  C   UNL     1       7.036  -0.641  -2.053  1.00  0.00     0.000 A 
ATOM     11  C   UNL     1       9.062   0.556  -1.694  1.00  0.00     0.000 A 
ATOM     12  C   UNL     1       8.341  -0.388  -2.392  1.00  0.00     0.000 A 
ENDBRANCH   6   7
ENDBRANCH   1   6
TORSDOF 4
ENDMDL
MODEL 5
REMARK VINA RESULT:      -6.7      3.811      4.982
REMARK SMILES O=C(O)CCc1ccccc1
REMARK SMILES IDX 4 1 2 2 1 3 3 4 5 6 6 7 7 8 11 9 8 10 10 11 9 12
REMARK H PARENT 3 5
REMARK Flexibility Score: inf
ROOT
ATOM      1  C   UNL     1       5.408   2.913   0.013  1.00  0.00     0.127 C 
ENDROOT
BRANCH   1   2
ATOM      2  C   UNL     1       6.225   3.862   0.805  1.00  0.00     0.303 C 
ATOM      3  O   UNL     1       6.885   4.775   0.248  1.00  0.00    -0.252 OA
BRANCH   2   4
ATOM      4  O   UNL     1       6.284   3.768   2.186  1.00  0.00    -0.481 OA
ATOM      5  H   UNL     1       7.112   4.115   2.677  1.00  0.00     0.296 HD
ENDBRANCH   2   4
ENDBRANCH   1   2
BRANCH   1   6
ATOM      6  C   UNL     1       4.888   1.854   0.938  1.00  0.00     0.047 C 
BRANCH   6   7
ATOM      7  C   UNL     1       5.672   0.620   0.929  1.00  0.00    -0.047 A 
ATOM      8  C   UNL     1       5.761  -0.164   2.056  1.00  0.00     0.004 A 
ATOM      9  C   UNL     1       6.323   0.246  -0.224  1.00  0.00     0.004 A 
ATOM     10  C   UNL     1       6.526  -1.330   1.975  1.00  0.00     0.000 A 
ATOM     11  C   UNL     1       7.079  -0.906  -0.302  1.00  0.00     0.000 A 
ATOM     12  C   UNL     1       7.174  -1.698   0.823  1.00  0.00     0.000 A 
ENDBRANCH   6   7
ENDBRANCH   1   6
TORSDOF 4
ENDMDL
