@<TRIPOS>MOLECULE
/home/cewinharhar/GITHUB/reincatalyze/data/processed/docking_pred/2023-Apr-26-1657_maxeplen10_maxtrainstep1000_exh32_gamma099_lrac9e-4_lrcr1e-3/af9628f04dddfdfce7c60ac864c84e5664a7a69f_ligand_2.pdbqt
 12 12 0 0 0
SMALL
GASTEIGER

@<TRIPOS>ATOM
      1  C          8.4250   -0.5810   -2.1980 C.3     1  UNL1        0.1270
      2  C          8.4740   -1.8810   -2.9080 C.2     1  UNL1        0.3030
      3  O          9.5610   -2.4860   -3.0830 O.2     1  UNL1       -0.2520
      4  O          7.3180   -2.4650   -3.4010 O.3     1  UNL1       -0.4810
      5  H          6.4180   -2.0030   -3.2450 H       1  UNL1        0.2960
      6  C          6.9990   -0.1230   -2.1520 C.3     1  UNL1        0.0470
      7  C          6.4750    0.0590   -0.8000 C.2     1  UNL1       -0.0470
      8  C          5.8620    1.2350   -0.4350 C.2     1  UNL1        0.0040
      9  C          6.6000   -0.9650    0.1110 C.2     1  UNL1        0.0040
     10  C          5.3850    1.3380    0.8740 C.2     1  UNL1        0.0000
     11  C          6.1280   -0.8610    1.4050 C.2     1  UNL1        0.0000
     12  C          5.5130    0.3140    1.7790 C.2     1  UNL1        0.0000
@<TRIPOS>BOND
     1     4     5    1
     2     4     2    1
     3     3     2    2
     4     2     1    1
     5     1     6    1
     6     6     7    1
     7     7     8    2
     8     7     9    1
     9     8    10    1
    10     9    11    2
    11    10    12    2
    12    11    12    1
