@<TRIPOS>MOLECULE
/home/cewinharhar/GITHUB/reincatalyze/data/processed/docking_pred/2023-Apr-26-1657_maxeplen10_maxtrainstep1000_exh32_gamma099_lrac9e-4_lrcr1e-3/b0253e2818c1de1129519fa2afa58b59888d8d60_ligand_2.pdbqt
 12 12 0 0 0
SMALL
GASTEIGER

@<TRIPOS>ATOM
      1  C          8.4650   -0.6000   -2.1810 C.3     1  UNL1        0.1270
      2  C          8.4880   -1.8880   -2.9140 C.2     1  UNL1        0.3030
      3  O          9.5610   -2.5160   -3.0930 O.2     1  UNL1       -0.2520
      4  O          7.3210   -2.4370   -3.4220 O.3     1  UNL1       -0.4810
      5  H          7.2960   -3.4330   -3.6560 H       1  UNL1        0.2960
      6  C          7.0530   -0.1000   -2.1530 C.3     1  UNL1        0.0470
      7  C          6.5030    0.0520   -0.8070 C.2     1  UNL1       -0.0470
      8  C          6.6280   -0.9550    0.1210 C.2     1  UNL1        0.0040
      9  C          5.8550    1.2190   -0.4740 C.2     1  UNL1        0.0040
     10  C          6.0790   -0.7410    1.3880 C.2     1  UNL1        0.0000
     11  C          5.3130    1.4290    0.7780 C.2     1  UNL1        0.0000
     12  C          5.4330    0.4250    1.7140 C.2     1  UNL1        0.0000
@<TRIPOS>BOND
     1     5     4    1
     2     4     2    1
     3     3     2    2
     4     2     1    1
     5     1     6    1
     6     6     7    1
     7     7     9    2
     8     7     8    1
     9     9    11    1
    10     8    10    2
    11    11    12    2
    12    10    12    1
