@<TRIPOS>MOLECULE
/home/cewinharhar/GITHUB/reincatalyze/data/processed/docking_pred/2023-Apr-26-1657_maxeplen10_maxtrainstep1000_exh32_gamma099_lrac9e-4_lrcr1e-3/b0253e2818c1de1129519fa2afa58b59888d8d60_ligand_2.pdbqt
 12 12 0 0 0
SMALL
GASTEIGER

@<TRIPOS>ATOM
      1  C          5.0050    1.7740    0.6940 C.3     1  UNL1        0.1270
      2  C          4.4900    1.0950    1.9070 C.2     1  UNL1        0.3030
      3  O          5.1440    0.1810    2.4680 O.2     1  UNL1       -0.2520
      4  O          3.2690    1.4520    2.4560 O.3     1  UNL1       -0.4810
      5  H          3.1980    2.3150    3.0020 H       1  UNL1        0.2960
      6  C          6.5020    1.7850    0.7610 C.3     1  UNL1        0.0470
      7  C          7.1500    1.0530   -0.3260 C.2     1  UNL1       -0.0470
      8  C          8.4790    1.2580   -0.6170 C.2     1  UNL1        0.0040
      9  C          6.4160    0.1500   -1.0600 C.2     1  UNL1        0.0040
     10  C          9.0330    0.5230   -1.6670 C.2     1  UNL1        0.0000
     11  C          6.9650   -0.5750   -2.0980 C.2     1  UNL1        0.0000
     12  C          8.2960   -0.3750   -2.3960 C.2     1  UNL1        0.0000
@<TRIPOS>BOND
     1    12    11    2
     2    12    10    1
     3    11     9    1
     4    10     8    2
     5     9     7    2
     6     8     7    1
     7     7     6    1
     8     1     6    1
     9     1     2    1
    10     2     4    1
    11     2     3    2
    12     4     5    1
