@<TRIPOS>MOLECULE
/home/cewinharhar/GITHUB/reincatalyze/data/processed/docking_pred/2023-Apr-26-1657_maxeplen10_maxtrainstep1000_exh32_gamma099_lrac9e-4_lrcr1e-3/b0253e2818c1de1129519fa2afa58b59888d8d60_ligand_2.pdbqt
 12 12 0 0 0
SMALL
GASTEIGER

@<TRIPOS>ATOM
      1  C          8.3280   -0.9440   -1.7420 C.3     1  UNL1        0.1270
      2  C          8.3340   -1.9780   -2.8040 C.2     1  UNL1        0.3030
      3  O          7.2630   -2.4110   -3.2970 O.2     1  UNL1       -0.2520
      4  O          9.5260   -2.4970   -3.2820 O.3     1  UNL1       -0.4810
      5  H          9.5030   -3.2930   -3.9260 H       1  UNL1        0.2960
      6  C          7.4130   -1.3990   -0.6460 C.3     1  UNL1        0.0470
      7  C          6.5780   -0.3370   -0.0890 C.2     1  UNL1       -0.0470
      8  C          6.1240   -0.4060    1.2080 C.2     1  UNL1        0.0040
      9  C          6.2490    0.7420   -0.8770 C.2     1  UNL1        0.0040
     10  C          5.3310    0.6450    1.6740 C.2     1  UNL1        0.0000
     11  C          5.4650    1.7800   -0.4150 C.2     1  UNL1        0.0000
     12  C          5.0050    1.7180    0.8830 C.2     1  UNL1        0.0000
@<TRIPOS>BOND
     1     5     4    1
     2     3     2    2
     3     4     2    1
     4     2     1    1
     5     1     6    1
     6     9    11    1
     7     9     7    2
     8     6     7    1
     9    11    12    2
    10     7     8    1
    11    12    10    1
    12     8    10    2
