MODEL 1
REMARK VINA RESULT:      -7.3      0.000      0.000
REMARK SMILES O=C(O)CCc1ccccc1
REMARK SMILES IDX 4 1 2 2 1 3 3 4 5 6 6 7 7 8 11 9 8 10 10 11 9 12
REMARK H PARENT 3 5
REMARK Flexibility Score: inf
ROOT
ATOM      1  C   UNL     1       8.465  -0.600  -2.181  1.00  0.00     0.127 C 
ENDROOT
BRANCH   1   2
ATOM      2  C   UNL     1       8.488  -1.888  -2.914  1.00  0.00     0.303 C 
ATOM      3  O   UNL     1       9.561  -2.516  -3.093  1.00  0.00    -0.252 OA
BRANCH   2   4
ATOM      4  O   UNL     1       7.321  -2.437  -3.422  1.00  0.00    -0.481 OA
ATOM      5  H   UNL     1       7.296  -3.433  -3.656  1.00  0.00     0.296 HD
ENDBRANCH   2   4
ENDBRANCH   1   2
BRANCH   1   6
ATOM      6  C   UNL     1       7.053  -0.100  -2.153  1.00  0.00     0.047 C 
BRANCH   6   7
ATOM      7  C   UNL     1       6.503   0.052  -0.807  1.00  0.00    -0.047 A 
ATOM      8  C   UNL     1       6.628  -0.955   0.121  1.00  0.00     0.004 A 
ATOM      9  C   UNL     1       5.855   1.219  -0.474  1.00  0.00     0.004 A 
ATOM     10  C   UNL     1       6.079  -0.741   1.388  1.00  0.00     0.000 A 
ATOM     11  C   UNL     1       5.313   1.429   0.778  1.00  0.00     0.000 A 
ATOM     12  C   UNL     1       5.433   0.425   1.714  1.00  0.00     0.000 A 
ENDBRANCH   6   7
ENDBRANCH   1   6
TORSDOF 4
ENDMDL
MODEL 2
REMARK VINA RESULT:      -7.3      0.085      1.439
REMARK SMILES O=C(O)CCc1ccccc1
REMARK SMILES IDX 4 1 2 2 1 3 3 4 5 6 6 7 7 8 11 9 8 10 10 11 9 12
REMARK H PARENT 3 5
REMARK Flexibility Score: inf
ROOT
ATOM      1  C   UNL     1       8.438  -0.606  -2.141  1.00  0.00     0.127 C 
ENDROOT
BRANCH   1   2
ATOM      2  C   UNL     1       8.464  -1.881  -2.896  1.00  0.00     0.303 C 
ATOM      3  O   UNL     1       9.538  -2.503  -3.087  1.00  0.00    -0.252 OA
BRANCH   2   4
ATOM      4  O   UNL     1       7.299  -2.423  -3.414  1.00  0.00    -0.481 OA
ATOM      5  H   UNL     1       6.410  -2.250  -2.936  1.00  0.00     0.296 HD
ENDBRANCH   2   4
ENDBRANCH   1   2
BRANCH   1   6
ATOM      6  C   UNL     1       7.028  -0.102  -2.116  1.00  0.00     0.047 C 
BRANCH   6   7
ATOM      7  C   UNL     1       6.481   0.068  -0.770  1.00  0.00    -0.047 A 
ATOM      8  C   UNL     1       5.855   1.238  -0.409  1.00  0.00     0.004 A 
ATOM      9  C   UNL     1       6.598  -0.959   0.137  1.00  0.00     0.004 A 
ATOM     10  C   UNL     1       5.356   1.331   0.892  1.00  0.00     0.000 A 
ATOM     11  C   UNL     1       6.105  -0.866   1.423  1.00  0.00     0.000 A 
ATOM     12  C   UNL     1       5.476   0.303   1.793  1.00  0.00     0.000 A 
ENDBRANCH   6   7
ENDBRANCH   1   6
TORSDOF 4
ENDMDL
MODEL 3
REMARK VINA RESULT:      -7.1      0.659      1.486
REMARK SMILES O=C(O)CCc1ccccc1
REMARK SMILES IDX 4 1 2 2 1 3 3 4 5 6 6 7 7 8 11 9 8 10 10 11 9 12
REMARK H PARENT 3 5
REMARK Flexibility Score: inf
ROOT
ATOM      1  C   UNL     1       8.328  -0.944  -1.742  1.00  0.00     0.127 C 
ENDROOT
BRANCH   1   2
ATOM      2  C   UNL     1       8.334  -1.978  -2.804  1.00  0.00     0.303 C 
ATOM      3  O   UNL     1       7.263  -2.411  -3.297  1.00  0.00    -0.252 OA
BRANCH   2   4
ATOM      4  O   UNL     1       9.526  -2.497  -3.282  1.00  0.00    -0.481 OA
ATOM      5  H   UNL     1       9.503  -3.293  -3.926  1.00  0.00     0.296 HD
ENDBRANCH   2   4
ENDBRANCH   1   2
BRANCH   1   6
ATOM      6  C   UNL     1       7.413  -1.399  -0.646  1.00  0.00     0.047 C 
BRANCH   6   7
ATOM      7  C   UNL     1       6.578  -0.337  -0.089  1.00  0.00    -0.047 A 
ATOM      8  C   UNL     1       6.124  -0.406   1.208  1.00  0.00     0.004 A 
ATOM      9  C   UNL     1       6.249   0.742  -0.877  1.00  0.00     0.004 A 
ATOM     10  C   UNL     1       5.331   0.645   1.674  1.00  0.00     0.000 A 
ATOM     11  C   UNL     1       5.465   1.780  -0.415  1.00  0.00     0.000 A 
ATOM     12  C   UNL     1       5.005   1.718   0.883  1.00  0.00     0.000 A 
ENDBRANCH   6   7
ENDBRANCH   1   6
TORSDOF 4
ENDMDL
MODEL 4
REMARK VINA RESULT:      -6.7      3.369      5.071
REMARK SMILES O=C(O)CCc1ccccc1
REMARK SMILES IDX 4 1 2 2 1 3 3 4 5 6 6 7 7 8 11 9 8 10 10 11 9 12
REMARK H PARENT 3 5
REMARK Flexibility Score: inf
ROOT
ATOM      1  C   UNL     1       5.005   1.774   0.694  1.00  0.00     0.127 C 
ENDROOT
BRANCH   1   2
ATOM      2  C   UNL     1       4.490   1.095   1.907  1.00  0.00     0.303 C 
ATOM      3  O   UNL     1       5.144   0.181   2.468  1.00  0.00    -0.252 OA
BRANCH   2   4
ATOM      4  O   UNL     1       3.269   1.452   2.456  1.00  0.00    -0.481 OA
ATOM      5  H   UNL     1       3.198   2.315   3.002  1.00  0.00     0.296 HD
ENDBRANCH   2   4
ENDBRANCH   1   2
BRANCH   1   6
ATOM      6  C   UNL     1       6.502   1.785   0.761  1.00  0.00     0.047 C 
BRANCH   6   7
ATOM      7  C   UNL     1       7.150   1.053  -0.326  1.00  0.00    -0.047 A 
ATOM      8  C   UNL     1       8.479   1.258  -0.617  1.00  0.00     0.004 A 
ATOM      9  C   UNL     1       6.416   0.150  -1.060  1.00  0.00     0.004 A 
ATOM     10  C   UNL     1       9.033   0.523  -1.667  1.00  0.00     0.000 A 
ATOM     11  C   UNL     1       6.965  -0.575  -2.098  1.00  0.00     0.000 A 
ATOM     12  C   UNL     1       8.296  -0.375  -2.396  1.00  0.00     0.000 A 
ENDBRANCH   6   7
ENDBRANCH   1   6
TORSDOF 4
ENDMDL
MODEL 5
REMARK VINA RESULT:      -6.6      1.937      2.294
REMARK SMILES O=C(O)CCc1ccccc1
REMARK SMILES IDX 4 1 2 2 1 3 3 4 5 6 6 7 7 8 11 9 8 10 10 11 9 12
REMARK H PARENT 3 5
REMARK Flexibility Score: inf
ROOT
ATOM      1  C   UNL     1       8.220   0.252  -2.153  1.00  0.00     0.127 C 
ENDROOT
BRANCH   1   2
ATOM      2  C   UNL     1       9.358   0.369  -1.210  1.00  0.00     0.303 C 
ATOM      3  O   UNL     1       9.460  -0.391  -0.216  1.00  0.00    -0.252 OA
BRANCH   2   4
ATOM      4  O   UNL     1      10.344   1.323  -1.402  1.00  0.00    -0.481 OA
ATOM      5  H   UNL     1      10.153   2.298  -1.154  1.00  0.00     0.296 HD
ENDBRANCH   2   4
ENDBRANCH   1   2
BRANCH   1   6
ATOM      6  C   UNL     1       7.134  -0.533  -1.484  1.00  0.00     0.047 C 
BRANCH   6   7
ATOM      7  C   UNL     1       6.347   0.239  -0.524  1.00  0.00    -0.047 A 
ATOM      8  C   UNL     1       6.131  -0.233   0.750  1.00  0.00     0.004 A 
ATOM      9  C   UNL     1       5.822   1.452  -0.907  1.00  0.00     0.004 A 
ATOM     10  C   UNL     1       5.371   0.558   1.615  1.00  0.00     0.000 A 
ATOM     11  C   UNL     1       5.071   2.232  -0.051  1.00  0.00     0.000 A 
ATOM     12  C   UNL     1       4.849   1.766   1.227  1.00  0.00     0.000 A 
ENDBRANCH   6   7
ENDBRANCH   1   6
TORSDOF 4
ENDMDL
