@<TRIPOS>MOLECULE
/home/cewinharhar/GITHUB/reincatalyze/data/processed/docking_pred/2023-Apr-26-1657_maxeplen10_maxtrainstep1000_exh32_gamma099_lrac9e-4_lrcr1e-3/b0253e2818c1de1129519fa2afa58b59888d8d60_ligand_2.pdbqt
 12 12 0 0 0
SMALL
GASTEIGER

@<TRIPOS>ATOM
      1  C          8.2200    0.2520   -2.1530 C.3     1  UNL1        0.1270
      2  C          9.3580    0.3690   -1.2100 C.2     1  UNL1        0.3030
      3  O          9.4600   -0.3910   -0.2160 O.2     1  UNL1       -0.2520
      4  O         10.3440    1.3230   -1.4020 O.3     1  UNL1       -0.4810
      5  H         10.1530    2.2980   -1.1540 H       1  UNL1        0.2960
      6  C          7.1340   -0.5330   -1.4840 C.3     1  UNL1        0.0470
      7  C          6.3470    0.2390   -0.5240 C.2     1  UNL1       -0.0470
      8  C          6.1310   -0.2330    0.7500 C.2     1  UNL1        0.0040
      9  C          5.8220    1.4520   -0.9070 C.2     1  UNL1        0.0040
     10  C          5.3710    0.5580    1.6150 C.2     1  UNL1        0.0000
     11  C          5.0710    2.2320   -0.0510 C.2     1  UNL1        0.0000
     12  C          4.8490    1.7660    1.2270 C.2     1  UNL1        0.0000
@<TRIPOS>BOND
     1     1     6    1
     2     1     2    1
     3     6     7    1
     4     4     2    1
     5     4     5    1
     6     2     3    2
     7     9     7    2
     8     9    11    1
     9     7     8    1
    10    11    12    2
    11     8    10    2
    12    12    10    1
