@<TRIPOS>MOLECULE
/home/cewinharhar/GITHUB/reincatalyze/data/processed/docking_pred/2023-Apr-26-1657_maxeplen10_maxtrainstep1000_exh32_gamma099_lrac9e-4_lrcr1e-3/b0dbf451e4e891e0fb60bf6ca530f921e690d9da_ligand_2.pdbqt
 12 12 0 0 0
SMALL
GASTEIGER

@<TRIPOS>ATOM
      1  C          5.0500    1.7960    0.6550 C.3     1  UNL1        0.1270
      2  C          4.5470    1.1280    1.8780 C.2     1  UNL1        0.3030
      3  O          5.2230    0.2460    2.4630 O.2     1  UNL1       -0.2520
      4  O          3.3120    1.4600    2.4110 O.3     1  UNL1       -0.4810
      5  H          3.2630    2.1320    3.1820 H       1  UNL1        0.2960
      6  C          6.5480    1.8010    0.7030 C.3     1  UNL1        0.0470
      7  C          7.1800    1.0360   -0.3700 C.2     1  UNL1       -0.0470
      8  C          8.5130    1.2060   -0.6640 C.2     1  UNL1        0.0040
      9  C          6.4260    0.1360   -1.0870 C.2     1  UNL1        0.0040
     10  C          9.0500    0.4410   -1.7020 C.2     1  UNL1        0.0000
     11  C          6.9590   -0.6190   -2.1120 C.2     1  UNL1        0.0000
     12  C          8.2930   -0.4540   -2.4140 C.2     1  UNL1        0.0000
@<TRIPOS>BOND
     1    12    11    2
     2    12    10    1
     3    11     9    1
     4    10     8    2
     5     9     7    2
     6     8     7    1
     7     7     6    1
     8     1     6    1
     9     1     2    1
    10     2     4    1
    11     2     3    2
    12     4     5    1
