MODEL 1
REMARK VINA RESULT:      -7.3      0.000      0.000
REMARK SMILES O=C(O)CCc1ccccc1
REMARK SMILES IDX 4 1 2 2 1 3 3 4 5 6 6 7 7 8 11 9 8 10 10 11 9 12
REMARK H PARENT 3 5
REMARK Flexibility Score: inf
ROOT
ATOM      1  C   UNL     1       8.410  -0.543  -2.236  1.00  0.00     0.127 C 
ENDROOT
BRANCH   1   2
ATOM      2  C   UNL     1       8.475  -1.848  -2.935  1.00  0.00     0.303 C 
ATOM      3  O   UNL     1       9.570  -2.438  -3.111  1.00  0.00    -0.252 OA
BRANCH   2   4
ATOM      4  O   UNL     1       7.326  -2.455  -3.416  1.00  0.00    -0.481 OA
ATOM      5  H   UNL     1       7.024  -3.346  -3.014  1.00  0.00     0.296 HD
ENDBRANCH   2   4
ENDBRANCH   1   2
BRANCH   1   6
ATOM      6  C   UNL     1       6.976  -0.113  -2.175  1.00  0.00     0.047 C 
BRANCH   6   7
ATOM      7  C   UNL     1       6.465   0.066  -0.817  1.00  0.00    -0.047 A 
ATOM      8  C   UNL     1       5.861   1.244  -0.443  1.00  0.00     0.004 A 
ATOM      9  C   UNL     1       6.593  -0.961   0.089  1.00  0.00     0.004 A 
ATOM     10  C   UNL     1       5.397   1.345   0.870  1.00  0.00     0.000 A 
ATOM     11  C   UNL     1       6.134  -0.859   1.387  1.00  0.00     0.000 A 
ATOM     12  C   UNL     1       5.528   0.318   1.771  1.00  0.00     0.000 A 
ENDBRANCH   6   7
ENDBRANCH   1   6
TORSDOF 4
ENDMDL
MODEL 2
REMARK VINA RESULT:      -7.3      0.150      1.733
REMARK SMILES O=C(O)CCc1ccccc1
REMARK SMILES IDX 4 1 2 2 1 3 3 4 5 6 6 7 7 8 11 9 8 10 10 11 9 12
REMARK H PARENT 3 5
REMARK Flexibility Score: inf
ROOT
ATOM      1  C   UNL     1       8.443  -0.628  -2.109  1.00  0.00     0.127 C 
ENDROOT
BRANCH   1   2
ATOM      2  C   UNL     1       8.393  -1.890  -2.883  1.00  0.00     0.303 C 
ATOM      3  O   UNL     1       7.298  -2.406  -3.217  1.00  0.00    -0.252 OA
BRANCH   2   4
ATOM      4  O   UNL     1       9.558  -2.538  -3.260  1.00  0.00    -0.481 OA
ATOM      5  H   UNL     1       9.708  -2.766  -4.247  1.00  0.00     0.296 HD
ENDBRANCH   2   4
ENDBRANCH   1   2
BRANCH   1   6
ATOM      6  C   UNL     1       7.069  -0.032  -2.092  1.00  0.00     0.047 C 
BRANCH   6   7
ATOM      7  C   UNL     1       6.495   0.101  -0.753  1.00  0.00    -0.047 A 
ATOM      8  C   UNL     1       6.624  -0.910   0.170  1.00  0.00     0.004 A 
ATOM      9  C   UNL     1       5.823   1.255  -0.422  1.00  0.00     0.004 A 
ATOM     10  C   UNL     1       6.052  -0.715   1.429  1.00  0.00     0.000 A 
ATOM     11  C   UNL     1       5.258   1.447   0.823  1.00  0.00     0.000 A 
ATOM     12  C   UNL     1       5.382   0.438   1.754  1.00  0.00     0.000 A 
ENDBRANCH   6   7
ENDBRANCH   1   6
TORSDOF 4
ENDMDL
MODEL 3
REMARK VINA RESULT:      -6.9      1.002      1.924
REMARK SMILES O=C(O)CCc1ccccc1
REMARK SMILES IDX 4 1 2 2 1 3 3 4 5 6 6 7 7 8 11 9 8 10 10 11 9 12
REMARK H PARENT 3 5
REMARK Flexibility Score: inf
ROOT
ATOM      1  C   UNL     1       7.431  -1.492  -2.048  1.00  0.00     0.127 C 
ENDROOT
BRANCH   1   2
ATOM      2  C   UNL     1       8.388  -2.546  -2.461  1.00  0.00     0.303 C 
ATOM      3  O   UNL     1       8.326  -3.705  -1.981  1.00  0.00    -0.252 OA
BRANCH   2   4
ATOM      4  O   UNL     1       9.380  -2.279  -3.391  1.00  0.00    -0.481 OA
ATOM      5  H   UNL     1       9.985  -1.465  -3.258  1.00  0.00     0.296 HD
ENDBRANCH   2   4
ENDBRANCH   1   2
BRANCH   1   6
ATOM      6  C   UNL     1       7.441  -1.408  -0.552  1.00  0.00     0.047 C 
BRANCH   6   7
ATOM      7  C   UNL     1       6.587  -0.352  -0.011  1.00  0.00    -0.047 A 
ATOM      8  C   UNL     1       6.098  -0.432   1.273  1.00  0.00     0.004 A 
ATOM      9  C   UNL     1       6.276   0.731  -0.800  1.00  0.00     0.004 A 
ATOM     10  C   UNL     1       5.289   0.614   1.724  1.00  0.00     0.000 A 
ATOM     11  C   UNL     1       5.476   1.763  -0.352  1.00  0.00     0.000 A 
ATOM     12  C   UNL     1       4.981   1.691   0.932  1.00  0.00     0.000 A 
ENDBRANCH   6   7
ENDBRANCH   1   6
TORSDOF 4
ENDMDL
MODEL 4
REMARK VINA RESULT:      -6.8      3.364      5.028
REMARK SMILES O=C(O)CCc1ccccc1
REMARK SMILES IDX 4 1 2 2 1 3 3 4 5 6 6 7 7 8 11 9 8 10 10 11 9 12
REMARK H PARENT 3 5
REMARK Flexibility Score: inf
ROOT
ATOM      1  C   UNL     1       5.050   1.796   0.655  1.00  0.00     0.127 C 
ENDROOT
BRANCH   1   2
ATOM      2  C   UNL     1       4.547   1.128   1.878  1.00  0.00     0.303 C 
ATOM      3  O   UNL     1       5.223   0.246   2.463  1.00  0.00    -0.252 OA
BRANCH   2   4
ATOM      4  O   UNL     1       3.312   1.460   2.411  1.00  0.00    -0.481 OA
ATOM      5  H   UNL     1       3.263   2.132   3.182  1.00  0.00     0.296 HD
ENDBRANCH   2   4
ENDBRANCH   1   2
BRANCH   1   6
ATOM      6  C   UNL     1       6.548   1.801   0.703  1.00  0.00     0.047 C 
BRANCH   6   7
ATOM      7  C   UNL     1       7.180   1.036  -0.370  1.00  0.00    -0.047 A 
ATOM      8  C   UNL     1       8.513   1.206  -0.664  1.00  0.00     0.004 A 
ATOM      9  C   UNL     1       6.426   0.136  -1.087  1.00  0.00     0.004 A 
ATOM     10  C   UNL     1       9.050   0.441  -1.702  1.00  0.00     0.000 A 
ATOM     11  C   UNL     1       6.959  -0.619  -2.112  1.00  0.00     0.000 A 
ATOM     12  C   UNL     1       8.293  -0.454  -2.414  1.00  0.00     0.000 A 
ENDBRANCH   6   7
ENDBRANCH   1   6
TORSDOF 4
ENDMDL
MODEL 5
REMARK VINA RESULT:      -6.7      3.805      5.001
REMARK SMILES O=C(O)CCc1ccccc1
REMARK SMILES IDX 4 1 2 2 1 3 3 4 5 6 6 7 7 8 11 9 8 10 10 11 9 12
REMARK H PARENT 3 5
REMARK Flexibility Score: inf
ROOT
ATOM      1  C   UNL     1       5.390   2.853   0.068  1.00  0.00     0.127 C 
ENDROOT
BRANCH   1   2
ATOM      2  C   UNL     1       6.189   3.816   0.861  1.00  0.00     0.303 C 
ATOM      3  O   UNL     1       6.179   3.791   2.117  1.00  0.00    -0.252 OA
BRANCH   2   4
ATOM      4  O   UNL     1       6.971   4.774   0.237  1.00  0.00    -0.481 OA
ATOM      5  H   UNL     1       7.041   5.709   0.647  1.00  0.00     0.296 HD
ENDBRANCH   2   4
ENDBRANCH   1   2
BRANCH   1   6
ATOM      6  C   UNL     1       4.904   1.774   0.987  1.00  0.00     0.047 C 
BRANCH   6   7
ATOM      7  C   UNL     1       5.722   0.563   0.967  1.00  0.00    -0.047 A 
ATOM      8  C   UNL     1       5.819  -0.240   2.080  1.00  0.00     0.004 A 
ATOM      9  C   UNL     1       6.399   0.228  -0.183  1.00  0.00     0.004 A 
ATOM     10  C   UNL     1       6.618  -1.382   1.989  1.00  0.00     0.000 A 
ATOM     11  C   UNL     1       7.189  -0.901  -0.271  1.00  0.00     0.000 A 
ATOM     12  C   UNL     1       7.291  -1.710   0.840  1.00  0.00     0.000 A 
ENDBRANCH   6   7
ENDBRANCH   1   6
TORSDOF 4
ENDMDL
