@<TRIPOS>MOLECULE
/home/cewinharhar/GITHUB/reincatalyze/data/processed/docking_pred/2023-Apr-26-1657_maxeplen10_maxtrainstep1000_exh32_gamma099_lrac9e-4_lrcr1e-3/b0dbf451e4e891e0fb60bf6ca530f921e690d9da_ligand_2.pdbqt
 12 12 0 0 0
SMALL
GASTEIGER

@<TRIPOS>ATOM
      1  C          8.4430   -0.6280   -2.1090 C.3     1  UNL1        0.1270
      2  C          8.3930   -1.8900   -2.8830 C.2     1  UNL1        0.3030
      3  O          7.2980   -2.4060   -3.2170 O.2     1  UNL1       -0.2520
      4  O          9.5580   -2.5380   -3.2600 O.3     1  UNL1       -0.4810
      5  H          9.7080   -2.7660   -4.2470 H       1  UNL1        0.2960
      6  C          7.0690   -0.0320   -2.0920 C.3     1  UNL1        0.0470
      7  C          6.4950    0.1010   -0.7530 C.2     1  UNL1       -0.0470
      8  C          6.6240   -0.9100    0.1700 C.2     1  UNL1        0.0040
      9  C          5.8230    1.2550   -0.4220 C.2     1  UNL1        0.0040
     10  C          6.0520   -0.7150    1.4290 C.2     1  UNL1        0.0000
     11  C          5.2580    1.4470    0.8230 C.2     1  UNL1        0.0000
     12  C          5.3820    0.4380    1.7540 C.2     1  UNL1        0.0000
@<TRIPOS>BOND
     1     5     4    1
     2     4     2    1
     3     3     2    2
     4     2     1    1
     5     1     6    1
     6     6     7    1
     7     7     9    2
     8     7     8    1
     9     9    11    1
    10     8    10    2
    11    11    12    2
    12    10    12    1
