@<TRIPOS>MOLECULE
/home/cewinharhar/GITHUB/reincatalyze/data/processed/docking_pred/2023-Apr-26-1657_maxeplen10_maxtrainstep1000_exh32_gamma099_lrac9e-4_lrcr1e-3/b0dbf451e4e891e0fb60bf6ca530f921e690d9da_ligand_2.pdbqt
 12 12 0 0 0
SMALL
GASTEIGER

@<TRIPOS>ATOM
      1  C          7.4310   -1.4920   -2.0480 C.3     1  UNL1        0.1270
      2  C          8.3880   -2.5460   -2.4610 C.2     1  UNL1        0.3030
      3  O          8.3260   -3.7050   -1.9810 O.2     1  UNL1       -0.2520
      4  O          9.3800   -2.2790   -3.3910 O.3     1  UNL1       -0.4810
      5  H          9.9850   -1.4650   -3.2580 H       1  UNL1        0.2960
      6  C          7.4410   -1.4080   -0.5520 C.3     1  UNL1        0.0470
      7  C          6.5870   -0.3520   -0.0110 C.2     1  UNL1       -0.0470
      8  C          6.0980   -0.4320    1.2730 C.2     1  UNL1        0.0040
      9  C          6.2760    0.7310   -0.8000 C.2     1  UNL1        0.0040
     10  C          5.2890    0.6140    1.7240 C.2     1  UNL1        0.0000
     11  C          5.4760    1.7630   -0.3520 C.2     1  UNL1        0.0000
     12  C          4.9810    1.6910    0.9320 C.2     1  UNL1        0.0000
@<TRIPOS>BOND
     1     4     5    1
     2     4     2    1
     3     2     1    1
     4     2     3    2
     5     1     6    1
     6     9    11    1
     7     9     7    2
     8     6     7    1
     9    11    12    2
    10     7     8    1
    11    12    10    1
    12     8    10    2
