@<TRIPOS>MOLECULE
/home/cewinharhar/GITHUB/reincatalyze/data/processed/docking_pred/2023-Apr-26-1657_maxeplen10_maxtrainstep1000_exh32_gamma099_lrac9e-4_lrcr1e-3/b0dbf451e4e891e0fb60bf6ca530f921e690d9da_ligand_2.pdbqt
 12 12 0 0 0
SMALL
GASTEIGER

@<TRIPOS>ATOM
      1  C          5.3900    2.8530    0.0680 C.3     1  UNL1        0.1270
      2  C          6.1890    3.8160    0.8610 C.2     1  UNL1        0.3030
      3  O          6.1790    3.7910    2.1170 O.2     1  UNL1       -0.2520
      4  O          6.9710    4.7740    0.2370 O.3     1  UNL1       -0.4810
      5  H          7.0410    5.7090    0.6470 H       1  UNL1        0.2960
      6  C          4.9040    1.7740    0.9870 C.3     1  UNL1        0.0470
      7  C          5.7220    0.5630    0.9670 C.2     1  UNL1       -0.0470
      8  C          5.8190   -0.2400    2.0800 C.2     1  UNL1        0.0040
      9  C          6.3990    0.2280   -0.1830 C.2     1  UNL1        0.0040
     10  C          6.6180   -1.3820    1.9890 C.2     1  UNL1        0.0000
     11  C          7.1890   -0.9010   -0.2710 C.2     1  UNL1        0.0000
     12  C          7.2910   -1.7100    0.8400 C.2     1  UNL1        0.0000
@<TRIPOS>BOND
     1    11     9    1
     2    11    12    2
     3     9     7    2
     4     1     2    1
     5     1     6    1
     6     4     5    1
     7     4     2    1
     8    12    10    1
     9     2     3    2
    10     7     6    1
    11     7     8    1
    12    10     8    2
