@<TRIPOS>MOLECULE
/home/cewinharhar/GITHUB/reincatalyze/data/processed/docking_pred/2023-Apr-26-1657_maxeplen10_maxtrainstep1000_exh32_gamma099_lrac9e-4_lrcr1e-3/b1cc709a4c09585943c6b669d8b61c6b26bf0288_ligand_2.pdbqt
 12 12 0 0 0
SMALL
GASTEIGER

@<TRIPOS>ATOM
      1  C          8.2520    0.4030   -1.9380 C.3     1  UNL1        0.1270
      2  C          9.4500    0.4040   -1.0660 C.2     1  UNL1        0.3030
      3  O          9.5400   -0.3720   -0.0820 O.2     1  UNL1       -0.2520
      4  O         10.5070    1.2640   -1.3130 O.3     1  UNL1       -0.4810
      5  H         10.3580    2.0830   -1.9090 H       1  UNL1        0.2960
      6  C          7.2330   -0.5170   -1.3360 C.3     1  UNL1        0.0470
      7  C          6.3990    0.1080   -0.3110 C.2     1  UNL1       -0.0470
      8  C          6.1790   -0.5170    0.8940 C.2     1  UNL1        0.0040
      9  C          5.8340    1.3370   -0.5630 C.2     1  UNL1        0.0040
     10  C          5.3730    0.1380    1.8270 C.2     1  UNL1        0.0000
     11  C          5.0370    1.9840    0.3610 C.2     1  UNL1        0.0000
     12  C          4.8110    1.3640    1.5710 C.2     1  UNL1        0.0000
@<TRIPOS>BOND
     1     1     6    1
     2     1     2    1
     3     5     4    1
     4     6     7    1
     5     4     2    1
     6     2     3    2
     7     9     7    2
     8     9    11    1
     9     7     8    1
    10    11    12    2
    11     8    10    2
    12    12    10    1
