@<TRIPOS>MOLECULE
/home/cewinharhar/GITHUB/reincatalyze/data/processed/docking_pred/2023-Apr-26-1657_maxeplen10_maxtrainstep1000_exh32_gamma099_lrac9e-4_lrcr1e-3/b1cc709a4c09585943c6b669d8b61c6b26bf0288_ligand_2.pdbqt
 12 12 0 0 0
SMALL
GASTEIGER

@<TRIPOS>ATOM
      1  C          5.3310    2.9610    0.1280 C.3     1  UNL1        0.1270
      2  C          6.2210    3.8760    0.8800 C.2     1  UNL1        0.3030
      3  O          6.8750    4.7740    0.2950 O.2     1  UNL1       -0.2520
      4  O          6.3560    3.7650    2.2540 O.3     1  UNL1       -0.4810
      5  H          6.4830    4.6120    2.8150 H       1  UNL1        0.2960
      6  C          5.2500    1.6640    0.8750 C.3     1  UNL1        0.0470
      7  C          5.9990    0.5730    0.2550 C.2     1  UNL1       -0.0470
      8  C          6.3880   -0.5210    0.9920 C.2     1  UNL1        0.0040
      9  C          6.3110    0.6480   -1.0830 C.2     1  UNL1        0.0040
     10  C          7.1000   -1.5260    0.3340 C.2     1  UNL1        0.0000
     11  C          7.0150   -0.3470   -1.7320 C.2     1  UNL1        0.0000
     12  C          7.4100   -1.4460   -1.0000 C.2     1  UNL1        0.0000
@<TRIPOS>BOND
     1    11     9    1
     2    11    12    2
     3     9     7    2
     4    12    10    1
     5     1     6    1
     6     1     2    1
     7     7     6    1
     8     7     8    1
     9     3     2    2
    10    10     8    2
    11     2     4    1
    12     4     5    1
