@<TRIPOS>MOLECULE
/home/cewinharhar/GITHUB/reincatalyze/data/processed/docking_pred/2023-Apr-26-1657_maxeplen10_maxtrainstep1000_exh32_gamma099_lrac9e-4_lrcr1e-3/b1cc709a4c09585943c6b669d8b61c6b26bf0288_ligand_2.pdbqt
 12 12 0 0 0
SMALL
GASTEIGER

@<TRIPOS>ATOM
      1  C          8.4260   -0.6490   -2.1100 C.3     1  UNL1        0.1270
      2  C          8.4630   -1.9070   -2.8930 C.2     1  UNL1        0.3030
      3  O          9.5400   -2.5260   -3.0780 O.2     1  UNL1       -0.2520
      4  O          7.3070   -2.4350   -3.4430 O.3     1  UNL1       -0.4810
      5  H          6.5390   -1.8070   -3.6940 H       1  UNL1        0.2960
      6  C          7.0170   -0.1390   -2.1050 C.3     1  UNL1        0.0470
      7  C          6.4640    0.0680   -0.7680 C.2     1  UNL1       -0.0470
      8  C          5.8340    1.2460   -0.4420 C.2     1  UNL1        0.0040
      9  C          6.5780   -0.9340    0.1680 C.2     1  UNL1        0.0040
     10  C          5.3280    1.3750    0.8530 C.2     1  UNL1        0.0000
     11  C          6.0780   -0.8050    1.4490 C.2     1  UNL1        0.0000
     12  C          5.4460    0.3730    1.7830 C.2     1  UNL1        0.0000
@<TRIPOS>BOND
     1     5     4    1
     2     4     2    1
     3     3     2    2
     4     2     1    1
     5     1     6    1
     6     6     7    1
     7     7     8    2
     8     7     9    1
     9     8    10    1
    10     9    11    2
    11    10    12    2
    12    11    12    1
