@<TRIPOS>MOLECULE
/home/cewinharhar/GITHUB/reincatalyze/data/processed/docking_pred/2023-Apr-26-1657_maxeplen10_maxtrainstep1000_exh32_gamma099_lrac9e-4_lrcr1e-3/b1cc709a4c09585943c6b669d8b61c6b26bf0288_ligand_2.pdbqt
 12 12 0 0 0
SMALL
GASTEIGER

@<TRIPOS>ATOM
      1  C          5.0050    1.7970    0.7140 C.3     1  UNL1        0.1270
      2  C          4.4830    1.1140    1.9210 C.2     1  UNL1        0.3030
      3  O          5.1390    0.2060    2.4890 O.2     1  UNL1       -0.2520
      4  O          3.2530    1.4600    2.4580 O.3     1  UNL1       -0.4810
      5  H          2.8240    0.8510    3.1600 H       1  UNL1        0.2960
      6  C          6.5020    1.7660    0.7650 C.3     1  UNL1        0.0470
      7  C          7.1180    1.0140   -0.3270 C.2     1  UNL1       -0.0470
      8  C          6.3910    0.0920   -1.0440 C.2     1  UNL1        0.0040
      9  C          8.4390    1.2390   -0.6350 C.2     1  UNL1        0.0040
     10  C          7.0440   -0.5880   -2.0750 C.2     1  UNL1        0.0000
     11  C          9.0830    0.5650   -1.6540 C.2     1  UNL1        0.0000
     12  C          8.3620   -0.3600   -2.3770 C.2     1  UNL1        0.0000
@<TRIPOS>BOND
     1    12    10    2
     2    12    11    1
     3    10     8    1
     4    11     9    2
     5     8     7    2
     6     9     7    1
     7     7     6    1
     8     1     6    1
     9     1     2    1
    10     2     4    1
    11     2     3    2
    12     4     5    1
