@<TRIPOS>MOLECULE
/home/cewinharhar/GITHUB/reincatalyze/data/processed/docking_pred/2023-Apr-26-1657_maxeplen10_maxtrainstep1000_exh32_gamma099_lrac9e-4_lrcr1e-3/b1cc709a4c09585943c6b669d8b61c6b26bf0288_ligand_2.pdbqt
 12 12 0 0 0
SMALL
GASTEIGER

@<TRIPOS>ATOM
      1  C          8.4290   -0.5590   -2.2580 C.3     1  UNL1        0.1270
      2  C          8.4950   -1.8700   -2.9450 C.2     1  UNL1        0.3030
      3  O          9.5930   -2.4490   -3.1370 O.2     1  UNL1       -0.2520
      4  O          7.3430   -2.4940   -3.3960 O.3     1  UNL1       -0.4810
      5  H          7.4090   -3.1790   -4.1540 H       1  UNL1        0.2960
      6  C          6.9920   -0.1410   -2.1790 C.3     1  UNL1        0.0470
      7  C          6.4880    0.0030   -0.8150 C.2     1  UNL1       -0.0470
      8  C          6.6180   -1.0210    0.0940 C.2     1  UNL1        0.0040
      9  C          5.8820    1.1810   -0.4440 C.2     1  UNL1        0.0040
     10  C          6.1140   -0.8140    1.3810 C.2     1  UNL1        0.0000
     11  C          5.3850    1.3840    0.8280 C.2     1  UNL1        0.0000
     12  C          5.5090    0.3620    1.7450 C.2     1  UNL1        0.0000
@<TRIPOS>BOND
     1     5     4    1
     2     4     2    1
     3     3     2    2
     4     2     1    1
     5     1     6    1
     6     6     7    1
     7     7     9    2
     8     7     8    1
     9     9    11    1
    10     8    10    2
    11    11    12    2
    12    10    12    1
