MODEL 1
REMARK VINA RESULT:      -7.3      0.000      0.000
REMARK SMILES O=C(O)CCc1ccccc1
REMARK SMILES IDX 4 1 2 2 1 3 3 4 5 6 6 7 7 8 11 9 8 10 10 11 9 12
REMARK H PARENT 3 5
REMARK Flexibility Score: inf
ROOT
ATOM      1  C   UNL     1       8.426  -0.649  -2.110  1.00  0.00     0.127 C 
ENDROOT
BRANCH   1   2
ATOM      2  C   UNL     1       8.463  -1.907  -2.893  1.00  0.00     0.303 C 
ATOM      3  O   UNL     1       9.540  -2.526  -3.078  1.00  0.00    -0.252 OA
BRANCH   2   4
ATOM      4  O   UNL     1       7.307  -2.435  -3.443  1.00  0.00    -0.481 OA
ATOM      5  H   UNL     1       6.539  -1.807  -3.694  1.00  0.00     0.296 HD
ENDBRANCH   2   4
ENDBRANCH   1   2
BRANCH   1   6
ATOM      6  C   UNL     1       7.017  -0.139  -2.105  1.00  0.00     0.047 C 
BRANCH   6   7
ATOM      7  C   UNL     1       6.464   0.068  -0.768  1.00  0.00    -0.047 A 
ATOM      8  C   UNL     1       5.834   1.246  -0.442  1.00  0.00     0.004 A 
ATOM      9  C   UNL     1       6.578  -0.934   0.168  1.00  0.00     0.004 A 
ATOM     10  C   UNL     1       5.328   1.375   0.853  1.00  0.00     0.000 A 
ATOM     11  C   UNL     1       6.078  -0.805   1.449  1.00  0.00     0.000 A 
ATOM     12  C   UNL     1       5.446   0.373   1.783  1.00  0.00     0.000 A 
ENDBRANCH   6   7
ENDBRANCH   1   6
TORSDOF 4
ENDMDL
MODEL 2
REMARK VINA RESULT:      -7.3      0.097      1.439
REMARK SMILES O=C(O)CCc1ccccc1
REMARK SMILES IDX 4 1 2 2 1 3 3 4 5 6 6 7 7 8 11 9 8 10 10 11 9 12
REMARK H PARENT 3 5
REMARK Flexibility Score: inf
ROOT
ATOM      1  C   UNL     1       8.429  -0.559  -2.258  1.00  0.00     0.127 C 
ENDROOT
BRANCH   1   2
ATOM      2  C   UNL     1       8.495  -1.870  -2.945  1.00  0.00     0.303 C 
ATOM      3  O   UNL     1       9.593  -2.449  -3.137  1.00  0.00    -0.252 OA
BRANCH   2   4
ATOM      4  O   UNL     1       7.343  -2.494  -3.396  1.00  0.00    -0.481 OA
ATOM      5  H   UNL     1       7.409  -3.179  -4.154  1.00  0.00     0.296 HD
ENDBRANCH   2   4
ENDBRANCH   1   2
BRANCH   1   6
ATOM      6  C   UNL     1       6.992  -0.141  -2.179  1.00  0.00     0.047 C 
BRANCH   6   7
ATOM      7  C   UNL     1       6.488   0.003  -0.815  1.00  0.00    -0.047 A 
ATOM      8  C   UNL     1       6.618  -1.021   0.094  1.00  0.00     0.004 A 
ATOM      9  C   UNL     1       5.882   1.181  -0.444  1.00  0.00     0.004 A 
ATOM     10  C   UNL     1       6.114  -0.814   1.381  1.00  0.00     0.000 A 
ATOM     11  C   UNL     1       5.385   1.384   0.828  1.00  0.00     0.000 A 
ATOM     12  C   UNL     1       5.509   0.362   1.745  1.00  0.00     0.000 A 
ENDBRANCH   6   7
ENDBRANCH   1   6
TORSDOF 4
ENDMDL
MODEL 3
REMARK VINA RESULT:      -6.8      3.384      5.088
REMARK SMILES O=C(O)CCc1ccccc1
REMARK SMILES IDX 4 1 2 2 1 3 3 4 5 6 6 7 7 8 11 9 8 10 10 11 9 12
REMARK H PARENT 3 5
REMARK Flexibility Score: inf
ROOT
ATOM      1  C   UNL     1       5.005   1.797   0.714  1.00  0.00     0.127 C 
ENDROOT
BRANCH   1   2
ATOM      2  C   UNL     1       4.483   1.114   1.921  1.00  0.00     0.303 C 
ATOM      3  O   UNL     1       5.139   0.206   2.489  1.00  0.00    -0.252 OA
BRANCH   2   4
ATOM      4  O   UNL     1       3.253   1.460   2.458  1.00  0.00    -0.481 OA
ATOM      5  H   UNL     1       2.824   0.851   3.160  1.00  0.00     0.296 HD
ENDBRANCH   2   4
ENDBRANCH   1   2
BRANCH   1   6
ATOM      6  C   UNL     1       6.502   1.766   0.765  1.00  0.00     0.047 C 
BRANCH   6   7
ATOM      7  C   UNL     1       7.118   1.014  -0.327  1.00  0.00    -0.047 A 
ATOM      8  C   UNL     1       6.391   0.092  -1.044  1.00  0.00     0.004 A 
ATOM      9  C   UNL     1       8.439   1.239  -0.635  1.00  0.00     0.004 A 
ATOM     10  C   UNL     1       7.044  -0.588  -2.075  1.00  0.00     0.000 A 
ATOM     11  C   UNL     1       9.083   0.565  -1.654  1.00  0.00     0.000 A 
ATOM     12  C   UNL     1       8.362  -0.360  -2.377  1.00  0.00     0.000 A 
ENDBRANCH   6   7
ENDBRANCH   1   6
TORSDOF 4
ENDMDL
MODEL 4
REMARK VINA RESULT:      -6.6      2.005      2.682
REMARK SMILES O=C(O)CCc1ccccc1
REMARK SMILES IDX 4 1 2 2 1 3 3 4 5 6 6 7 7 8 11 9 8 10 10 11 9 12
REMARK H PARENT 3 5
REMARK Flexibility Score: inf
ROOT
ATOM      1  C   UNL     1       8.252   0.403  -1.938  1.00  0.00     0.127 C 
ENDROOT
BRANCH   1   2
ATOM      2  C   UNL     1       9.450   0.404  -1.066  1.00  0.00     0.303 C 
ATOM      3  O   UNL     1       9.540  -0.372  -0.082  1.00  0.00    -0.252 OA
BRANCH   2   4
ATOM      4  O   UNL     1      10.507   1.264  -1.313  1.00  0.00    -0.481 OA
ATOM      5  H   UNL     1      10.358   2.083  -1.909  1.00  0.00     0.296 HD
ENDBRANCH   2   4
ENDBRANCH   1   2
BRANCH   1   6
ATOM      6  C   UNL     1       7.233  -0.517  -1.336  1.00  0.00     0.047 C 
BRANCH   6   7
ATOM      7  C   UNL     1       6.399   0.108  -0.311  1.00  0.00    -0.047 A 
ATOM      8  C   UNL     1       6.179  -0.517   0.894  1.00  0.00     0.004 A 
ATOM      9  C   UNL     1       5.834   1.337  -0.563  1.00  0.00     0.004 A 
ATOM     10  C   UNL     1       5.373   0.138   1.827  1.00  0.00     0.000 A 
ATOM     11  C   UNL     1       5.037   1.984   0.361  1.00  0.00     0.000 A 
ATOM     12  C   UNL     1       4.811   1.364   1.571  1.00  0.00     0.000 A 
ENDBRANCH   6   7
ENDBRANCH   1   6
TORSDOF 4
ENDMDL
MODEL 5
REMARK VINA RESULT:      -6.6      3.731      5.119
REMARK SMILES O=C(O)CCc1ccccc1
REMARK SMILES IDX 4 1 2 2 1 3 3 4 5 6 6 7 7 8 11 9 8 10 10 11 9 12
REMARK H PARENT 3 5
REMARK Flexibility Score: inf
ROOT
ATOM      1  C   UNL     1       5.331   2.961   0.128  1.00  0.00     0.127 C 
ENDROOT
BRANCH   1   2
ATOM      2  C   UNL     1       6.221   3.876   0.880  1.00  0.00     0.303 C 
ATOM      3  O   UNL     1       6.875   4.774   0.295  1.00  0.00    -0.252 OA
BRANCH   2   4
ATOM      4  O   UNL     1       6.356   3.765   2.254  1.00  0.00    -0.481 OA
ATOM      5  H   UNL     1       6.483   4.612   2.815  1.00  0.00     0.296 HD
ENDBRANCH   2   4
ENDBRANCH   1   2
BRANCH   1   6
ATOM      6  C   UNL     1       5.250   1.664   0.875  1.00  0.00     0.047 C 
BRANCH   6   7
ATOM      7  C   UNL     1       5.999   0.573   0.255  1.00  0.00    -0.047 A 
ATOM      8  C   UNL     1       6.388  -0.521   0.992  1.00  0.00     0.004 A 
ATOM      9  C   UNL     1       6.311   0.648  -1.083  1.00  0.00     0.004 A 
ATOM     10  C   UNL     1       7.100  -1.526   0.334  1.00  0.00     0.000 A 
ATOM     11  C   UNL     1       7.015  -0.347  -1.732  1.00  0.00     0.000 A 
ATOM     12  C   UNL     1       7.410  -1.446  -1.000  1.00  0.00     0.000 A 
ENDBRANCH   6   7
ENDBRANCH   1   6
TORSDOF 4
ENDMDL
