@<TRIPOS>MOLECULE
/home/cewinharhar/GITHUB/reincatalyze/data/processed/docking_pred/2023-Apr-26-1657_maxeplen10_maxtrainstep1000_exh32_gamma099_lrac9e-4_lrcr1e-3/b25c452ec0c0b8d96fec3e0f7bbac0cc4967bb63_ligand_2.pdbqt
 12 12 0 0 0
SMALL
GASTEIGER

@<TRIPOS>ATOM
      1  C          8.4300   -0.5410   -2.2390 C.3     1  UNL1        0.1270
      2  C          8.4840   -1.8450   -2.9400 C.2     1  UNL1        0.3030
      3  O          9.5720   -2.4520   -3.1020 O.2     1  UNL1       -0.2520
      4  O          7.3320   -2.4320   -3.4380 O.3     1  UNL1       -0.4810
      5  H          7.1430   -2.3910   -4.4430 H       1  UNL1        0.2960
      6  C          7.0000   -0.0970   -2.1800 C.3     1  UNL1        0.0470
      7  C          6.4810    0.0580   -0.8220 C.2     1  UNL1       -0.0470
      8  C          6.6220   -0.9490    0.1040 C.2     1  UNL1        0.0040
      9  C          5.8490    1.2300   -0.4750 C.2     1  UNL1        0.0040
     10  C          6.1030   -0.7310    1.3820 C.2     1  UNL1        0.0000
     11  C          5.3360    1.4430    0.7890 C.2     1  UNL1        0.0000
     12  C          5.4720    0.4390    1.7220 C.2     1  UNL1        0.0000
@<TRIPOS>BOND
     1     5     4    1
     2     4     2    1
     3     3     2    2
     4     2     1    1
     5     1     6    1
     6     6     7    1
     7     7     9    2
     8     7     8    1
     9     9    11    1
    10     8    10    2
    11    11    12    2
    12    10    12    1
