@<TRIPOS>MOLECULE
/home/cewinharhar/GITHUB/reincatalyze/data/processed/docking_pred/2023-Apr-26-1657_maxeplen10_maxtrainstep1000_exh32_gamma099_lrac9e-4_lrcr1e-3/b25c452ec0c0b8d96fec3e0f7bbac0cc4967bb63_ligand_2.pdbqt
 12 12 0 0 0
SMALL
GASTEIGER

@<TRIPOS>ATOM
      1  C          8.2040    0.2580   -2.2420 C.3     1  UNL1        0.1270
      2  C          9.3250    0.3480   -1.2780 C.2     1  UNL1        0.3030
      3  O          9.4090   -0.4370   -0.3010 O.2     1  UNL1       -0.2520
      4  O         10.3160    1.3060   -1.4280 O.3     1  UNL1       -0.4810
      5  H         11.0100    1.4290   -0.6850 H       1  UNL1        0.2960
      6  C          7.0810   -0.4880   -1.5890 C.3     1  UNL1        0.0470
      7  C          6.3200    0.3050   -0.6250 C.2     1  UNL1       -0.0470
      8  C          6.1140   -0.1530    0.6550 C.2     1  UNL1        0.0040
      9  C          5.8100    1.5230   -1.0120 C.2     1  UNL1        0.0040
     10  C          5.3790    0.6580    1.5230 C.2     1  UNL1        0.0000
     11  C          5.0840    2.3230   -0.1530 C.2     1  UNL1        0.0000
     12  C          4.8720    1.8720    1.1320 C.2     1  UNL1        0.0000
@<TRIPOS>BOND
     1     1     6    1
     2     1     2    1
     3     6     7    1
     4     4     2    1
     5     4     5    1
     6     2     3    2
     7     9     7    2
     8     9    11    1
     9     7     8    1
    10    11    12    2
    11     8    10    2
    12    12    10    1
