@<TRIPOS>MOLECULE
/home/cewinharhar/GITHUB/reincatalyze/data/processed/docking_pred/2023-Apr-26-1657_maxeplen10_maxtrainstep1000_exh32_gamma099_lrac9e-4_lrcr1e-3/b25c452ec0c0b8d96fec3e0f7bbac0cc4967bb63_ligand_2.pdbqt
 12 12 0 0 0
SMALL
GASTEIGER

@<TRIPOS>ATOM
      1  C          5.4410    2.9130   -0.0260 C.3     1  UNL1        0.1270
      2  C          6.2390    3.8540    0.7950 C.2     1  UNL1        0.3030
      3  O          6.9080    4.7750    0.2630 O.2     1  UNL1       -0.2520
      4  O          6.2680    3.7430    2.1750 O.3     1  UNL1       -0.4810
      5  H          5.4750    3.3160    2.6610 H       1  UNL1        0.2960
      6  C          4.8930    1.8500    0.8760 C.3     1  UNL1        0.0470
      7  C          5.6780    0.6160    0.8850 C.2     1  UNL1       -0.0470
      8  C          6.3460    0.1990   -0.2420 C.2     1  UNL1        0.0040
      9  C          5.7450   -0.1280    2.0410 C.2     1  UNL1        0.0040
     10  C          7.0770   -0.9890   -0.1610 C.2     1  UNL1        0.0000
     11  C          6.4680   -1.3020    2.1190 C.2     1  UNL1        0.0000
     12  C          7.1390   -1.7270    0.9940 C.2     1  UNL1        0.0000
@<TRIPOS>BOND
     1     8    10    1
     2     8     7    2
     3    10    12    2
     4     1     2    1
     5     1     6    1
     6     3     2    2
     7     2     4    1
     8     6     7    1
     9     7     9    1
    10    12    11    1
    11     9    11    2
    12     4     5    1
