@<TRIPOS>MOLECULE
/home/cewinharhar/GITHUB/reincatalyze/data/processed/docking_pred/2023-Apr-26-1657_maxeplen10_maxtrainstep1000_exh32_gamma099_lrac9e-4_lrcr1e-3/b25c452ec0c0b8d96fec3e0f7bbac0cc4967bb63_ligand_2.pdbqt
 12 12 0 0 0
SMALL
GASTEIGER

@<TRIPOS>ATOM
      1  C          4.9840    1.7940    0.6930 C.3     1  UNL1        0.1270
      2  C          4.4790    1.1170    1.9110 C.2     1  UNL1        0.3030
      3  O          5.1450    0.2160    2.4780 O.2     1  UNL1       -0.2520
      4  O          3.2540    1.4600    2.4580 O.3     1  UNL1       -0.4810
      5  H          3.1190    2.4040    2.8310 H       1  UNL1        0.2960
      6  C          6.4820    1.7930    0.7410 C.3     1  UNL1        0.0470
      7  C          7.1110    1.0400   -0.3420 C.2     1  UNL1       -0.0470
      8  C          6.3830    0.1460   -1.0930 C.2     1  UNL1        0.0040
      9  C          8.4470    1.2360   -0.6080 C.2     1  UNL1        0.0040
     10  C          7.0490   -0.5370   -2.1120 C.2     1  UNL1        0.0000
     11  C          9.1040    0.5590   -1.6160 C.2     1  UNL1        0.0000
     12  C          8.3820   -0.3390   -2.3720 C.2     1  UNL1        0.0000
@<TRIPOS>BOND
     1    12    10    2
     2    12    11    1
     3    10     8    1
     4    11     9    2
     5     8     7    2
     6     9     7    1
     7     7     6    1
     8     1     6    1
     9     1     2    1
    10     2     4    1
    11     2     3    2
    12     4     5    1
