MODEL 1
REMARK VINA RESULT:      -7.3      0.000      0.000
REMARK SMILES O=C(O)CCc1ccccc1
REMARK SMILES IDX 4 1 2 2 1 3 3 4 5 6 6 7 7 8 11 9 8 10 10 11 9 12
REMARK H PARENT 3 5
REMARK Flexibility Score: inf
ROOT
ATOM      1  C   UNL     1       8.430  -0.541  -2.239  1.00  0.00     0.127 C 
ENDROOT
BRANCH   1   2
ATOM      2  C   UNL     1       8.484  -1.845  -2.940  1.00  0.00     0.303 C 
ATOM      3  O   UNL     1       9.572  -2.452  -3.102  1.00  0.00    -0.252 OA
BRANCH   2   4
ATOM      4  O   UNL     1       7.332  -2.432  -3.438  1.00  0.00    -0.481 OA
ATOM      5  H   UNL     1       7.143  -2.391  -4.443  1.00  0.00     0.296 HD
ENDBRANCH   2   4
ENDBRANCH   1   2
BRANCH   1   6
ATOM      6  C   UNL     1       7.000  -0.097  -2.180  1.00  0.00     0.047 C 
BRANCH   6   7
ATOM      7  C   UNL     1       6.481   0.058  -0.822  1.00  0.00    -0.047 A 
ATOM      8  C   UNL     1       6.622  -0.949   0.104  1.00  0.00     0.004 A 
ATOM      9  C   UNL     1       5.849   1.230  -0.475  1.00  0.00     0.004 A 
ATOM     10  C   UNL     1       6.103  -0.731   1.382  1.00  0.00     0.000 A 
ATOM     11  C   UNL     1       5.336   1.443   0.789  1.00  0.00     0.000 A 
ATOM     12  C   UNL     1       5.472   0.439   1.722  1.00  0.00     0.000 A 
ENDBRANCH   6   7
ENDBRANCH   1   6
TORSDOF 4
ENDMDL
MODEL 2
REMARK VINA RESULT:      -7.3      0.144      1.733
REMARK SMILES O=C(O)CCc1ccccc1
REMARK SMILES IDX 4 1 2 2 1 3 3 4 5 6 6 7 7 8 11 9 8 10 10 11 9 12
REMARK H PARENT 3 5
REMARK Flexibility Score: inf
ROOT
ATOM      1  C   UNL     1       8.406  -0.653  -2.070  1.00  0.00     0.127 C 
ENDROOT
BRANCH   1   2
ATOM      2  C   UNL     1       8.377  -1.894  -2.879  1.00  0.00     0.303 C 
ATOM      3  O   UNL     1       7.291  -2.412  -3.239  1.00  0.00    -0.252 OA
BRANCH   2   4
ATOM      4  O   UNL     1       9.553  -2.520  -3.262  1.00  0.00    -0.481 OA
ATOM      5  H   UNL     1       9.748  -3.467  -2.927  1.00  0.00     0.296 HD
ENDBRANCH   2   4
ENDBRANCH   1   2
BRANCH   1   6
ATOM      6  C   UNL     1       7.030  -0.059  -2.070  1.00  0.00     0.047 C 
BRANCH   6   7
ATOM      7  C   UNL     1       6.457   0.114  -0.737  1.00  0.00    -0.047 A 
ATOM      8  C   UNL     1       5.804   1.276  -0.397  1.00  0.00     0.004 A 
ATOM      9  C   UNL     1       6.576  -0.903   0.182  1.00  0.00     0.004 A 
ATOM     10  C   UNL     1       5.281   1.372   0.894  1.00  0.00     0.000 A 
ATOM     11  C   UNL     1       6.059  -0.806   1.459  1.00  0.00     0.000 A 
ATOM     12  C   UNL     1       5.403   0.355   1.807  1.00  0.00     0.000 A 
ENDBRANCH   6   7
ENDBRANCH   1   6
TORSDOF 4
ENDMDL
MODEL 3
REMARK VINA RESULT:      -6.8      3.382      5.062
REMARK SMILES O=C(O)CCc1ccccc1
REMARK SMILES IDX 4 1 2 2 1 3 3 4 5 6 6 7 7 8 11 9 8 10 10 11 9 12
REMARK H PARENT 3 5
REMARK Flexibility Score: inf
ROOT
ATOM      1  C   UNL     1       4.984   1.794   0.693  1.00  0.00     0.127 C 
ENDROOT
BRANCH   1   2
ATOM      2  C   UNL     1       4.479   1.117   1.911  1.00  0.00     0.303 C 
ATOM      3  O   UNL     1       5.145   0.216   2.478  1.00  0.00    -0.252 OA
BRANCH   2   4
ATOM      4  O   UNL     1       3.254   1.460   2.458  1.00  0.00    -0.481 OA
ATOM      5  H   UNL     1       3.119   2.404   2.831  1.00  0.00     0.296 HD
ENDBRANCH   2   4
ENDBRANCH   1   2
BRANCH   1   6
ATOM      6  C   UNL     1       6.482   1.793   0.741  1.00  0.00     0.047 C 
BRANCH   6   7
ATOM      7  C   UNL     1       7.111   1.040  -0.342  1.00  0.00    -0.047 A 
ATOM      8  C   UNL     1       6.383   0.146  -1.093  1.00  0.00     0.004 A 
ATOM      9  C   UNL     1       8.447   1.236  -0.608  1.00  0.00     0.004 A 
ATOM     10  C   UNL     1       7.049  -0.537  -2.112  1.00  0.00     0.000 A 
ATOM     11  C   UNL     1       9.104   0.559  -1.616  1.00  0.00     0.000 A 
ATOM     12  C   UNL     1       8.382  -0.339  -2.372  1.00  0.00     0.000 A 
ENDBRANCH   6   7
ENDBRANCH   1   6
TORSDOF 4
ENDMDL
MODEL 4
REMARK VINA RESULT:      -6.7      3.830      4.971
REMARK SMILES O=C(O)CCc1ccccc1
REMARK SMILES IDX 4 1 2 2 1 3 3 4 5 6 6 7 7 8 11 9 8 10 10 11 9 12
REMARK H PARENT 3 5
REMARK Flexibility Score: inf
ROOT
ATOM      1  C   UNL     1       5.441   2.913  -0.026  1.00  0.00     0.127 C 
ENDROOT
BRANCH   1   2
ATOM      2  C   UNL     1       6.239   3.854   0.795  1.00  0.00     0.303 C 
ATOM      3  O   UNL     1       6.908   4.775   0.263  1.00  0.00    -0.252 OA
BRANCH   2   4
ATOM      4  O   UNL     1       6.268   3.743   2.175  1.00  0.00    -0.481 OA
ATOM      5  H   UNL     1       5.475   3.316   2.661  1.00  0.00     0.296 HD
ENDBRANCH   2   4
ENDBRANCH   1   2
BRANCH   1   6
ATOM      6  C   UNL     1       4.893   1.850   0.876  1.00  0.00     0.047 C 
BRANCH   6   7
ATOM      7  C   UNL     1       5.678   0.616   0.885  1.00  0.00    -0.047 A 
ATOM      8  C   UNL     1       6.346   0.199  -0.242  1.00  0.00     0.004 A 
ATOM      9  C   UNL     1       5.745  -0.128   2.041  1.00  0.00     0.004 A 
ATOM     10  C   UNL     1       7.077  -0.989  -0.161  1.00  0.00     0.000 A 
ATOM     11  C   UNL     1       6.468  -1.302   2.119  1.00  0.00     0.000 A 
ATOM     12  C   UNL     1       7.139  -1.727   0.994  1.00  0.00     0.000 A 
ENDBRANCH   6   7
ENDBRANCH   1   6
TORSDOF 4
ENDMDL
MODEL 5
REMARK VINA RESULT:      -6.7      1.893      2.276
REMARK SMILES O=C(O)CCc1ccccc1
REMARK SMILES IDX 4 1 2 2 1 3 3 4 5 6 6 7 7 8 11 9 8 10 10 11 9 12
REMARK H PARENT 3 5
REMARK Flexibility Score: inf
ROOT
ATOM      1  C   UNL     1       8.204   0.258  -2.242  1.00  0.00     0.127 C 
ENDROOT
BRANCH   1   2
ATOM      2  C   UNL     1       9.325   0.348  -1.278  1.00  0.00     0.303 C 
ATOM      3  O   UNL     1       9.409  -0.437  -0.301  1.00  0.00    -0.252 OA
BRANCH   2   4
ATOM      4  O   UNL     1      10.316   1.306  -1.428  1.00  0.00    -0.481 OA
ATOM      5  H   UNL     1      11.010   1.429  -0.685  1.00  0.00     0.296 HD
ENDBRANCH   2   4
ENDBRANCH   1   2
BRANCH   1   6
ATOM      6  C   UNL     1       7.081  -0.488  -1.589  1.00  0.00     0.047 C 
BRANCH   6   7
ATOM      7  C   UNL     1       6.320   0.305  -0.625  1.00  0.00    -0.047 A 
ATOM      8  C   UNL     1       6.114  -0.153   0.655  1.00  0.00     0.004 A 
ATOM      9  C   UNL     1       5.810   1.523  -1.012  1.00  0.00     0.004 A 
ATOM     10  C   UNL     1       5.379   0.658   1.523  1.00  0.00     0.000 A 
ATOM     11  C   UNL     1       5.084   2.323  -0.153  1.00  0.00     0.000 A 
ATOM     12  C   UNL     1       4.872   1.872   1.132  1.00  0.00     0.000 A 
ENDBRANCH   6   7
ENDBRANCH   1   6
TORSDOF 4
ENDMDL
