@<TRIPOS>MOLECULE
/home/cewinharhar/GITHUB/reincatalyze/data/processed/docking_pred/2023-Apr-26-1657_maxeplen10_maxtrainstep1000_exh32_gamma099_lrac9e-4_lrcr1e-3/b25c452ec0c0b8d96fec3e0f7bbac0cc4967bb63_ligand_2.pdbqt
 12 12 0 0 0
SMALL
GASTEIGER

@<TRIPOS>ATOM
      1  C          8.4060   -0.6530   -2.0700 C.3     1  UNL1        0.1270
      2  C          8.3770   -1.8940   -2.8790 C.2     1  UNL1        0.3030
      3  O          7.2910   -2.4120   -3.2390 O.2     1  UNL1       -0.2520
      4  O          9.5530   -2.5200   -3.2620 O.3     1  UNL1       -0.4810
      5  H          9.7480   -3.4670   -2.9270 H       1  UNL1        0.2960
      6  C          7.0300   -0.0590   -2.0700 C.3     1  UNL1        0.0470
      7  C          6.4570    0.1140   -0.7370 C.2     1  UNL1       -0.0470
      8  C          5.8040    1.2760   -0.3970 C.2     1  UNL1        0.0040
      9  C          6.5760   -0.9030    0.1820 C.2     1  UNL1        0.0040
     10  C          5.2810    1.3720    0.8940 C.2     1  UNL1        0.0000
     11  C          6.0590   -0.8060    1.4590 C.2     1  UNL1        0.0000
     12  C          5.4030    0.3550    1.8070 C.2     1  UNL1        0.0000
@<TRIPOS>BOND
     1     4     5    1
     2     4     2    1
     3     3     2    2
     4     2     1    1
     5     1     6    1
     6     6     7    1
     7     7     8    2
     8     7     9    1
     9     8    10    1
    10     9    11    2
    11    10    12    2
    12    11    12    1
