MODEL 1
REMARK VINA RESULT:      -7.4      0.000      0.000
REMARK SMILES O=C(O)CCc1ccccc1
REMARK SMILES IDX 4 1 2 2 1 3 3 4 5 6 6 7 7 8 11 9 8 10 10 11 9 12
REMARK H PARENT 3 5
REMARK Flexibility Score: inf
ROOT
ATOM      1  C   UNL     1       8.501  -0.654  -2.118  1.00  0.00     0.127 C 
ENDROOT
BRANCH   1   2
ATOM      2  C   UNL     1       8.499  -1.912  -2.901  1.00  0.00     0.303 C 
ATOM      3  O   UNL     1       9.564  -2.536  -3.132  1.00  0.00    -0.252 OA
BRANCH   2   4
ATOM      4  O   UNL     1       7.318  -2.434  -3.403  1.00  0.00    -0.481 OA
ATOM      5  H   UNL     1       7.282  -3.420  -3.676  1.00  0.00     0.296 HD
ENDBRANCH   2   4
ENDBRANCH   1   2
BRANCH   1   6
ATOM      6  C   UNL     1       7.110  -0.097  -2.118  1.00  0.00     0.047 C 
BRANCH   6   7
ATOM      7  C   UNL     1       6.530   0.054  -0.784  1.00  0.00    -0.047 A 
ATOM      8  C   UNL     1       6.650  -0.946   0.153  1.00  0.00     0.004 A 
ATOM      9  C   UNL     1       5.859   1.213  -0.471  1.00  0.00     0.004 A 
ATOM     10  C   UNL     1       6.072  -0.734   1.406  1.00  0.00     0.000 A 
ATOM     11  C   UNL     1       5.288   1.422   0.769  1.00  0.00     0.000 A 
ATOM     12  C   UNL     1       5.404   0.425   1.713  1.00  0.00     0.000 A 
ENDBRANCH   6   7
ENDBRANCH   1   6
TORSDOF 4
ENDMDL
MODEL 2
REMARK VINA RESULT:      -7.3      0.109      1.440
REMARK SMILES O=C(O)CCc1ccccc1
REMARK SMILES IDX 4 1 2 2 1 3 3 4 5 6 6 7 7 8 11 9 8 10 10 11 9 12
REMARK H PARENT 3 5
REMARK Flexibility Score: inf
ROOT
ATOM      1  C   UNL     1       8.411  -0.584  -2.198  1.00  0.00     0.127 C 
ENDROOT
BRANCH   1   2
ATOM      2  C   UNL     1       8.463  -1.885  -2.905  1.00  0.00     0.303 C 
ATOM      3  O   UNL     1       9.548  -2.498  -3.061  1.00  0.00    -0.252 OA
BRANCH   2   4
ATOM      4  O   UNL     1       7.312  -2.462  -3.417  1.00  0.00    -0.481 OA
ATOM      5  H   UNL     1       6.407  -2.016  -3.241  1.00  0.00     0.296 HD
ENDBRANCH   2   4
ENDBRANCH   1   2
BRANCH   1   6
ATOM      6  C   UNL     1       6.984  -0.130  -2.152  1.00  0.00     0.047 C 
BRANCH   6   7
ATOM      7  C   UNL     1       6.461   0.053  -0.798  1.00  0.00    -0.047 A 
ATOM      8  C   UNL     1       5.845   1.228  -0.435  1.00  0.00     0.004 A 
ATOM      9  C   UNL     1       6.590  -0.968   0.115  1.00  0.00     0.004 A 
ATOM     10  C   UNL     1       5.369   1.332   0.874  1.00  0.00     0.000 A 
ATOM     11  C   UNL     1       6.120  -0.863   1.408  1.00  0.00     0.000 A 
ATOM     12  C   UNL     1       5.502   0.311   1.780  1.00  0.00     0.000 A 
ENDBRANCH   6   7
ENDBRANCH   1   6
TORSDOF 4
ENDMDL
MODEL 3
REMARK VINA RESULT:      -7.0      1.007      1.526
REMARK SMILES O=C(O)CCc1ccccc1
REMARK SMILES IDX 4 1 2 2 1 3 3 4 5 6 6 7 7 8 11 9 8 10 10 11 9 12
REMARK H PARENT 3 5
REMARK Flexibility Score: inf
ROOT
ATOM      1  C   UNL     1       7.253  -1.265  -2.177  1.00  0.00     0.127 C 
ENDROOT
BRANCH   1   2
ATOM      2  C   UNL     1       8.693  -1.310  -2.522  1.00  0.00     0.303 C 
ATOM      3  O   UNL     1       9.498  -0.459  -2.070  1.00  0.00    -0.252 OA
BRANCH   2   4
ATOM      4  O   UNL     1       9.192  -2.297  -3.357  1.00  0.00    -0.481 OA
ATOM      5  H   UNL     1       8.549  -2.980  -3.765  1.00  0.00     0.296 HD
ENDBRANCH   2   4
ENDBRANCH   1   2
BRANCH   1   6
ATOM      6  C   UNL     1       7.123  -1.348  -0.686  1.00  0.00     0.047 C 
BRANCH   6   7
ATOM      7  C   UNL     1       6.373  -0.243  -0.092  1.00  0.00    -0.047 A 
ATOM      8  C   UNL     1       5.943  -0.307   1.213  1.00  0.00     0.004 A 
ATOM      9  C   UNL     1       6.101   0.870  -0.853  1.00  0.00     0.004 A 
ATOM     10  C   UNL     1       5.233   0.786   1.716  1.00  0.00     0.000 A 
ATOM     11  C   UNL     1       5.398   1.949  -0.355  1.00  0.00     0.000 A 
ATOM     12  C   UNL     1       4.963   1.893   0.951  1.00  0.00     0.000 A 
ENDBRANCH   6   7
ENDBRANCH   1   6
TORSDOF 4
ENDMDL
MODEL 4
REMARK VINA RESULT:      -6.7      3.333      5.041
REMARK SMILES O=C(O)CCc1ccccc1
REMARK SMILES IDX 4 1 2 2 1 3 3 4 5 6 6 7 7 8 11 9 8 10 10 11 9 12
REMARK H PARENT 3 5
REMARK Flexibility Score: inf
ROOT
ATOM      1  C   UNL     1       5.037   1.744   0.668  1.00  0.00     0.127 C 
ENDROOT
BRANCH   1   2
ATOM      2  C   UNL     1       4.605   1.071   1.915  1.00  0.00     0.303 C 
ATOM      3  O   UNL     1       5.344   0.238   2.495  1.00  0.00    -0.252 OA
BRANCH   2   4
ATOM      4  O   UNL     1       3.367   1.343   2.477  1.00  0.00    -0.481 OA
ATOM      5  H   UNL     1       2.529   1.291   1.891  1.00  0.00     0.296 HD
ENDBRANCH   2   4
ENDBRANCH   1   2
BRANCH   1   6
ATOM      6  C   UNL     1       6.534   1.815   0.666  1.00  0.00     0.047 C 
BRANCH   6   7
ATOM      7  C   UNL     1       7.165   1.033  -0.395  1.00  0.00    -0.047 A 
ATOM      8  C   UNL     1       8.497   1.199  -0.694  1.00  0.00     0.004 A 
ATOM      9  C   UNL     1       6.410   0.121  -1.096  1.00  0.00     0.004 A 
ATOM     10  C   UNL     1       9.034   0.418  -1.720  1.00  0.00     0.000 A 
ATOM     11  C   UNL     1       6.942  -0.650  -2.110  1.00  0.00     0.000 A 
ATOM     12  C   UNL     1       8.276  -0.490  -2.417  1.00  0.00     0.000 A 
ENDBRANCH   6   7
ENDBRANCH   1   6
TORSDOF 4
ENDMDL
MODEL 5
REMARK VINA RESULT:      -6.7      3.833      4.952
REMARK SMILES O=C(O)CCc1ccccc1
REMARK SMILES IDX 4 1 2 2 1 3 3 4 5 6 6 7 7 8 11 9 8 10 10 11 9 12
REMARK H PARENT 3 5
REMARK Flexibility Score: inf
ROOT
ATOM      1  C   UNL     1       5.464   2.869   0.063  1.00  0.00     0.127 C 
ENDROOT
BRANCH   1   2
ATOM      2  C   UNL     1       6.271   3.837   0.842  1.00  0.00     0.303 C 
ATOM      3  O   UNL     1       6.920   4.749   0.274  1.00  0.00    -0.252 OA
BRANCH   2   4
ATOM      4  O   UNL     1       6.330   3.761   2.224  1.00  0.00    -0.481 OA
ATOM      5  H   UNL     1       5.479   3.916   2.772  1.00  0.00     0.296 HD
ENDBRANCH   2   4
ENDBRANCH   1   2
BRANCH   1   6
ATOM      6  C   UNL     1       4.934   1.831   1.005  1.00  0.00     0.047 C 
BRANCH   6   7
ATOM      7  C   UNL     1       5.710   0.592   1.022  1.00  0.00    -0.047 A 
ATOM      8  C   UNL     1       5.773  -0.183   2.157  1.00  0.00     0.004 A 
ATOM      9  C   UNL     1       6.379   0.203  -0.115  1.00  0.00     0.004 A 
ATOM     10  C   UNL     1       6.532  -1.354   2.101  1.00  0.00     0.000 A 
ATOM     11  C   UNL     1       7.129  -0.955  -0.169  1.00  0.00     0.000 A 
ATOM     12  C   UNL     1       7.198  -1.736   0.964  1.00  0.00     0.000 A 
ENDBRANCH   6   7
ENDBRANCH   1   6
TORSDOF 4
ENDMDL
