@<TRIPOS>MOLECULE
/home/cewinharhar/GITHUB/reincatalyze/data/processed/docking_pred/2023-Apr-26-1657_maxeplen10_maxtrainstep1000_exh32_gamma099_lrac9e-4_lrcr1e-3/b393d0f0af23d36e99ef7bf88514b4beffd0378d_ligand_2.pdbqt
 12 12 0 0 0
SMALL
GASTEIGER

@<TRIPOS>ATOM
      1  C          5.0370    1.7440    0.6680 C.3     1  UNL1        0.1270
      2  C          4.6050    1.0710    1.9150 C.2     1  UNL1        0.3030
      3  O          5.3440    0.2380    2.4950 O.2     1  UNL1       -0.2520
      4  O          3.3670    1.3430    2.4770 O.3     1  UNL1       -0.4810
      5  H          2.5290    1.2910    1.8910 H       1  UNL1        0.2960
      6  C          6.5340    1.8150    0.6660 C.3     1  UNL1        0.0470
      7  C          7.1650    1.0330   -0.3950 C.2     1  UNL1       -0.0470
      8  C          8.4970    1.1990   -0.6940 C.2     1  UNL1        0.0040
      9  C          6.4100    0.1210   -1.0960 C.2     1  UNL1        0.0040
     10  C          9.0340    0.4180   -1.7200 C.2     1  UNL1        0.0000
     11  C          6.9420   -0.6500   -2.1100 C.2     1  UNL1        0.0000
     12  C          8.2760   -0.4900   -2.4170 C.2     1  UNL1        0.0000
@<TRIPOS>BOND
     1    12    11    2
     2    12    10    1
     3    11     9    1
     4    10     8    2
     5     9     7    2
     6     8     7    1
     7     7     6    1
     8     6     1    1
     9     1     2    1
    10     5     4    1
    11     2     4    1
    12     2     3    2
