@<TRIPOS>MOLECULE
/home/cewinharhar/GITHUB/reincatalyze/data/processed/docking_pred/2023-Apr-26-1657_maxeplen10_maxtrainstep1000_exh32_gamma099_lrac9e-4_lrcr1e-3/b393d0f0af23d36e99ef7bf88514b4beffd0378d_ligand_2.pdbqt
 12 12 0 0 0
SMALL
GASTEIGER

@<TRIPOS>ATOM
      1  C          8.5010   -0.6540   -2.1180 C.3     1  UNL1        0.1270
      2  C          8.4990   -1.9120   -2.9010 C.2     1  UNL1        0.3030
      3  O          9.5640   -2.5360   -3.1320 O.2     1  UNL1       -0.2520
      4  O          7.3180   -2.4340   -3.4030 O.3     1  UNL1       -0.4810
      5  H          7.2820   -3.4200   -3.6760 H       1  UNL1        0.2960
      6  C          7.1100   -0.0970   -2.1180 C.3     1  UNL1        0.0470
      7  C          6.5300    0.0540   -0.7840 C.2     1  UNL1       -0.0470
      8  C          6.6500   -0.9460    0.1530 C.2     1  UNL1        0.0040
      9  C          5.8590    1.2130   -0.4710 C.2     1  UNL1        0.0040
     10  C          6.0720   -0.7340    1.4060 C.2     1  UNL1        0.0000
     11  C          5.2880    1.4220    0.7690 C.2     1  UNL1        0.0000
     12  C          5.4040    0.4250    1.7130 C.2     1  UNL1        0.0000
@<TRIPOS>BOND
     1     5     4    1
     2     4     2    1
     3     3     2    2
     4     2     1    1
     5     1     6    1
     6     6     7    1
     7     7     9    2
     8     7     8    1
     9     9    11    1
    10     8    10    2
    11    11    12    2
    12    10    12    1
