@<TRIPOS>MOLECULE
/home/cewinharhar/GITHUB/reincatalyze/data/processed/docking_pred/2023-Apr-26-1657_maxeplen10_maxtrainstep1000_exh32_gamma099_lrac9e-4_lrcr1e-3/b393d0f0af23d36e99ef7bf88514b4beffd0378d_ligand_2.pdbqt
 12 12 0 0 0
SMALL
GASTEIGER

@<TRIPOS>ATOM
      1  C          7.2530   -1.2650   -2.1770 C.3     1  UNL1        0.1270
      2  C          8.6930   -1.3100   -2.5220 C.2     1  UNL1        0.3030
      3  O          9.4980   -0.4590   -2.0700 O.2     1  UNL1       -0.2520
      4  O          9.1920   -2.2970   -3.3570 O.3     1  UNL1       -0.4810
      5  H          8.5490   -2.9800   -3.7650 H       1  UNL1        0.2960
      6  C          7.1230   -1.3480   -0.6860 C.3     1  UNL1        0.0470
      7  C          6.3730   -0.2430   -0.0920 C.2     1  UNL1       -0.0470
      8  C          5.9430   -0.3070    1.2130 C.2     1  UNL1        0.0040
      9  C          6.1010    0.8700   -0.8530 C.2     1  UNL1        0.0040
     10  C          5.2330    0.7860    1.7160 C.2     1  UNL1        0.0000
     11  C          5.3980    1.9490   -0.3550 C.2     1  UNL1        0.0000
     12  C          4.9630    1.8930    0.9510 C.2     1  UNL1        0.0000
@<TRIPOS>BOND
     1     5     4    1
     2     4     2    1
     3     2     1    1
     4     2     3    2
     5     1     6    1
     6     9    11    1
     7     9     7    2
     8     6     7    1
     9    11    12    2
    10     7     8    1
    11    12    10    1
    12     8    10    2
