@<TRIPOS>MOLECULE
/home/cewinharhar/GITHUB/reincatalyze/data/processed/docking_pred/2023-Apr-26-1657_maxeplen10_maxtrainstep1000_exh32_gamma099_lrac9e-4_lrcr1e-3/b393d0f0af23d36e99ef7bf88514b4beffd0378d_ligand_2.pdbqt
 12 12 0 0 0
SMALL
GASTEIGER

@<TRIPOS>ATOM
      1  C          5.4640    2.8690    0.0630 C.3     1  UNL1        0.1270
      2  C          6.2710    3.8370    0.8420 C.2     1  UNL1        0.3030
      3  O          6.9200    4.7490    0.2740 O.2     1  UNL1       -0.2520
      4  O          6.3300    3.7610    2.2240 O.3     1  UNL1       -0.4810
      5  H          5.4790    3.9160    2.7720 H       1  UNL1        0.2960
      6  C          4.9340    1.8310    1.0050 C.3     1  UNL1        0.0470
      7  C          5.7100    0.5920    1.0220 C.2     1  UNL1       -0.0470
      8  C          5.7730   -0.1830    2.1570 C.2     1  UNL1        0.0040
      9  C          6.3790    0.2030   -0.1150 C.2     1  UNL1        0.0040
     10  C          6.5320   -1.3540    2.1010 C.2     1  UNL1        0.0000
     11  C          7.1290   -0.9550   -0.1690 C.2     1  UNL1        0.0000
     12  C          7.1980   -1.7360    0.9640 C.2     1  UNL1        0.0000
@<TRIPOS>BOND
     1    11     9    1
     2    11    12    2
     3     9     7    2
     4     1     2    1
     5     1     6    1
     6     3     2    2
     7     2     4    1
     8    12    10    1
     9     6     7    1
    10     7     8    1
    11    10     8    2
    12     4     5    1
