@<TRIPOS>MOLECULE
/home/cewinharhar/GITHUB/reincatalyze/data/processed/docking_pred/2023-Apr-26-1657_maxeplen10_maxtrainstep1000_exh32_gamma099_lrac9e-4_lrcr1e-3/b393d0f0af23d36e99ef7bf88514b4beffd0378d_ligand_2.pdbqt
 12 12 0 0 0
SMALL
GASTEIGER

@<TRIPOS>ATOM
      1  C          8.4110   -0.5840   -2.1980 C.3     1  UNL1        0.1270
      2  C          8.4630   -1.8850   -2.9050 C.2     1  UNL1        0.3030
      3  O          9.5480   -2.4980   -3.0610 O.2     1  UNL1       -0.2520
      4  O          7.3120   -2.4620   -3.4170 O.3     1  UNL1       -0.4810
      5  H          6.4070   -2.0160   -3.2410 H       1  UNL1        0.2960
      6  C          6.9840   -0.1300   -2.1520 C.3     1  UNL1        0.0470
      7  C          6.4610    0.0530   -0.7980 C.2     1  UNL1       -0.0470
      8  C          5.8450    1.2280   -0.4350 C.2     1  UNL1        0.0040
      9  C          6.5900   -0.9680    0.1150 C.2     1  UNL1        0.0040
     10  C          5.3690    1.3320    0.8740 C.2     1  UNL1        0.0000
     11  C          6.1200   -0.8630    1.4080 C.2     1  UNL1        0.0000
     12  C          5.5020    0.3110    1.7800 C.2     1  UNL1        0.0000
@<TRIPOS>BOND
     1     4     5    1
     2     4     2    1
     3     3     2    2
     4     2     1    1
     5     1     6    1
     6     6     7    1
     7     7     8    2
     8     7     9    1
     9     8    10    1
    10     9    11    2
    11    10    12    2
    12    11    12    1
