MODEL 1
REMARK VINA RESULT:      -7.4      0.000      0.000
REMARK SMILES O=C(O)CCc1ccccc1
REMARK SMILES IDX 4 1 2 2 1 3 3 4 5 6 6 7 7 8 11 9 8 10 10 11 9 12
REMARK H PARENT 3 5
REMARK Flexibility Score: inf
ROOT
ATOM      1  C   UNL     1       8.445  -0.658  -2.092  1.00  0.00     0.127 C 
ENDROOT
BRANCH   1   2
ATOM      2  C   UNL     1       8.470  -1.908  -2.889  1.00  0.00     0.303 C 
ATOM      3  O   UNL     1       9.543  -2.523  -3.101  1.00  0.00    -0.252 OA
BRANCH   2   4
ATOM      4  O   UNL     1       7.304  -2.432  -3.424  1.00  0.00    -0.481 OA
ATOM      5  H   UNL     1       7.353  -2.995  -4.278  1.00  0.00     0.296 HD
ENDBRANCH   2   4
ENDBRANCH   1   2
BRANCH   1   6
ATOM      6  C   UNL     1       7.041  -0.135  -2.080  1.00  0.00     0.047 C 
BRANCH   6   7
ATOM      7  C   UNL     1       6.481   0.035  -0.741  1.00  0.00    -0.047 A 
ATOM      8  C   UNL     1       6.587  -0.965   0.198  1.00  0.00     0.004 A 
ATOM      9  C   UNL     1       5.845   1.212  -0.423  1.00  0.00     0.004 A 
ATOM     10  C   UNL     1       6.030  -0.734   1.458  1.00  0.00     0.000 A 
ATOM     11  C   UNL     1       5.295   1.439   0.822  1.00  0.00     0.000 A 
ATOM     12  C   UNL     1       5.396   0.443   1.768  1.00  0.00     0.000 A 
ENDBRANCH   6   7
ENDBRANCH   1   6
TORSDOF 4
ENDMDL
MODEL 2
REMARK VINA RESULT:      -7.4      0.054      1.437
REMARK SMILES O=C(O)CCc1ccccc1
REMARK SMILES IDX 4 1 2 2 1 3 3 4 5 6 6 7 7 8 11 9 8 10 10 11 9 12
REMARK H PARENT 3 5
REMARK Flexibility Score: inf
ROOT
ATOM      1  C   UNL     1       8.453  -0.696  -2.087  1.00  0.00     0.127 C 
ENDROOT
BRANCH   1   2
ATOM      2  C   UNL     1       8.477  -1.935  -2.900  1.00  0.00     0.303 C 
ATOM      3  O   UNL     1       9.545  -2.569  -3.088  1.00  0.00    -0.252 OA
BRANCH   2   4
ATOM      4  O   UNL     1       7.318  -2.429  -3.477  1.00  0.00    -0.481 OA
ATOM      5  H   UNL     1       7.074  -2.147  -4.430  1.00  0.00     0.296 HD
ENDBRANCH   2   4
ENDBRANCH   1   2
BRANCH   1   6
ATOM      6  C   UNL     1       7.058  -0.149  -2.104  1.00  0.00     0.047 C 
BRANCH   6   7
ATOM      7  C   UNL     1       6.489   0.069  -0.775  1.00  0.00    -0.047 A 
ATOM      8  C   UNL     1       5.838   1.243  -0.474  1.00  0.00     0.004 A 
ATOM      9  C   UNL     1       6.608  -0.916   0.177  1.00  0.00     0.004 A 
ATOM     10  C   UNL     1       5.318   1.383   0.815  1.00  0.00     0.000 A 
ATOM     11  C   UNL     1       6.094  -0.776   1.451  1.00  0.00     0.000 A 
ATOM     12  C   UNL     1       5.441   0.397   1.761  1.00  0.00     0.000 A 
ENDBRANCH   6   7
ENDBRANCH   1   6
TORSDOF 4
ENDMDL
MODEL 3
REMARK VINA RESULT:      -6.8      3.371      5.069
REMARK SMILES O=C(O)CCc1ccccc1
REMARK SMILES IDX 4 1 2 2 1 3 3 4 5 6 6 7 7 8 11 9 8 10 10 11 9 12
REMARK H PARENT 3 5
REMARK Flexibility Score: inf
ROOT
ATOM      1  C   UNL     1       5.009   1.811   0.711  1.00  0.00     0.127 C 
ENDROOT
BRANCH   1   2
ATOM      2  C   UNL     1       4.488   1.119   1.914  1.00  0.00     0.303 C 
ATOM      3  O   UNL     1       5.144   0.206   2.475  1.00  0.00    -0.252 OA
BRANCH   2   4
ATOM      4  O   UNL     1       3.258   1.460   2.453  1.00  0.00    -0.481 OA
ATOM      5  H   UNL     1       2.426   0.930   2.179  1.00  0.00     0.296 HD
ENDBRANCH   2   4
ENDBRANCH   1   2
BRANCH   1   6
ATOM      6  C   UNL     1       6.506   1.777   0.761  1.00  0.00     0.047 C 
BRANCH   6   7
ATOM      7  C   UNL     1       7.120   1.025  -0.333  1.00  0.00    -0.047 A 
ATOM      8  C   UNL     1       6.383   0.127  -1.069  1.00  0.00     0.004 A 
ATOM      9  C   UNL     1       8.450   1.226  -0.622  1.00  0.00     0.004 A 
ATOM     10  C   UNL     1       7.034  -0.555  -2.100  1.00  0.00     0.000 A 
ATOM     11  C   UNL     1       9.092   0.550  -1.641  1.00  0.00     0.000 A 
ATOM     12  C   UNL     1       8.361  -0.351  -2.383  1.00  0.00     0.000 A 
ENDBRANCH   6   7
ENDBRANCH   1   6
TORSDOF 4
ENDMDL
MODEL 4
REMARK VINA RESULT:      -6.7      3.796      4.946
REMARK SMILES O=C(O)CCc1ccccc1
REMARK SMILES IDX 4 1 2 2 1 3 3 4 5 6 6 7 7 8 11 9 8 10 10 11 9 12
REMARK H PARENT 3 5
REMARK Flexibility Score: inf
ROOT
ATOM      1  C   UNL     1       5.379   2.916   0.028  1.00  0.00     0.127 C 
ENDROOT
BRANCH   1   2
ATOM      2  C   UNL     1       6.196   3.880   0.801  1.00  0.00     0.303 C 
ATOM      3  O   UNL     1       6.872   4.769   0.226  1.00  0.00    -0.252 OA
BRANCH   2   4
ATOM      4  O   UNL     1       6.236   3.827   2.185  1.00  0.00    -0.481 OA
ATOM      5  H   UNL     1       5.977   2.958   2.661  1.00  0.00     0.296 HD
ENDBRANCH   2   4
ENDBRANCH   1   2
BRANCH   1   6
ATOM      6  C   UNL     1       4.892   1.853   0.965  1.00  0.00     0.047 C 
BRANCH   6   7
ATOM      7  C   UNL     1       5.680   0.622   0.930  1.00  0.00    -0.047 A 
ATOM      8  C   UNL     1       5.779  -0.182   2.041  1.00  0.00     0.004 A 
ATOM      9  C   UNL     1       6.325   0.272  -0.234  1.00  0.00     0.004 A 
ATOM     10  C   UNL     1       6.548  -1.343   1.935  1.00  0.00     0.000 A 
ATOM     11  C   UNL     1       7.085  -0.876  -0.337  1.00  0.00     0.000 A 
ATOM     12  C   UNL     1       7.190  -1.687   0.772  1.00  0.00     0.000 A 
ENDBRANCH   6   7
ENDBRANCH   1   6
TORSDOF 4
ENDMDL
MODEL 5
REMARK VINA RESULT:      -6.6      1.927      2.647
REMARK SMILES O=C(O)CCc1ccccc1
REMARK SMILES IDX 4 1 2 2 1 3 3 4 5 6 6 7 7 8 11 9 8 10 10 11 9 12
REMARK H PARENT 3 5
REMARK Flexibility Score: inf
ROOT
ATOM      1  C   UNL     1       8.247   0.202  -2.218  1.00  0.00     0.127 C 
ENDROOT
BRANCH   1   2
ATOM      2  C   UNL     1       9.364   0.339  -1.254  1.00  0.00     0.303 C 
ATOM      3  O   UNL     1       9.449  -0.406  -0.246  1.00  0.00    -0.252 OA
BRANCH   2   4
ATOM      4  O   UNL     1      10.348   1.296  -1.439  1.00  0.00    -0.481 OA
ATOM      5  H   UNL     1      10.099   2.195  -1.862  1.00  0.00     0.296 HD
ENDBRANCH   2   4
ENDBRANCH   1   2
BRANCH   1   6
ATOM      6  C   UNL     1       7.126  -0.525  -1.539  1.00  0.00     0.047 C 
BRANCH   6   7
ATOM      7  C   UNL     1       6.342   0.308  -0.628  1.00  0.00    -0.047 A 
ATOM      8  C   UNL     1       5.838   1.519  -1.041  1.00  0.00     0.004 A 
ATOM      9  C   UNL     1       6.110  -0.134   0.654  1.00  0.00     0.004 A 
ATOM     10  C   UNL     1       5.098   2.262  -0.118  1.00  0.00     0.000 A 
ATOM     11  C   UNL     1       5.379   0.601   1.565  1.00  0.00     0.000 A 
ATOM     12  C   UNL     1       4.871   1.816   1.160  1.00  0.00     0.000 A 
ENDBRANCH   6   7
ENDBRANCH   1   6
TORSDOF 4
ENDMDL
