@<TRIPOS>MOLECULE
/home/cewinharhar/GITHUB/reincatalyze/data/processed/docking_pred/2023-Apr-26-1657_maxeplen10_maxtrainstep1000_exh32_gamma099_lrac9e-4_lrcr1e-3/b3ccd1df948aefc26948fdc9bbc960af2f6fd47d_ligand_2.pdbqt
 12 12 0 0 0
SMALL
GASTEIGER

@<TRIPOS>ATOM
      1  C          8.4530   -0.6960   -2.0870 C.3     1  UNL1        0.1270
      2  C          8.4770   -1.9350   -2.9000 C.2     1  UNL1        0.3030
      3  O          9.5450   -2.5690   -3.0880 O.2     1  UNL1       -0.2520
      4  O          7.3180   -2.4290   -3.4770 O.3     1  UNL1       -0.4810
      5  H          7.0740   -2.1470   -4.4300 H       1  UNL1        0.2960
      6  C          7.0580   -0.1490   -2.1040 C.3     1  UNL1        0.0470
      7  C          6.4890    0.0690   -0.7750 C.2     1  UNL1       -0.0470
      8  C          5.8380    1.2430   -0.4740 C.2     1  UNL1        0.0040
      9  C          6.6080   -0.9160    0.1770 C.2     1  UNL1        0.0040
     10  C          5.3180    1.3830    0.8150 C.2     1  UNL1        0.0000
     11  C          6.0940   -0.7760    1.4510 C.2     1  UNL1        0.0000
     12  C          5.4410    0.3970    1.7610 C.2     1  UNL1        0.0000
@<TRIPOS>BOND
     1     5     4    1
     2     4     2    1
     3     3     2    2
     4     2     1    1
     5     6     1    1
     6     6     7    1
     7     7     8    2
     8     7     9    1
     9     8    10    1
    10     9    11    2
    11    10    12    2
    12    11    12    1
