@<TRIPOS>MOLECULE
/home/cewinharhar/GITHUB/reincatalyze/data/processed/docking_pred/2023-Apr-26-1657_maxeplen10_maxtrainstep1000_exh32_gamma099_lrac9e-4_lrcr1e-3/b3ccd1df948aefc26948fdc9bbc960af2f6fd47d_ligand_2.pdbqt
 12 12 0 0 0
SMALL
GASTEIGER

@<TRIPOS>ATOM
      1  C          8.2470    0.2020   -2.2180 C.3     1  UNL1        0.1270
      2  C          9.3640    0.3390   -1.2540 C.2     1  UNL1        0.3030
      3  O          9.4490   -0.4060   -0.2460 O.2     1  UNL1       -0.2520
      4  O         10.3480    1.2960   -1.4390 O.3     1  UNL1       -0.4810
      5  H         10.0990    2.1950   -1.8620 H       1  UNL1        0.2960
      6  C          7.1260   -0.5250   -1.5390 C.3     1  UNL1        0.0470
      7  C          6.3420    0.3080   -0.6280 C.2     1  UNL1       -0.0470
      8  C          5.8380    1.5190   -1.0410 C.2     1  UNL1        0.0040
      9  C          6.1100   -0.1340    0.6540 C.2     1  UNL1        0.0040
     10  C          5.0980    2.2620   -0.1180 C.2     1  UNL1        0.0000
     11  C          5.3790    0.6010    1.5650 C.2     1  UNL1        0.0000
     12  C          4.8710    1.8160    1.1600 C.2     1  UNL1        0.0000
@<TRIPOS>BOND
     1     1     6    1
     2     1     2    1
     3     5     4    1
     4     6     7    1
     5     4     2    1
     6     2     3    2
     7     8     7    2
     8     8    10    1
     9     7     9    1
    10    10    12    2
    11     9    11    2
    12    12    11    1
