@<TRIPOS>MOLECULE
/home/cewinharhar/GITHUB/reincatalyze/data/processed/docking_pred/2023-Apr-26-1657_maxeplen10_maxtrainstep1000_exh32_gamma099_lrac9e-4_lrcr1e-3/b3ccd1df948aefc26948fdc9bbc960af2f6fd47d_ligand_2.pdbqt
 12 12 0 0 0
SMALL
GASTEIGER

@<TRIPOS>ATOM
      1  C          5.0090    1.8110    0.7110 C.3     1  UNL1        0.1270
      2  C          4.4880    1.1190    1.9140 C.2     1  UNL1        0.3030
      3  O          5.1440    0.2060    2.4750 O.2     1  UNL1       -0.2520
      4  O          3.2580    1.4600    2.4530 O.3     1  UNL1       -0.4810
      5  H          2.4260    0.9300    2.1790 H       1  UNL1        0.2960
      6  C          6.5060    1.7770    0.7610 C.3     1  UNL1        0.0470
      7  C          7.1200    1.0250   -0.3330 C.2     1  UNL1       -0.0470
      8  C          6.3830    0.1270   -1.0690 C.2     1  UNL1        0.0040
      9  C          8.4500    1.2260   -0.6220 C.2     1  UNL1        0.0040
     10  C          7.0340   -0.5550   -2.1000 C.2     1  UNL1        0.0000
     11  C          9.0920    0.5500   -1.6410 C.2     1  UNL1        0.0000
     12  C          8.3610   -0.3510   -2.3830 C.2     1  UNL1        0.0000
@<TRIPOS>BOND
     1    12    10    2
     2    12    11    1
     3    10     8    1
     4    11     9    2
     5     8     7    2
     6     9     7    1
     7     7     6    1
     8     1     6    1
     9     1     2    1
    10     2     4    1
    11     2     3    2
    12     5     4    1
