@<TRIPOS>MOLECULE
/home/cewinharhar/GITHUB/reincatalyze/data/processed/docking_pred/2023-Apr-26-1657_maxeplen10_maxtrainstep1000_exh32_gamma099_lrac9e-4_lrcr1e-3/b3ccd1df948aefc26948fdc9bbc960af2f6fd47d_ligand_2.pdbqt
 12 12 0 0 0
SMALL
GASTEIGER

@<TRIPOS>ATOM
      1  C          8.4450   -0.6580   -2.0920 C.3     1  UNL1        0.1270
      2  C          8.4700   -1.9080   -2.8890 C.2     1  UNL1        0.3030
      3  O          9.5430   -2.5230   -3.1010 O.2     1  UNL1       -0.2520
      4  O          7.3040   -2.4320   -3.4240 O.3     1  UNL1       -0.4810
      5  H          7.3530   -2.9950   -4.2780 H       1  UNL1        0.2960
      6  C          7.0410   -0.1350   -2.0800 C.3     1  UNL1        0.0470
      7  C          6.4810    0.0350   -0.7410 C.2     1  UNL1       -0.0470
      8  C          6.5870   -0.9650    0.1980 C.2     1  UNL1        0.0040
      9  C          5.8450    1.2120   -0.4230 C.2     1  UNL1        0.0040
     10  C          6.0300   -0.7340    1.4580 C.2     1  UNL1        0.0000
     11  C          5.2950    1.4390    0.8220 C.2     1  UNL1        0.0000
     12  C          5.3960    0.4430    1.7680 C.2     1  UNL1        0.0000
@<TRIPOS>BOND
     1     5     4    1
     2     4     2    1
     3     3     2    2
     4     2     1    1
     5     1     6    1
     6     6     7    1
     7     7     9    2
     8     7     8    1
     9     9    11    1
    10     8    10    2
    11    11    12    2
    12    10    12    1
