@<TRIPOS>MOLECULE
/home/cewinharhar/GITHUB/reincatalyze/data/processed/docking_pred/2023-Apr-26-1657_maxeplen10_maxtrainstep1000_exh32_gamma099_lrac9e-4_lrcr1e-3/b3ccd1df948aefc26948fdc9bbc960af2f6fd47d_ligand_2.pdbqt
 12 12 0 0 0
SMALL
GASTEIGER

@<TRIPOS>ATOM
      1  C          5.3790    2.9160    0.0280 C.3     1  UNL1        0.1270
      2  C          6.1960    3.8800    0.8010 C.2     1  UNL1        0.3030
      3  O          6.8720    4.7690    0.2260 O.2     1  UNL1       -0.2520
      4  O          6.2360    3.8270    2.1850 O.3     1  UNL1       -0.4810
      5  H          5.9770    2.9580    2.6610 H       1  UNL1        0.2960
      6  C          4.8920    1.8530    0.9650 C.3     1  UNL1        0.0470
      7  C          5.6800    0.6220    0.9300 C.2     1  UNL1       -0.0470
      8  C          5.7790   -0.1820    2.0410 C.2     1  UNL1        0.0040
      9  C          6.3250    0.2720   -0.2340 C.2     1  UNL1        0.0040
     10  C          6.5480   -1.3430    1.9350 C.2     1  UNL1        0.0000
     11  C          7.0850   -0.8760   -0.3370 C.2     1  UNL1        0.0000
     12  C          7.1900   -1.6870    0.7720 C.2     1  UNL1        0.0000
@<TRIPOS>BOND
     1    11     9    1
     2    11    12    2
     3     9     7    2
     4     1     2    1
     5     1     6    1
     6     3     2    2
     7    12    10    1
     8     2     4    1
     9     7     6    1
    10     7     8    1
    11    10     8    2
    12     4     5    1
