@<TRIPOS>MOLECULE
/home/cewinharhar/GITHUB/reincatalyze/data/processed/docking_pred/2023-Apr-26-1657_maxeplen10_maxtrainstep1000_exh32_gamma099_lrac9e-4_lrcr1e-3/b3efa5aa79561967f2a1346927635c3d7bfec8a2_ligand_2.pdbqt
 12 12 0 0 0
SMALL
GASTEIGER

@<TRIPOS>ATOM
      1  C          8.3720   -0.6720   -2.0420 C.3     1  UNL1        0.1270
      2  C          8.4240   -1.9030   -2.8650 C.2     1  UNL1        0.3030
      3  O          9.5020   -2.5240   -3.0410 O.2     1  UNL1       -0.2520
      4  O          7.2800   -2.4050   -3.4640 O.3     1  UNL1       -0.4810
      5  H          6.5570   -2.8370   -2.8820 H       1  UNL1        0.2960
      6  C          6.9610   -0.1660   -2.0400 C.3     1  UNL1        0.0470
      7  C          6.4150    0.0660   -0.7040 C.2     1  UNL1       -0.0470
      8  C          6.5570   -0.8770    0.2880 C.2     1  UNL1        0.0040
      9  C          5.7550    1.2450   -0.4440 C.2     1  UNL1        0.0040
     10  C          6.0110   -0.5870    1.5400 C.2     1  UNL1        0.0000
     11  C          5.2160    1.5290    0.7940 C.2     1  UNL1        0.0000
     12  C          5.3530    0.5900    1.7930 C.2     1  UNL1        0.0000
@<TRIPOS>BOND
     1     4     5    1
     2     4     2    1
     3     3     2    2
     4     2     1    1
     5     1     6    1
     6     6     7    1
     7     7     9    2
     8     7     8    1
     9     9    11    1
    10     8    10    2
    11    11    12    2
    12    10    12    1
