@<TRIPOS>MOLECULE
/home/cewinharhar/GITHUB/reincatalyze/data/processed/docking_pred/2023-Apr-26-1657_maxeplen10_maxtrainstep1000_exh32_gamma099_lrac9e-4_lrcr1e-3/b3efa5aa79561967f2a1346927635c3d7bfec8a2_ligand_2.pdbqt
 12 12 0 0 0
SMALL
GASTEIGER

@<TRIPOS>ATOM
      1  C          5.0410    1.8290    0.7150 C.3     1  UNL1        0.1270
      2  C          4.5740    1.1810    1.9640 C.2     1  UNL1        0.3030
      3  O          5.2020    0.2190    2.4720 O.2     1  UNL1       -0.2520
      4  O          3.4290    1.6210    2.6070 O.3     1  UNL1       -0.4810
      5  H          3.3190    1.4490    3.6100 H       1  UNL1        0.2960
      6  C          6.5390    1.8340    0.7190 C.3     1  UNL1        0.0470
      7  C          7.1390    1.0520   -0.3610 C.2     1  UNL1       -0.0470
      8  C          6.3820    0.1630   -1.0900 C.2     1  UNL1        0.0040
      9  C          8.4750    1.2140   -0.6450 C.2     1  UNL1        0.0040
     10  C          7.0210   -0.5490   -2.1070 C.2     1  UNL1        0.0000
     11  C          9.1050    0.5080   -1.6510 C.2     1  UNL1        0.0000
     12  C          8.3540   -0.3840   -2.3850 C.2     1  UNL1        0.0000
@<TRIPOS>BOND
     1    12    10    2
     2    12    11    1
     3    10     8    1
     4    11     9    2
     5     8     7    2
     6     9     7    1
     7     7     6    1
     8     1     6    1
     9     1     2    1
    10     2     3    2
    11     2     4    1
    12     4     5    1
