@<TRIPOS>MOLECULE
/home/cewinharhar/GITHUB/reincatalyze/data/processed/docking_pred/2023-Apr-26-1657_maxeplen10_maxtrainstep1000_exh32_gamma099_lrac9e-4_lrcr1e-3/b3efa5aa79561967f2a1346927635c3d7bfec8a2_ligand_2.pdbqt
 12 12 0 0 0
SMALL
GASTEIGER

@<TRIPOS>ATOM
      1  C          7.1360   -1.1930   -2.1380 C.3     1  UNL1        0.1270
      2  C          8.5770   -1.3830   -2.4290 C.2     1  UNL1        0.3030
      3  O          9.4350   -0.5550   -2.0330 O.2     1  UNL1       -0.2520
      4  O          9.0180   -2.4820   -3.1480 O.3     1  UNL1       -0.4810
      5  H          8.4570   -2.8240   -3.9340 H       1  UNL1        0.2960
      6  C          6.9080    0.2510   -1.8130 C.3     1  UNL1        0.0470
      7  C          6.2790    0.4760   -0.5120 C.2     1  UNL1       -0.0470
      8  C          6.4100   -0.4460    0.5000 C.2     1  UNL1        0.0040
      9  C          5.5520    1.6260   -0.3070 C.2     1  UNL1        0.0040
     10  C          5.7830   -0.1660    1.7170 C.2     1  UNL1        0.0000
     11  C          4.9330    1.9010    0.8960 C.2     1  UNL1        0.0000
     12  C          5.0590    0.9820    1.9160 C.2     1  UNL1        0.0000
@<TRIPOS>BOND
     1     5     4    1
     2     4     2    1
     3     2     1    1
     4     2     3    2
     5     1     6    1
     6     6     7    1
     7     7     9    2
     8     7     8    1
     9     9    11    1
    10     8    10    2
    11    11    12    2
    12    10    12    1
