@<TRIPOS>MOLECULE
/home/cewinharhar/GITHUB/reincatalyze/data/processed/docking_pred/2023-Apr-26-1657_maxeplen10_maxtrainstep1000_exh32_gamma099_lrac9e-4_lrcr1e-3/b3efa5aa79561967f2a1346927635c3d7bfec8a2_ligand_2.pdbqt
 12 12 0 0 0
SMALL
GASTEIGER

@<TRIPOS>ATOM
      1  C          8.4070   -0.6410   -2.0470 C.3     1  UNL1        0.1270
      2  C          8.3730   -1.8760   -2.8660 C.2     1  UNL1        0.3030
      3  O          7.2840   -2.3920   -3.2200 O.2     1  UNL1       -0.2520
      4  O          9.5460   -2.4970   -3.2630 O.3     1  UNL1       -0.4810
      5  H          9.5600   -3.5150   -3.3760 H       1  UNL1        0.2960
      6  C          7.0380   -0.0320   -2.0570 C.3     1  UNL1        0.0470
      7  C          6.4580    0.1510   -0.7280 C.2     1  UNL1       -0.0470
      8  C          5.8090    1.3180   -0.3980 C.2     1  UNL1        0.0040
      9  C          6.5670   -0.8620    0.1970 C.2     1  UNL1        0.0040
     10  C          5.2780    1.4220    0.8900 C.2     1  UNL1        0.0000
     11  C          6.0420   -0.7570    1.4690 C.2     1  UNL1        0.0000
     12  C          5.3900    0.4090    1.8080 C.2     1  UNL1        0.0000
@<TRIPOS>BOND
     1     5     4    1
     2     4     2    1
     3     3     2    2
     4     2     1    1
     5     6     1    1
     6     6     7    1
     7     7     8    2
     8     7     9    1
     9     8    10    1
    10     9    11    2
    11    10    12    2
    12    11    12    1
