MODEL 1
REMARK VINA RESULT:      -7.3      0.000      0.000
REMARK SMILES O=C(O)CCc1ccccc1
REMARK SMILES IDX 4 1 2 2 1 3 3 4 5 6 6 7 7 8 11 9 8 10 10 11 9 12
REMARK H PARENT 3 5
REMARK Flexibility Score: inf
ROOT
ATOM      1  C   UNL     1       8.372  -0.672  -2.042  1.00  0.00     0.127 C 
ENDROOT
BRANCH   1   2
ATOM      2  C   UNL     1       8.424  -1.903  -2.865  1.00  0.00     0.303 C 
ATOM      3  O   UNL     1       9.502  -2.524  -3.041  1.00  0.00    -0.252 OA
BRANCH   2   4
ATOM      4  O   UNL     1       7.280  -2.405  -3.464  1.00  0.00    -0.481 OA
ATOM      5  H   UNL     1       6.557  -2.837  -2.882  1.00  0.00     0.296 HD
ENDBRANCH   2   4
ENDBRANCH   1   2
BRANCH   1   6
ATOM      6  C   UNL     1       6.961  -0.166  -2.040  1.00  0.00     0.047 C 
BRANCH   6   7
ATOM      7  C   UNL     1       6.415   0.066  -0.704  1.00  0.00    -0.047 A 
ATOM      8  C   UNL     1       6.557  -0.877   0.288  1.00  0.00     0.004 A 
ATOM      9  C   UNL     1       5.755   1.245  -0.444  1.00  0.00     0.004 A 
ATOM     10  C   UNL     1       6.011  -0.587   1.540  1.00  0.00     0.000 A 
ATOM     11  C   UNL     1       5.216   1.529   0.794  1.00  0.00     0.000 A 
ATOM     12  C   UNL     1       5.353   0.590   1.793  1.00  0.00     0.000 A 
ENDBRANCH   6   7
ENDBRANCH   1   6
TORSDOF 4
ENDMDL
MODEL 2
REMARK VINA RESULT:      -7.2      0.155      1.731
REMARK SMILES O=C(O)CCc1ccccc1
REMARK SMILES IDX 4 1 2 2 1 3 3 4 5 6 6 7 7 8 11 9 8 10 10 11 9 12
REMARK H PARENT 3 5
REMARK Flexibility Score: inf
ROOT
ATOM      1  C   UNL     1       8.407  -0.641  -2.047  1.00  0.00     0.127 C 
ENDROOT
BRANCH   1   2
ATOM      2  C   UNL     1       8.373  -1.876  -2.866  1.00  0.00     0.303 C 
ATOM      3  O   UNL     1       7.284  -2.392  -3.220  1.00  0.00    -0.252 OA
BRANCH   2   4
ATOM      4  O   UNL     1       9.546  -2.497  -3.263  1.00  0.00    -0.481 OA
ATOM      5  H   UNL     1       9.560  -3.515  -3.376  1.00  0.00     0.296 HD
ENDBRANCH   2   4
ENDBRANCH   1   2
BRANCH   1   6
ATOM      6  C   UNL     1       7.038  -0.032  -2.057  1.00  0.00     0.047 C 
BRANCH   6   7
ATOM      7  C   UNL     1       6.458   0.151  -0.728  1.00  0.00    -0.047 A 
ATOM      8  C   UNL     1       5.809   1.318  -0.398  1.00  0.00     0.004 A 
ATOM      9  C   UNL     1       6.567  -0.862   0.197  1.00  0.00     0.004 A 
ATOM     10  C   UNL     1       5.278   1.422   0.890  1.00  0.00     0.000 A 
ATOM     11  C   UNL     1       6.042  -0.757   1.469  1.00  0.00     0.000 A 
ATOM     12  C   UNL     1       5.390   0.409   1.808  1.00  0.00     0.000 A 
ENDBRANCH   6   7
ENDBRANCH   1   6
TORSDOF 4
ENDMDL
MODEL 3
REMARK VINA RESULT:      -7.1      0.872      1.043
REMARK SMILES O=C(O)CCc1ccccc1
REMARK SMILES IDX 4 1 2 2 1 3 3 4 5 6 6 7 7 8 11 9 8 10 10 11 9 12
REMARK H PARENT 3 5
REMARK Flexibility Score: inf
ROOT
ATOM      1  C   UNL     1       7.136  -1.193  -2.138  1.00  0.00     0.127 C 
ENDROOT
BRANCH   1   2
ATOM      2  C   UNL     1       8.577  -1.383  -2.429  1.00  0.00     0.303 C 
ATOM      3  O   UNL     1       9.435  -0.555  -2.033  1.00  0.00    -0.252 OA
BRANCH   2   4
ATOM      4  O   UNL     1       9.018  -2.482  -3.148  1.00  0.00    -0.481 OA
ATOM      5  H   UNL     1       8.457  -2.824  -3.934  1.00  0.00     0.296 HD
ENDBRANCH   2   4
ENDBRANCH   1   2
BRANCH   1   6
ATOM      6  C   UNL     1       6.908   0.251  -1.813  1.00  0.00     0.047 C 
BRANCH   6   7
ATOM      7  C   UNL     1       6.279   0.476  -0.512  1.00  0.00    -0.047 A 
ATOM      8  C   UNL     1       6.410  -0.446   0.500  1.00  0.00     0.004 A 
ATOM      9  C   UNL     1       5.552   1.626  -0.307  1.00  0.00     0.004 A 
ATOM     10  C   UNL     1       5.783  -0.166   1.717  1.00  0.00     0.000 A 
ATOM     11  C   UNL     1       4.933   1.901   0.896  1.00  0.00     0.000 A 
ATOM     12  C   UNL     1       5.059   0.982   1.916  1.00  0.00     0.000 A 
ENDBRANCH   6   7
ENDBRANCH   1   6
TORSDOF 4
ENDMDL
MODEL 4
REMARK VINA RESULT:      -6.9      3.398      5.087
REMARK SMILES O=C(O)CCc1ccccc1
REMARK SMILES IDX 4 1 2 2 1 3 3 4 5 6 6 7 7 8 11 9 8 10 10 11 9 12
REMARK H PARENT 3 5
REMARK Flexibility Score: inf
ROOT
ATOM      1  C   UNL     1       5.041   1.829   0.715  1.00  0.00     0.127 C 
ENDROOT
BRANCH   1   2
ATOM      2  C   UNL     1       4.574   1.181   1.964  1.00  0.00     0.303 C 
ATOM      3  O   UNL     1       5.202   0.219   2.472  1.00  0.00    -0.252 OA
BRANCH   2   4
ATOM      4  O   UNL     1       3.429   1.621   2.607  1.00  0.00    -0.481 OA
ATOM      5  H   UNL     1       3.319   1.449   3.610  1.00  0.00     0.296 HD
ENDBRANCH   2   4
ENDBRANCH   1   2
BRANCH   1   6
ATOM      6  C   UNL     1       6.539   1.834   0.719  1.00  0.00     0.047 C 
BRANCH   6   7
ATOM      7  C   UNL     1       7.139   1.052  -0.361  1.00  0.00    -0.047 A 
ATOM      8  C   UNL     1       6.382   0.163  -1.090  1.00  0.00     0.004 A 
ATOM      9  C   UNL     1       8.475   1.214  -0.645  1.00  0.00     0.004 A 
ATOM     10  C   UNL     1       7.021  -0.549  -2.107  1.00  0.00     0.000 A 
ATOM     11  C   UNL     1       9.105   0.508  -1.651  1.00  0.00     0.000 A 
ATOM     12  C   UNL     1       8.354  -0.384  -2.385  1.00  0.00     0.000 A 
ENDBRANCH   6   7
ENDBRANCH   1   6
TORSDOF 4
ENDMDL
MODEL 5
REMARK VINA RESULT:      -6.9      3.379      5.064
REMARK SMILES O=C(O)CCc1ccccc1
REMARK SMILES IDX 4 1 2 2 1 3 3 4 5 6 6 7 7 8 11 9 8 10 10 11 9 12
REMARK H PARENT 3 5
REMARK Flexibility Score: inf
ROOT
ATOM      1  C   UNL     1       5.081   1.782   0.699  1.00  0.00     0.127 C 
ENDROOT
BRANCH   1   2
ATOM      2  C   UNL     1       4.686   1.156   1.982  1.00  0.00     0.303 C 
ATOM      3  O   UNL     1       5.398   0.273   2.522  1.00  0.00    -0.252 OA
BRANCH   2   4
ATOM      4  O   UNL     1       3.516   1.528   2.623  1.00  0.00    -0.481 OA
ATOM      5  H   UNL     1       3.570   2.067   3.492  1.00  0.00     0.296 HD
ENDBRANCH   2   4
ENDBRANCH   1   2
BRANCH   1   6
ATOM      6  C   UNL     1       6.576   1.879   0.663  1.00  0.00     0.047 C 
BRANCH   6   7
ATOM      7  C   UNL     1       7.199   1.076  -0.388  1.00  0.00    -0.047 A 
ATOM      8  C   UNL     1       8.538   1.209  -0.675  1.00  0.00     0.004 A 
ATOM      9  C   UNL     1       6.430   0.178  -1.092  1.00  0.00     0.004 A 
ATOM     10  C   UNL     1       9.066   0.409  -1.690  1.00  0.00     0.000 A 
ATOM     11  C   UNL     1       6.953  -0.612  -2.096  1.00  0.00     0.000 A 
ATOM     12  C   UNL     1       8.294  -0.484  -2.390  1.00  0.00     0.000 A 
ENDBRANCH   6   7
ENDBRANCH   1   6
TORSDOF 4
ENDMDL
