@<TRIPOS>MOLECULE
/home/cewinharhar/GITHUB/reincatalyze/data/processed/docking_pred/2023-Apr-26-1657_maxeplen10_maxtrainstep1000_exh32_gamma099_lrac9e-4_lrcr1e-3/b58c38953477011b0b30fd8623da0ee842eab33b_ligand_2.pdbqt
 12 12 0 0 0
SMALL
GASTEIGER

@<TRIPOS>ATOM
      1  C          8.3090   -1.0210   -1.6910 C.3     1  UNL1        0.1270
      2  C          8.3420   -2.0150   -2.7900 C.2     1  UNL1        0.3030
      3  O          7.2830   -2.4430   -3.3120 O.2     1  UNL1       -0.2520
      4  O          9.5470   -2.5010   -3.2720 O.3     1  UNL1       -0.4810
      5  H          9.5510   -3.3510   -3.8430 H       1  UNL1        0.2960
      6  C          7.2900   -1.4640   -0.6860 C.3     1  UNL1        0.0470
      7  C          6.5100   -0.3700   -0.1090 C.2     1  UNL1       -0.0470
      8  C          6.0620   -0.4350    1.1900 C.2     1  UNL1        0.0040
      9  C          6.2290    0.7340   -0.8800 C.2     1  UNL1        0.0040
     10  C          5.3240    0.6460    1.6760 C.2     1  UNL1        0.0000
     11  C          5.4990    1.8020   -0.3980 C.2     1  UNL1        0.0000
     12  C          5.0450    1.7440    0.9020 C.2     1  UNL1        0.0000
@<TRIPOS>BOND
     1     5     4    1
     2     3     2    2
     3     4     2    1
     4     2     1    1
     5     1     6    1
     6     9    11    1
     7     9     7    2
     8     6     7    1
     9    11    12    2
    10     7     8    1
    11    12    10    1
    12     8    10    2
