@<TRIPOS>MOLECULE
/home/cewinharhar/GITHUB/reincatalyze/data/processed/docking_pred/2023-Apr-26-1657_maxeplen10_maxtrainstep1000_exh32_gamma099_lrac9e-4_lrcr1e-3/b58c38953477011b0b30fd8623da0ee842eab33b_ligand_2.pdbqt
 12 12 0 0 0
SMALL
GASTEIGER

@<TRIPOS>ATOM
      1  C          8.4440   -0.6400   -2.1250 C.3     1  UNL1        0.1270
      2  C          8.3950   -1.9080   -2.8910 C.2     1  UNL1        0.3030
      3  O          7.3000   -2.4190   -3.2330 O.2     1  UNL1       -0.2520
      4  O          9.5600   -2.5660   -3.2510 O.3     1  UNL1       -0.4810
      5  H          9.8160   -2.6260   -4.2400 H       1  UNL1        0.2960
      6  C          7.0720   -0.0370   -2.1240 C.3     1  UNL1        0.0470
      7  C          6.4960    0.1250   -0.7900 C.2     1  UNL1       -0.0470
      8  C          6.6580   -0.8480    0.1690 C.2     1  UNL1        0.0040
      9  C          5.7860    1.2670   -0.5000 C.2     1  UNL1        0.0040
     10  C          6.0810   -0.6260    1.4210 C.2     1  UNL1        0.0000
     11  C          5.2160    1.4850    0.7390 C.2     1  UNL1        0.0000
     12  C          5.3730    0.5150    1.7050 C.2     1  UNL1        0.0000
@<TRIPOS>BOND
     1     5     4    1
     2     4     2    1
     3     3     2    2
     4     2     1    1
     5     1     6    1
     6     6     7    1
     7     7     9    2
     8     7     8    1
     9     9    11    1
    10     8    10    2
    11    11    12    2
    12    10    12    1
