MODEL 1
REMARK VINA RESULT:      -7.3      0.000      0.000
REMARK SMILES O=C(O)CCc1ccccc1
REMARK SMILES IDX 4 1 2 2 1 3 3 4 5 6 6 7 7 8 11 9 8 10 10 11 9 12
REMARK H PARENT 3 5
REMARK Flexibility Score: inf
ROOT
ATOM      1  C   UNL     1       8.438  -0.654  -2.061  1.00  0.00     0.127 C 
ENDROOT
BRANCH   1   2
ATOM      2  C   UNL     1       8.385  -1.898  -2.864  1.00  0.00     0.303 C 
ATOM      3  O   UNL     1       7.289  -2.401  -3.213  1.00  0.00    -0.252 OA
BRANCH   2   4
ATOM      4  O   UNL     1       9.549  -2.542  -3.253  1.00  0.00    -0.481 OA
ATOM      5  H   UNL     1      10.228  -2.823  -2.541  1.00  0.00     0.296 HD
ENDBRANCH   2   4
ENDBRANCH   1   2
BRANCH   1   6
ATOM      6  C   UNL     1       7.080  -0.021  -2.083  1.00  0.00     0.047 C 
BRANCH   6   7
ATOM      7  C   UNL     1       6.481   0.148  -0.760  1.00  0.00    -0.047 A 
ATOM      8  C   UNL     1       5.791   1.295  -0.442  1.00  0.00     0.004 A 
ATOM      9  C   UNL     1       6.613  -0.857   0.170  1.00  0.00     0.004 A 
ATOM     10  C   UNL     1       5.245   1.388   0.840  1.00  0.00     0.000 A 
ATOM     11  C   UNL     1       6.073  -0.763   1.437  1.00  0.00     0.000 A 
ATOM     12  C   UNL     1       5.380   0.383   1.764  1.00  0.00     0.000 A 
ENDBRANCH   6   7
ENDBRANCH   1   6
TORSDOF 4
ENDMDL
MODEL 2
REMARK VINA RESULT:      -7.3      0.084      1.438
REMARK SMILES O=C(O)CCc1ccccc1
REMARK SMILES IDX 4 1 2 2 1 3 3 4 5 6 6 7 7 8 11 9 8 10 10 11 9 12
REMARK H PARENT 3 5
REMARK Flexibility Score: inf
ROOT
ATOM      1  C   UNL     1       8.444  -0.640  -2.125  1.00  0.00     0.127 C 
ENDROOT
BRANCH   1   2
ATOM      2  C   UNL     1       8.395  -1.908  -2.891  1.00  0.00     0.303 C 
ATOM      3  O   UNL     1       7.300  -2.419  -3.233  1.00  0.00    -0.252 OA
BRANCH   2   4
ATOM      4  O   UNL     1       9.560  -2.566  -3.251  1.00  0.00    -0.481 OA
ATOM      5  H   UNL     1       9.816  -2.626  -4.240  1.00  0.00     0.296 HD
ENDBRANCH   2   4
ENDBRANCH   1   2
BRANCH   1   6
ATOM      6  C   UNL     1       7.072  -0.037  -2.124  1.00  0.00     0.047 C 
BRANCH   6   7
ATOM      7  C   UNL     1       6.496   0.125  -0.790  1.00  0.00    -0.047 A 
ATOM      8  C   UNL     1       6.658  -0.848   0.169  1.00  0.00     0.004 A 
ATOM      9  C   UNL     1       5.786   1.267  -0.500  1.00  0.00     0.004 A 
ATOM     10  C   UNL     1       6.081  -0.626   1.421  1.00  0.00     0.000 A 
ATOM     11  C   UNL     1       5.216   1.485   0.739  1.00  0.00     0.000 A 
ATOM     12  C   UNL     1       5.373   0.515   1.705  1.00  0.00     0.000 A 
ENDBRANCH   6   7
ENDBRANCH   1   6
TORSDOF 4
ENDMDL
MODEL 3
REMARK VINA RESULT:      -7.1      0.639      1.619
REMARK SMILES O=C(O)CCc1ccccc1
REMARK SMILES IDX 4 1 2 2 1 3 3 4 5 6 6 7 7 8 11 9 8 10 10 11 9 12
REMARK H PARENT 3 5
REMARK Flexibility Score: inf
ROOT
ATOM      1  C   UNL     1       8.309  -1.021  -1.691  1.00  0.00     0.127 C 
ENDROOT
BRANCH   1   2
ATOM      2  C   UNL     1       8.342  -2.015  -2.790  1.00  0.00     0.303 C 
ATOM      3  O   UNL     1       7.283  -2.443  -3.312  1.00  0.00    -0.252 OA
BRANCH   2   4
ATOM      4  O   UNL     1       9.547  -2.501  -3.272  1.00  0.00    -0.481 OA
ATOM      5  H   UNL     1       9.551  -3.351  -3.843  1.00  0.00     0.296 HD
ENDBRANCH   2   4
ENDBRANCH   1   2
BRANCH   1   6
ATOM      6  C   UNL     1       7.290  -1.464  -0.686  1.00  0.00     0.047 C 
BRANCH   6   7
ATOM      7  C   UNL     1       6.510  -0.370  -0.109  1.00  0.00    -0.047 A 
ATOM      8  C   UNL     1       6.062  -0.435   1.190  1.00  0.00     0.004 A 
ATOM      9  C   UNL     1       6.229   0.734  -0.880  1.00  0.00     0.004 A 
ATOM     10  C   UNL     1       5.324   0.646   1.676  1.00  0.00     0.000 A 
ATOM     11  C   UNL     1       5.499   1.802  -0.398  1.00  0.00     0.000 A 
ATOM     12  C   UNL     1       5.045   1.744   0.902  1.00  0.00     0.000 A 
ENDBRANCH   6   7
ENDBRANCH   1   6
TORSDOF 4
ENDMDL
MODEL 4
REMARK VINA RESULT:      -6.8      3.306      5.150
REMARK SMILES O=C(O)CCc1ccccc1
REMARK SMILES IDX 4 1 2 2 1 3 3 4 5 6 6 7 7 8 11 9 8 10 10 11 9 12
REMARK H PARENT 3 5
REMARK Flexibility Score: inf
ROOT
ATOM      1  C   UNL     1       4.987   1.816   0.727  1.00  0.00     0.127 C 
ENDROOT
BRANCH   1   2
ATOM      2  C   UNL     1       4.465   1.120   1.927  1.00  0.00     0.303 C 
ATOM      3  O   UNL     1       5.117   0.200   2.481  1.00  0.00    -0.252 OA
BRANCH   2   4
ATOM      4  O   UNL     1       3.239   1.467   2.472  1.00  0.00    -0.481 OA
ATOM      5  H   UNL     1       2.381   1.210   1.977  1.00  0.00     0.296 HD
ENDBRANCH   2   4
ENDBRANCH   1   2
BRANCH   1   6
ATOM      6  C   UNL     1       6.485   1.790   0.782  1.00  0.00     0.047 C 
BRANCH   6   7
ATOM      7  C   UNL     1       7.107   1.046  -0.312  1.00  0.00    -0.047 A 
ATOM      8  C   UNL     1       6.383   0.133  -1.043  1.00  0.00     0.004 A 
ATOM      9  C   UNL     1       8.432   1.271  -0.607  1.00  0.00     0.004 A 
ATOM     10  C   UNL     1       7.042  -0.540  -2.074  1.00  0.00     0.000 A 
ATOM     11  C   UNL     1       9.082   0.604  -1.627  1.00  0.00     0.000 A 
ATOM     12  C   UNL     1       8.364  -0.313  -2.364  1.00  0.00     0.000 A 
ENDBRANCH   6   7
ENDBRANCH   1   6
TORSDOF 4
ENDMDL
MODEL 5
REMARK VINA RESULT:      -6.7      3.771      5.014
REMARK SMILES O=C(O)CCc1ccccc1
REMARK SMILES IDX 4 1 2 2 1 3 3 4 5 6 6 7 7 8 11 9 8 10 10 11 9 12
REMARK H PARENT 3 5
REMARK Flexibility Score: inf
ROOT
ATOM      1  C   UNL     1       5.387   2.909   0.020  1.00  0.00     0.127 C 
ENDROOT
BRANCH   1   2
ATOM      2  C   UNL     1       6.202   3.879   0.789  1.00  0.00     0.303 C 
ATOM      3  O   UNL     1       6.881   4.762   0.209  1.00  0.00    -0.252 OA
BRANCH   2   4
ATOM      4  O   UNL     1       6.237   3.837   2.173  1.00  0.00    -0.481 OA
ATOM      5  H   UNL     1       7.138   3.741   2.649  1.00  0.00     0.296 HD
ENDBRANCH   2   4
ENDBRANCH   1   2
BRANCH   1   6
ATOM      6  C   UNL     1       4.920   1.839   0.958  1.00  0.00     0.047 C 
BRANCH   6   7
ATOM      7  C   UNL     1       5.714   0.612   0.903  1.00  0.00    -0.047 A 
ATOM      8  C   UNL     1       5.812  -0.212   2.000  1.00  0.00     0.004 A 
ATOM      9  C   UNL     1       6.364   0.285  -0.265  1.00  0.00     0.004 A 
ATOM     10  C   UNL     1       6.586  -1.368   1.875  1.00  0.00     0.000 A 
ATOM     11  C   UNL     1       7.129  -0.858  -0.386  1.00  0.00     0.000 A 
ATOM     12  C   UNL     1       7.234  -1.688   0.709  1.00  0.00     0.000 A 
ENDBRANCH   6   7
ENDBRANCH   1   6
TORSDOF 4
ENDMDL
