@<TRIPOS>MOLECULE
/home/cewinharhar/GITHUB/reincatalyze/data/processed/docking_pred/2023-Apr-26-1657_maxeplen10_maxtrainstep1000_exh32_gamma099_lrac9e-4_lrcr1e-3/b58c38953477011b0b30fd8623da0ee842eab33b_ligand_2.pdbqt
 12 12 0 0 0
SMALL
GASTEIGER

@<TRIPOS>ATOM
      1  C          8.4380   -0.6540   -2.0610 C.3     1  UNL1        0.1270
      2  C          8.3850   -1.8980   -2.8640 C.2     1  UNL1        0.3030
      3  O          7.2890   -2.4010   -3.2130 O.2     1  UNL1       -0.2520
      4  O          9.5490   -2.5420   -3.2530 O.3     1  UNL1       -0.4810
      5  H         10.2280   -2.8230   -2.5410 H       1  UNL1        0.2960
      6  C          7.0800   -0.0210   -2.0830 C.3     1  UNL1        0.0470
      7  C          6.4810    0.1480   -0.7600 C.2     1  UNL1       -0.0470
      8  C          5.7910    1.2950   -0.4420 C.2     1  UNL1        0.0040
      9  C          6.6130   -0.8570    0.1700 C.2     1  UNL1        0.0040
     10  C          5.2450    1.3880    0.8400 C.2     1  UNL1        0.0000
     11  C          6.0730   -0.7630    1.4370 C.2     1  UNL1        0.0000
     12  C          5.3800    0.3830    1.7640 C.2     1  UNL1        0.0000
@<TRIPOS>BOND
     1     4     2    1
     2     4     5    1
     3     3     2    2
     4     2     1    1
     5     6     1    1
     6     6     7    1
     7     7     8    2
     8     7     9    1
     9     8    10    1
    10     9    11    2
    11    10    12    2
    12    11    12    1
