@<TRIPOS>MOLECULE
/home/cewinharhar/GITHUB/reincatalyze/data/processed/docking_pred/2023-Apr-26-1657_maxeplen10_maxtrainstep1000_exh32_gamma099_lrac9e-4_lrcr1e-3/b58c38953477011b0b30fd8623da0ee842eab33b_ligand_2.pdbqt
 12 12 0 0 0
SMALL
GASTEIGER

@<TRIPOS>ATOM
      1  C          4.9870    1.8160    0.7270 C.3     1  UNL1        0.1270
      2  C          4.4650    1.1200    1.9270 C.2     1  UNL1        0.3030
      3  O          5.1170    0.2000    2.4810 O.2     1  UNL1       -0.2520
      4  O          3.2390    1.4670    2.4720 O.3     1  UNL1       -0.4810
      5  H          2.3810    1.2100    1.9770 H       1  UNL1        0.2960
      6  C          6.4850    1.7900    0.7820 C.3     1  UNL1        0.0470
      7  C          7.1070    1.0460   -0.3120 C.2     1  UNL1       -0.0470
      8  C          6.3830    0.1330   -1.0430 C.2     1  UNL1        0.0040
      9  C          8.4320    1.2710   -0.6070 C.2     1  UNL1        0.0040
     10  C          7.0420   -0.5400   -2.0740 C.2     1  UNL1        0.0000
     11  C          9.0820    0.6040   -1.6270 C.2     1  UNL1        0.0000
     12  C          8.3640   -0.3130   -2.3640 C.2     1  UNL1        0.0000
@<TRIPOS>BOND
     1    12    10    2
     2    12    11    1
     3    10     8    1
     4    11     9    2
     5     8     7    2
     6     9     7    1
     7     7     6    1
     8     1     6    1
     9     1     2    1
    10     2     4    1
    11     2     3    2
    12     5     4    1
