@<TRIPOS>MOLECULE
/home/cewinharhar/GITHUB/reincatalyze/data/processed/docking_pred/2023-Apr-26-1657_maxeplen10_maxtrainstep1000_exh32_gamma099_lrac9e-4_lrcr1e-3/b58c38953477011b0b30fd8623da0ee842eab33b_ligand_2.pdbqt
 12 12 0 0 0
SMALL
GASTEIGER

@<TRIPOS>ATOM
      1  C          5.3870    2.9090    0.0200 C.3     1  UNL1        0.1270
      2  C          6.2020    3.8790    0.7890 C.2     1  UNL1        0.3030
      3  O          6.8810    4.7620    0.2090 O.2     1  UNL1       -0.2520
      4  O          6.2370    3.8370    2.1730 O.3     1  UNL1       -0.4810
      5  H          7.1380    3.7410    2.6490 H       1  UNL1        0.2960
      6  C          4.9200    1.8390    0.9580 C.3     1  UNL1        0.0470
      7  C          5.7140    0.6120    0.9030 C.2     1  UNL1       -0.0470
      8  C          5.8120   -0.2120    2.0000 C.2     1  UNL1        0.0040
      9  C          6.3640    0.2850   -0.2650 C.2     1  UNL1        0.0040
     10  C          6.5860   -1.3680    1.8750 C.2     1  UNL1        0.0000
     11  C          7.1290   -0.8580   -0.3860 C.2     1  UNL1        0.0000
     12  C          7.2340   -1.6880    0.7090 C.2     1  UNL1        0.0000
@<TRIPOS>BOND
     1    11     9    1
     2    11    12    2
     3     9     7    2
     4     1     2    1
     5     1     6    1
     6     3     2    2
     7    12    10    1
     8     2     4    1
     9     7     6    1
    10     7     8    1
    11    10     8    2
    12     4     5    1
