@<TRIPOS>MOLECULE
/home/cewinharhar/GITHUB/reincatalyze/data/processed/docking_pred/2023-Apr-26-1657_maxeplen10_maxtrainstep1000_exh32_gamma099_lrac9e-4_lrcr1e-3/b590df4aad401e291154b1741be08749940afe84_ligand_2.pdbqt
 12 12 0 0 0
SMALL
GASTEIGER

@<TRIPOS>ATOM
      1  C          8.2500   -0.9060   -1.8810 C.3     1  UNL1        0.1270
      2  C          8.3980   -2.0140   -2.8540 C.2     1  UNL1        0.3030
      3  O          9.5250   -2.5000   -3.1200 O.2     1  UNL1       -0.2520
      4  O          7.2930   -2.5440   -3.4990 O.3     1  UNL1       -0.4810
      5  H          7.2680   -3.5470   -3.7070 H       1  UNL1        0.2960
      6  C          7.3410   -1.3630   -0.7810 C.3     1  UNL1        0.0470
      7  C          6.5350   -0.2950   -0.1930 C.2     1  UNL1       -0.0470
      8  C          6.2040    0.8210   -0.9250 C.2     1  UNL1        0.0040
      9  C          6.1070   -0.4170    1.1090 C.2     1  UNL1        0.0040
     10  C          5.4310    1.8020   -0.2990 C.2     1  UNL1        0.0000
     11  C          5.3430    0.5540    1.7260 C.2     1  UNL1        0.0000
     12  C          5.0070    1.6750    1.0000 C.2     1  UNL1        0.0000
@<TRIPOS>BOND
     1     5     4    1
     2     4     2    1
     3     3     2    2
     4     2     1    1
     5     1     6    1
     6     8    10    1
     7     8     7    2
     8     6     7    1
     9    10    12    2
    10     7     9    1
    11    12    11    1
    12     9    11    2
