MODEL 1
REMARK VINA RESULT:      -7.3      0.000      0.000
REMARK SMILES O=C(O)CCc1ccccc1
REMARK SMILES IDX 4 1 2 2 1 3 3 4 5 6 6 7 7 8 11 9 8 10 10 11 9 12
REMARK H PARENT 3 5
REMARK Flexibility Score: inf
ROOT
ATOM      1  C   UNL     1       8.443  -0.579  -2.195  1.00  0.00     0.127 C 
ENDROOT
BRANCH   1   2
ATOM      2  C   UNL     1       8.490  -1.873  -2.917  1.00  0.00     0.303 C 
ATOM      3  O   UNL     1       9.574  -2.482  -3.090  1.00  0.00    -0.252 OA
BRANCH   2   4
ATOM      4  O   UNL     1       7.335  -2.446  -3.423  1.00  0.00    -0.481 OA
ATOM      5  H   UNL     1       6.435  -2.231  -2.984  1.00  0.00     0.296 HD
ENDBRANCH   2   4
ENDBRANCH   1   2
BRANCH   1   6
ATOM      6  C   UNL     1       7.019  -0.116  -2.153  1.00  0.00     0.047 C 
BRANCH   6   7
ATOM      7  C   UNL     1       6.486   0.043  -0.801  1.00  0.00    -0.047 A 
ATOM      8  C   UNL     1       6.618  -0.961   0.130  1.00  0.00     0.004 A 
ATOM      9  C   UNL     1       5.848   1.215  -0.464  1.00  0.00     0.004 A 
ATOM     10  C   UNL     1       6.085  -0.740   1.402  1.00  0.00     0.000 A 
ATOM     11  C   UNL     1       5.322   1.432   0.794  1.00  0.00     0.000 A 
ATOM     12  C   UNL     1       5.449   0.431   1.732  1.00  0.00     0.000 A 
ENDBRANCH   6   7
ENDBRANCH   1   6
TORSDOF 4
ENDMDL
MODEL 2
REMARK VINA RESULT:      -7.3      0.133      1.732
REMARK SMILES O=C(O)CCc1ccccc1
REMARK SMILES IDX 4 1 2 2 1 3 3 4 5 6 6 7 7 8 11 9 8 10 10 11 9 12
REMARK H PARENT 3 5
REMARK Flexibility Score: inf
ROOT
ATOM      1  C   UNL     1       8.410  -0.610  -2.119  1.00  0.00     0.127 C 
ENDROOT
BRANCH   1   2
ATOM      2  C   UNL     1       8.386  -1.879  -2.885  1.00  0.00     0.303 C 
ATOM      3  O   UNL     1       7.302  -2.416  -3.221  1.00  0.00    -0.252 OA
BRANCH   2   4
ATOM      4  O   UNL     1       9.565  -2.508  -3.252  1.00  0.00    -0.481 OA
ATOM      5  H   UNL     1       9.873  -2.465  -4.227  1.00  0.00     0.296 HD
ENDBRANCH   2   4
ENDBRANCH   1   2
BRANCH   1   6
ATOM      6  C   UNL     1       7.019  -0.054  -2.088  1.00  0.00     0.047 C 
BRANCH   6   7
ATOM      7  C   UNL     1       6.468   0.096  -0.742  1.00  0.00    -0.047 A 
ATOM      8  C   UNL     1       5.843   1.262  -0.363  1.00  0.00     0.004 A 
ATOM      9  C   UNL     1       6.580  -0.946   0.149  1.00  0.00     0.004 A 
ATOM     10  C   UNL     1       5.340   1.335   0.938  1.00  0.00     0.000 A 
ATOM     11  C   UNL     1       6.082  -0.872   1.435  1.00  0.00     0.000 A 
ATOM     12  C   UNL     1       5.455   0.292   1.822  1.00  0.00     0.000 A 
ENDBRANCH   6   7
ENDBRANCH   1   6
TORSDOF 4
ENDMDL
MODEL 3
REMARK VINA RESULT:      -7.2      0.657      1.107
REMARK SMILES O=C(O)CCc1ccccc1
REMARK SMILES IDX 4 1 2 2 1 3 3 4 5 6 6 7 7 8 11 9 8 10 10 11 9 12
REMARK H PARENT 3 5
REMARK Flexibility Score: inf
ROOT
ATOM      1  C   UNL     1       8.278  -0.960  -1.790  1.00  0.00     0.127 C 
ENDROOT
BRANCH   1   2
ATOM      2  C   UNL     1       8.413  -2.021  -2.816  1.00  0.00     0.303 C 
ATOM      3  O   UNL     1       9.535  -2.504  -3.109  1.00  0.00    -0.252 OA
BRANCH   2   4
ATOM      4  O   UNL     1       7.301  -2.509  -3.483  1.00  0.00    -0.481 OA
ATOM      5  H   UNL     1       7.401  -3.326  -4.091  1.00  0.00     0.296 HD
ENDBRANCH   2   4
ENDBRANCH   1   2
BRANCH   1   6
ATOM      6  C   UNL     1       7.299  -1.426  -0.757  1.00  0.00     0.047 C 
BRANCH   6   7
ATOM      7  C   UNL     1       6.511  -0.351  -0.155  1.00  0.00    -0.047 A 
ATOM      8  C   UNL     1       6.071  -0.444   1.144  1.00  0.00     0.004 A 
ATOM      9  C   UNL     1       6.215   0.763  -0.905  1.00  0.00     0.004 A 
ATOM     10  C   UNL     1       5.325   0.621   1.654  1.00  0.00     0.000 A 
ATOM     11  C   UNL     1       5.477   1.815  -0.400  1.00  0.00     0.000 A 
ATOM     12  C   UNL     1       5.031   1.730   0.901  1.00  0.00     0.000 A 
ENDBRANCH   6   7
ENDBRANCH   1   6
TORSDOF 4
ENDMDL
MODEL 4
REMARK VINA RESULT:      -7.2      0.637      1.587
REMARK SMILES O=C(O)CCc1ccccc1
REMARK SMILES IDX 4 1 2 2 1 3 3 4 5 6 6 7 7 8 11 9 8 10 10 11 9 12
REMARK H PARENT 3 5
REMARK Flexibility Score: inf
ROOT
ATOM      1  C   UNL     1       8.250  -0.906  -1.881  1.00  0.00     0.127 C 
ENDROOT
BRANCH   1   2
ATOM      2  C   UNL     1       8.398  -2.014  -2.854  1.00  0.00     0.303 C 
ATOM      3  O   UNL     1       9.525  -2.500  -3.120  1.00  0.00    -0.252 OA
BRANCH   2   4
ATOM      4  O   UNL     1       7.293  -2.544  -3.499  1.00  0.00    -0.481 OA
ATOM      5  H   UNL     1       7.268  -3.547  -3.707  1.00  0.00     0.296 HD
ENDBRANCH   2   4
ENDBRANCH   1   2
BRANCH   1   6
ATOM      6  C   UNL     1       7.341  -1.363  -0.781  1.00  0.00     0.047 C 
BRANCH   6   7
ATOM      7  C   UNL     1       6.535  -0.295  -0.193  1.00  0.00    -0.047 A 
ATOM      8  C   UNL     1       6.204   0.821  -0.925  1.00  0.00     0.004 A 
ATOM      9  C   UNL     1       6.107  -0.417   1.109  1.00  0.00     0.004 A 
ATOM     10  C   UNL     1       5.431   1.802  -0.299  1.00  0.00     0.000 A 
ATOM     11  C   UNL     1       5.343   0.554   1.726  1.00  0.00     0.000 A 
ATOM     12  C   UNL     1       5.007   1.675   1.000  1.00  0.00     0.000 A 
ENDBRANCH   6   7
ENDBRANCH   1   6
TORSDOF 4
ENDMDL
MODEL 5
REMARK VINA RESULT:      -6.7      3.342      5.032
REMARK SMILES O=C(O)CCc1ccccc1
REMARK SMILES IDX 4 1 2 2 1 3 3 4 5 6 6 7 7 8 11 9 8 10 10 11 9 12
REMARK H PARENT 3 5
REMARK Flexibility Score: inf
ROOT
ATOM      1  C   UNL     1       5.032   1.738   0.653  1.00  0.00     0.127 C 
ENDROOT
BRANCH   1   2
ATOM      2  C   UNL     1       4.605   1.067   1.904  1.00  0.00     0.303 C 
ATOM      3  O   UNL     1       5.349   0.239   2.485  1.00  0.00    -0.252 OA
BRANCH   2   4
ATOM      4  O   UNL     1       3.368   1.337   2.468  1.00  0.00    -0.481 OA
ATOM      5  H   UNL     1       2.638   1.765   1.892  1.00  0.00     0.296 HD
ENDBRANCH   2   4
ENDBRANCH   1   2
BRANCH   1   6
ATOM      6  C   UNL     1       6.528   1.827   0.654  1.00  0.00     0.047 C 
BRANCH   6   7
ATOM      7  C   UNL     1       7.170   1.038  -0.395  1.00  0.00    -0.047 A 
ATOM      8  C   UNL     1       8.512   1.183  -0.662  1.00  0.00     0.004 A 
ATOM      9  C   UNL     1       6.418   0.140  -1.117  1.00  0.00     0.004 A 
ATOM     10  C   UNL     1       9.060   0.396  -1.678  1.00  0.00     0.000 A 
ATOM     11  C   UNL     1       6.960  -0.637  -2.120  1.00  0.00     0.000 A 
ATOM     12  C   UNL     1       8.304  -0.497  -2.395  1.00  0.00     0.000 A 
ENDBRANCH   6   7
ENDBRANCH   1   6
TORSDOF 4
ENDMDL
