@<TRIPOS>MOLECULE
/home/cewinharhar/GITHUB/reincatalyze/data/processed/docking_pred/2023-Apr-26-1657_maxeplen10_maxtrainstep1000_exh32_gamma099_lrac9e-4_lrcr1e-3/b590df4aad401e291154b1741be08749940afe84_ligand_2.pdbqt
 12 12 0 0 0
SMALL
GASTEIGER

@<TRIPOS>ATOM
      1  C          8.4100   -0.6100   -2.1190 C.3     1  UNL1        0.1270
      2  C          8.3860   -1.8790   -2.8850 C.2     1  UNL1        0.3030
      3  O          7.3020   -2.4160   -3.2210 O.2     1  UNL1       -0.2520
      4  O          9.5650   -2.5080   -3.2520 O.3     1  UNL1       -0.4810
      5  H          9.8730   -2.4650   -4.2270 H       1  UNL1        0.2960
      6  C          7.0190   -0.0540   -2.0880 C.3     1  UNL1        0.0470
      7  C          6.4680    0.0960   -0.7420 C.2     1  UNL1       -0.0470
      8  C          5.8430    1.2620   -0.3630 C.2     1  UNL1        0.0040
      9  C          6.5800   -0.9460    0.1490 C.2     1  UNL1        0.0040
     10  C          5.3400    1.3350    0.9380 C.2     1  UNL1        0.0000
     11  C          6.0820   -0.8720    1.4350 C.2     1  UNL1        0.0000
     12  C          5.4550    0.2920    1.8220 C.2     1  UNL1        0.0000
@<TRIPOS>BOND
     1     5     4    1
     2     4     2    1
     3     3     2    2
     4     2     1    1
     5     1     6    1
     6     6     7    1
     7     7     8    2
     8     7     9    1
     9     8    10    1
    10     9    11    2
    11    10    12    2
    12    11    12    1
