@<TRIPOS>MOLECULE
/home/cewinharhar/GITHUB/reincatalyze/data/processed/docking_pred/2023-Apr-26-1657_maxeplen10_maxtrainstep1000_exh32_gamma099_lrac9e-4_lrcr1e-3/b590df4aad401e291154b1741be08749940afe84_ligand_2.pdbqt
 12 12 0 0 0
SMALL
GASTEIGER

@<TRIPOS>ATOM
      1  C          8.4430   -0.5790   -2.1950 C.3     1  UNL1        0.1270
      2  C          8.4900   -1.8730   -2.9170 C.2     1  UNL1        0.3030
      3  O          9.5740   -2.4820   -3.0900 O.2     1  UNL1       -0.2520
      4  O          7.3350   -2.4460   -3.4230 O.3     1  UNL1       -0.4810
      5  H          6.4350   -2.2310   -2.9840 H       1  UNL1        0.2960
      6  C          7.0190   -0.1160   -2.1530 C.3     1  UNL1        0.0470
      7  C          6.4860    0.0430   -0.8010 C.2     1  UNL1       -0.0470
      8  C          6.6180   -0.9610    0.1300 C.2     1  UNL1        0.0040
      9  C          5.8480    1.2150   -0.4640 C.2     1  UNL1        0.0040
     10  C          6.0850   -0.7400    1.4020 C.2     1  UNL1        0.0000
     11  C          5.3220    1.4320    0.7940 C.2     1  UNL1        0.0000
     12  C          5.4490    0.4310    1.7320 C.2     1  UNL1        0.0000
@<TRIPOS>BOND
     1     4     5    1
     2     4     2    1
     3     3     2    2
     4     2     1    1
     5     1     6    1
     6     6     7    1
     7     7     9    2
     8     7     8    1
     9     9    11    1
    10     8    10    2
    11    11    12    2
    12    10    12    1
