@<TRIPOS>MOLECULE
/home/cewinharhar/GITHUB/reincatalyze/data/processed/docking_pred/2023-Apr-26-1657_maxeplen10_maxtrainstep1000_exh32_gamma099_lrac9e-4_lrcr1e-3/b590df4aad401e291154b1741be08749940afe84_ligand_2.pdbqt
 12 12 0 0 0
SMALL
GASTEIGER

@<TRIPOS>ATOM
      1  C          8.2780   -0.9600   -1.7900 C.3     1  UNL1        0.1270
      2  C          8.4130   -2.0210   -2.8160 C.2     1  UNL1        0.3030
      3  O          9.5350   -2.5040   -3.1090 O.2     1  UNL1       -0.2520
      4  O          7.3010   -2.5090   -3.4830 O.3     1  UNL1       -0.4810
      5  H          7.4010   -3.3260   -4.0910 H       1  UNL1        0.2960
      6  C          7.2990   -1.4260   -0.7570 C.3     1  UNL1        0.0470
      7  C          6.5110   -0.3510   -0.1550 C.2     1  UNL1       -0.0470
      8  C          6.0710   -0.4440    1.1440 C.2     1  UNL1        0.0040
      9  C          6.2150    0.7630   -0.9050 C.2     1  UNL1        0.0040
     10  C          5.3250    0.6210    1.6540 C.2     1  UNL1        0.0000
     11  C          5.4770    1.8150   -0.4000 C.2     1  UNL1        0.0000
     12  C          5.0310    1.7300    0.9010 C.2     1  UNL1        0.0000
@<TRIPOS>BOND
     1     5     4    1
     2     4     2    1
     3     3     2    2
     4     2     1    1
     5     1     6    1
     6     9    11    1
     7     9     7    2
     8     6     7    1
     9    11    12    2
    10     7     8    1
    11    12    10    1
    12     8    10    2
