@<TRIPOS>MOLECULE
/home/cewinharhar/GITHUB/reincatalyze/data/processed/docking_pred/2023-Apr-26-1657_maxeplen10_maxtrainstep1000_exh32_gamma099_lrac9e-4_lrcr1e-3/b590df4aad401e291154b1741be08749940afe84_ligand_2.pdbqt
 12 12 0 0 0
SMALL
GASTEIGER

@<TRIPOS>ATOM
      1  C          5.0320    1.7380    0.6530 C.3     1  UNL1        0.1270
      2  C          4.6050    1.0670    1.9040 C.2     1  UNL1        0.3030
      3  O          5.3490    0.2390    2.4850 O.2     1  UNL1       -0.2520
      4  O          3.3680    1.3370    2.4680 O.3     1  UNL1       -0.4810
      5  H          2.6380    1.7650    1.8920 H       1  UNL1        0.2960
      6  C          6.5280    1.8270    0.6540 C.3     1  UNL1        0.0470
      7  C          7.1700    1.0380   -0.3950 C.2     1  UNL1       -0.0470
      8  C          8.5120    1.1830   -0.6620 C.2     1  UNL1        0.0040
      9  C          6.4180    0.1400   -1.1170 C.2     1  UNL1        0.0040
     10  C          9.0600    0.3960   -1.6780 C.2     1  UNL1        0.0000
     11  C          6.9600   -0.6370   -2.1200 C.2     1  UNL1        0.0000
     12  C          8.3040   -0.4970   -2.3950 C.2     1  UNL1        0.0000
@<TRIPOS>BOND
     1    12    11    2
     2    12    10    1
     3    11     9    1
     4    10     8    2
     5     9     7    2
     6     8     7    1
     7     7     6    1
     8     1     6    1
     9     1     2    1
    10     5     4    1
    11     2     4    1
    12     2     3    2
