@<TRIPOS>MOLECULE
/home/cewinharhar/GITHUB/reincatalyze/data/processed/docking_pred/2023-Apr-26-1657_maxeplen10_maxtrainstep1000_exh32_gamma099_lrac9e-4_lrcr1e-3/b5f7d4a2d914252a6bbd971338c7ac1ea6a3e46f_ligand_2.pdbqt
 12 12 0 0 0
SMALL
GASTEIGER

@<TRIPOS>ATOM
      1  C          5.4420    2.9030   -0.0010 C.3     1  UNL1        0.1270
      2  C          6.2280    3.8750    0.7950 C.2     1  UNL1        0.3030
      3  O          6.9050    4.7750    0.2400 O.2     1  UNL1       -0.2520
      4  O          6.2370    3.8160    2.1800 O.3     1  UNL1       -0.4810
      5  H          5.3490    3.8450    2.6880 H       1  UNL1        0.2960
      6  C          4.9220    1.8470    0.9250 C.3     1  UNL1        0.0470
      7  C          5.7170    0.6200    0.9340 C.2     1  UNL1       -0.0470
      8  C          6.4080    0.2220   -0.1870 C.2     1  UNL1        0.0040
      9  C          5.7700   -0.1380    2.0810 C.2     1  UNL1        0.0040
     10  C          7.1470   -0.9600   -0.1070 C.2     1  UNL1        0.0000
     11  C          6.5010   -1.3070    2.1580 C.2     1  UNL1        0.0000
     12  C          7.1950   -1.7130    1.0390 C.2     1  UNL1        0.0000
@<TRIPOS>BOND
     1     8    10    1
     2     8     7    2
     3    10    12    2
     4     1     2    1
     5     1     6    1
     6     3     2    2
     7     2     4    1
     8     6     7    1
     9     7     9    1
    10    12    11    1
    11     9    11    2
    12     4     5    1
