@<TRIPOS>MOLECULE
/home/cewinharhar/GITHUB/reincatalyze/data/processed/docking_pred/2023-Apr-26-1657_maxeplen10_maxtrainstep1000_exh32_gamma099_lrac9e-4_lrcr1e-3/b5f7d4a2d914252a6bbd971338c7ac1ea6a3e46f_ligand_2.pdbqt
 12 12 0 0 0
SMALL
GASTEIGER

@<TRIPOS>ATOM
      1  C          4.9960    1.7690    0.6950 C.3     1  UNL1        0.1270
      2  C          4.4800    1.1010    1.9130 C.2     1  UNL1        0.3030
      3  O          5.1350    0.1950    2.4850 O.2     1  UNL1       -0.2520
      4  O          3.2570    1.4600    2.4560 O.3     1  UNL1       -0.4810
      5  H          3.1160    2.4190    2.7850 H       1  UNL1        0.2960
      6  C          6.4940    1.7510    0.7470 C.3     1  UNL1        0.0470
      7  C          7.1170    1.0030   -0.3420 C.2     1  UNL1       -0.0470
      8  C          6.3960    0.0820   -1.0660 C.2     1  UNL1        0.0040
      9  C          8.4410    1.2300   -0.6420 C.2     1  UNL1        0.0040
     10  C          7.0560   -0.5960   -2.0940 C.2     1  UNL1        0.0000
     11  C          9.0920    0.5590   -1.6580 C.2     1  UNL1        0.0000
     12  C          8.3770   -0.3650   -2.3870 C.2     1  UNL1        0.0000
@<TRIPOS>BOND
     1    12    10    2
     2    12    11    1
     3    10     8    1
     4    11     9    2
     5     8     7    2
     6     9     7    1
     7     7     6    1
     8     1     6    1
     9     1     2    1
    10     2     4    1
    11     2     3    2
    12     4     5    1
