@<TRIPOS>MOLECULE
/home/cewinharhar/GITHUB/reincatalyze/data/processed/docking_pred/2023-Apr-26-1657_maxeplen10_maxtrainstep1000_exh32_gamma099_lrac9e-4_lrcr1e-3/b5f7d4a2d914252a6bbd971338c7ac1ea6a3e46f_ligand_2.pdbqt
 12 12 0 0 0
SMALL
GASTEIGER

@<TRIPOS>ATOM
      1  C          8.4340   -0.6010   -2.1650 C.3     1  UNL1        0.1270
      2  C          8.4660   -1.8860   -2.9020 C.2     1  UNL1        0.3030
      3  O          9.5440   -2.5040   -3.0860 O.2     1  UNL1       -0.2520
      4  O          7.3030   -2.4430   -3.4090 O.3     1  UNL1       -0.4810
      5  H          7.0020   -3.3630   -3.0770 H       1  UNL1        0.2960
      6  C          7.0180   -0.1130   -2.1310 C.3     1  UNL1        0.0470
      7  C          6.4800    0.0540   -0.7820 C.2     1  UNL1       -0.0470
      8  C          5.8490    1.2210   -0.4150 C.2     1  UNL1        0.0040
      9  C          6.6080   -0.9730    0.1240 C.2     1  UNL1        0.0040
     10  C          5.3580    1.3100    0.8890 C.2     1  UNL1        0.0000
     11  C          6.1220   -0.8830    1.4130 C.2     1  UNL1        0.0000
     12  C          5.4900    0.2820    1.7890 C.2     1  UNL1        0.0000
@<TRIPOS>BOND
     1     4     5    1
     2     4     2    1
     3     3     2    2
     4     2     1    1
     5     1     6    1
     6     6     7    1
     7     7     8    2
     8     7     9    1
     9     8    10    1
    10     9    11    2
    11    10    12    2
    12    11    12    1
