@<TRIPOS>MOLECULE
/home/cewinharhar/GITHUB/reincatalyze/data/processed/docking_pred/2023-Apr-26-1657_maxeplen10_maxtrainstep1000_exh32_gamma099_lrac9e-4_lrcr1e-3/b5f7d4a2d914252a6bbd971338c7ac1ea6a3e46f_ligand_2.pdbqt
 12 12 0 0 0
SMALL
GASTEIGER

@<TRIPOS>ATOM
      1  C          8.4120   -0.5370   -2.2600 C.3     1  UNL1        0.1270
      2  C          8.4600   -1.8540   -2.9370 C.2     1  UNL1        0.3030
      3  O          9.5460   -2.4660   -3.0960 O.2     1  UNL1       -0.2520
      4  O          7.3030   -2.4490   -3.4150 O.3     1  UNL1       -0.4810
      5  H          7.2400   -2.6950   -4.4070 H       1  UNL1        0.2960
      6  C          6.9830   -0.0930   -2.1940 C.3     1  UNL1        0.0470
      7  C          6.4710    0.0620   -0.8330 C.2     1  UNL1       -0.0470
      8  C          6.5990   -0.9530    0.0860 C.2     1  UNL1        0.0040
      9  C          5.8580    1.2410   -0.4770 C.2     1  UNL1        0.0040
     10  C          6.0880   -0.7350    1.3680 C.2     1  UNL1        0.0000
     11  C          5.3530    1.4550    0.7900 C.2     1  UNL1        0.0000
     12  C          5.4760    0.4430    1.7170 C.2     1  UNL1        0.0000
@<TRIPOS>BOND
     1     5     4    1
     2     4     2    1
     3     3     2    2
     4     2     1    1
     5     1     6    1
     6     6     7    1
     7     7     9    2
     8     7     8    1
     9     9    11    1
    10     8    10    2
    11    11    12    2
    12    10    12    1
