@<TRIPOS>MOLECULE
/home/cewinharhar/GITHUB/reincatalyze/data/processed/docking_pred/2023-Apr-26-1657_maxeplen10_maxtrainstep1000_exh32_gamma099_lrac9e-4_lrcr1e-3/b5f7d4a2d914252a6bbd971338c7ac1ea6a3e46f_ligand_2.pdbqt
 12 12 0 0 0
SMALL
GASTEIGER

@<TRIPOS>ATOM
      1  C          7.9980   -0.7740   -2.0850 C.3     1  UNL1        0.1270
      2  C          8.2850   -1.9540   -2.9350 C.2     1  UNL1        0.3030
      3  O          9.4540   -2.3930   -3.0640 O.2     1  UNL1       -0.2520
      4  O          7.2670   -2.6050   -3.6130 O.3     1  UNL1       -0.4810
      5  H          7.4250   -2.9170   -4.5750 H       1  UNL1        0.2960
      6  C          7.3680   -1.2530   -0.8120 C.3     1  UNL1        0.0470
      7  C          6.5370   -0.2520   -0.1460 C.2     1  UNL1       -0.0470
      8  C          6.1170   -0.4360    1.1500 C.2     1  UNL1        0.0040
      9  C          6.1780    0.8860   -0.8320 C.2     1  UNL1        0.0040
     10  C          5.3260    0.5620    1.7240 C.2     1  UNL1        0.0000
     11  C          5.3960    1.8720   -0.2640 C.2     1  UNL1        0.0000
     12  C          4.9700    1.6950    1.0350 C.2     1  UNL1        0.0000
@<TRIPOS>BOND
     1     5     4    1
     2     4     2    1
     3     3     2    2
     4     2     1    1
     5     1     6    1
     6     9    11    1
     7     9     7    2
     8     6     7    1
     9    11    12    2
    10     7     8    1
    11    12    10    1
    12     8    10    2
