MODEL 1
REMARK VINA RESULT:      -7.4      0.000      0.000
REMARK SMILES O=C(O)CCc1ccccc1
REMARK SMILES IDX 4 1 2 2 1 3 3 4 5 6 6 7 7 8 11 9 8 10 10 11 9 12
REMARK H PARENT 3 5
REMARK Flexibility Score: inf
ROOT
ATOM      1  C   UNL     1       8.434  -0.601  -2.165  1.00  0.00     0.127 C 
ENDROOT
BRANCH   1   2
ATOM      2  C   UNL     1       8.466  -1.886  -2.902  1.00  0.00     0.303 C 
ATOM      3  O   UNL     1       9.544  -2.504  -3.086  1.00  0.00    -0.252 OA
BRANCH   2   4
ATOM      4  O   UNL     1       7.303  -2.443  -3.409  1.00  0.00    -0.481 OA
ATOM      5  H   UNL     1       7.002  -3.363  -3.077  1.00  0.00     0.296 HD
ENDBRANCH   2   4
ENDBRANCH   1   2
BRANCH   1   6
ATOM      6  C   UNL     1       7.018  -0.113  -2.131  1.00  0.00     0.047 C 
BRANCH   6   7
ATOM      7  C   UNL     1       6.480   0.054  -0.782  1.00  0.00    -0.047 A 
ATOM      8  C   UNL     1       5.849   1.221  -0.415  1.00  0.00     0.004 A 
ATOM      9  C   UNL     1       6.608  -0.973   0.124  1.00  0.00     0.004 A 
ATOM     10  C   UNL     1       5.358   1.310   0.889  1.00  0.00     0.000 A 
ATOM     11  C   UNL     1       6.122  -0.883   1.413  1.00  0.00     0.000 A 
ATOM     12  C   UNL     1       5.490   0.282   1.789  1.00  0.00     0.000 A 
ENDBRANCH   6   7
ENDBRANCH   1   6
TORSDOF 4
ENDMDL
MODEL 2
REMARK VINA RESULT:      -7.4      0.104      1.440
REMARK SMILES O=C(O)CCc1ccccc1
REMARK SMILES IDX 4 1 2 2 1 3 3 4 5 6 6 7 7 8 11 9 8 10 10 11 9 12
REMARK H PARENT 3 5
REMARK Flexibility Score: inf
ROOT
ATOM      1  C   UNL     1       8.412  -0.537  -2.260  1.00  0.00     0.127 C 
ENDROOT
BRANCH   1   2
ATOM      2  C   UNL     1       8.460  -1.854  -2.937  1.00  0.00     0.303 C 
ATOM      3  O   UNL     1       9.546  -2.466  -3.096  1.00  0.00    -0.252 OA
BRANCH   2   4
ATOM      4  O   UNL     1       7.303  -2.449  -3.415  1.00  0.00    -0.481 OA
ATOM      5  H   UNL     1       7.240  -2.695  -4.407  1.00  0.00     0.296 HD
ENDBRANCH   2   4
ENDBRANCH   1   2
BRANCH   1   6
ATOM      6  C   UNL     1       6.983  -0.093  -2.194  1.00  0.00     0.047 C 
BRANCH   6   7
ATOM      7  C   UNL     1       6.471   0.062  -0.833  1.00  0.00    -0.047 A 
ATOM      8  C   UNL     1       6.599  -0.953   0.086  1.00  0.00     0.004 A 
ATOM      9  C   UNL     1       5.858   1.241  -0.477  1.00  0.00     0.004 A 
ATOM     10  C   UNL     1       6.088  -0.735   1.368  1.00  0.00     0.000 A 
ATOM     11  C   UNL     1       5.353   1.455   0.790  1.00  0.00     0.000 A 
ATOM     12  C   UNL     1       5.476   0.443   1.717  1.00  0.00     0.000 A 
ENDBRANCH   6   7
ENDBRANCH   1   6
TORSDOF 4
ENDMDL
MODEL 3
REMARK VINA RESULT:      -7.2      0.613      1.620
REMARK SMILES O=C(O)CCc1ccccc1
REMARK SMILES IDX 4 1 2 2 1 3 3 4 5 6 6 7 7 8 11 9 8 10 10 11 9 12
REMARK H PARENT 3 5
REMARK Flexibility Score: inf
ROOT
ATOM      1  C   UNL     1       7.998  -0.774  -2.085  1.00  0.00     0.127 C 
ENDROOT
BRANCH   1   2
ATOM      2  C   UNL     1       8.285  -1.954  -2.935  1.00  0.00     0.303 C 
ATOM      3  O   UNL     1       9.454  -2.393  -3.064  1.00  0.00    -0.252 OA
BRANCH   2   4
ATOM      4  O   UNL     1       7.267  -2.605  -3.613  1.00  0.00    -0.481 OA
ATOM      5  H   UNL     1       7.425  -2.917  -4.575  1.00  0.00     0.296 HD
ENDBRANCH   2   4
ENDBRANCH   1   2
BRANCH   1   6
ATOM      6  C   UNL     1       7.368  -1.253  -0.812  1.00  0.00     0.047 C 
BRANCH   6   7
ATOM      7  C   UNL     1       6.537  -0.252  -0.146  1.00  0.00    -0.047 A 
ATOM      8  C   UNL     1       6.117  -0.436   1.150  1.00  0.00     0.004 A 
ATOM      9  C   UNL     1       6.178   0.886  -0.832  1.00  0.00     0.004 A 
ATOM     10  C   UNL     1       5.326   0.562   1.724  1.00  0.00     0.000 A 
ATOM     11  C   UNL     1       5.396   1.872  -0.264  1.00  0.00     0.000 A 
ATOM     12  C   UNL     1       4.970   1.695   1.035  1.00  0.00     0.000 A 
ENDBRANCH   6   7
ENDBRANCH   1   6
TORSDOF 4
ENDMDL
MODEL 4
REMARK VINA RESULT:      -6.8      3.374      5.078
REMARK SMILES O=C(O)CCc1ccccc1
REMARK SMILES IDX 4 1 2 2 1 3 3 4 5 6 6 7 7 8 11 9 8 10 10 11 9 12
REMARK H PARENT 3 5
REMARK Flexibility Score: inf
ROOT
ATOM      1  C   UNL     1       4.996   1.769   0.695  1.00  0.00     0.127 C 
ENDROOT
BRANCH   1   2
ATOM      2  C   UNL     1       4.480   1.101   1.913  1.00  0.00     0.303 C 
ATOM      3  O   UNL     1       5.135   0.195   2.485  1.00  0.00    -0.252 OA
BRANCH   2   4
ATOM      4  O   UNL     1       3.257   1.460   2.456  1.00  0.00    -0.481 OA
ATOM      5  H   UNL     1       3.116   2.419   2.785  1.00  0.00     0.296 HD
ENDBRANCH   2   4
ENDBRANCH   1   2
BRANCH   1   6
ATOM      6  C   UNL     1       6.494   1.751   0.747  1.00  0.00     0.047 C 
BRANCH   6   7
ATOM      7  C   UNL     1       7.117   1.003  -0.342  1.00  0.00    -0.047 A 
ATOM      8  C   UNL     1       6.396   0.082  -1.066  1.00  0.00     0.004 A 
ATOM      9  C   UNL     1       8.441   1.230  -0.642  1.00  0.00     0.004 A 
ATOM     10  C   UNL     1       7.056  -0.596  -2.094  1.00  0.00     0.000 A 
ATOM     11  C   UNL     1       9.092   0.559  -1.658  1.00  0.00     0.000 A 
ATOM     12  C   UNL     1       8.377  -0.365  -2.387  1.00  0.00     0.000 A 
ENDBRANCH   6   7
ENDBRANCH   1   6
TORSDOF 4
ENDMDL
MODEL 5
REMARK VINA RESULT:      -6.7      3.826      4.918
REMARK SMILES O=C(O)CCc1ccccc1
REMARK SMILES IDX 4 1 2 2 1 3 3 4 5 6 6 7 7 8 11 9 8 10 10 11 9 12
REMARK H PARENT 3 5
REMARK Flexibility Score: inf
ROOT
ATOM      1  C   UNL     1       5.442   2.903  -0.001  1.00  0.00     0.127 C 
ENDROOT
BRANCH   1   2
ATOM      2  C   UNL     1       6.228   3.875   0.795  1.00  0.00     0.303 C 
ATOM      3  O   UNL     1       6.905   4.775   0.240  1.00  0.00    -0.252 OA
BRANCH   2   4
ATOM      4  O   UNL     1       6.237   3.816   2.180  1.00  0.00    -0.481 OA
ATOM      5  H   UNL     1       5.349   3.845   2.688  1.00  0.00     0.296 HD
ENDBRANCH   2   4
ENDBRANCH   1   2
BRANCH   1   6
ATOM      6  C   UNL     1       4.922   1.847   0.925  1.00  0.00     0.047 C 
BRANCH   6   7
ATOM      7  C   UNL     1       5.717   0.620   0.934  1.00  0.00    -0.047 A 
ATOM      8  C   UNL     1       6.408   0.222  -0.187  1.00  0.00     0.004 A 
ATOM      9  C   UNL     1       5.770  -0.138   2.081  1.00  0.00     0.004 A 
ATOM     10  C   UNL     1       7.147  -0.960  -0.107  1.00  0.00     0.000 A 
ATOM     11  C   UNL     1       6.501  -1.307   2.158  1.00  0.00     0.000 A 
ATOM     12  C   UNL     1       7.195  -1.713   1.039  1.00  0.00     0.000 A 
ENDBRANCH   6   7
ENDBRANCH   1   6
TORSDOF 4
ENDMDL
