MODEL 1
REMARK VINA RESULT:      -7.2      0.000      0.000
REMARK SMILES O=C(O)CCc1ccccc1
REMARK SMILES IDX 4 1 2 2 1 3 3 4 5 6 6 7 7 8 11 9 8 10 10 11 9 12
REMARK H PARENT 3 5
REMARK Flexibility Score: inf
ROOT
ATOM      1  C   UNL     1       8.460  -0.531  -2.380  1.00  0.00     0.127 C 
ENDROOT
BRANCH   1   2
ATOM      2  C   UNL     1       8.495  -1.884  -2.983  1.00  0.00     0.303 C 
ATOM      3  O   UNL     1       9.576  -2.511  -3.112  1.00  0.00    -0.252 OA
BRANCH   2   4
ATOM      4  O   UNL     1       7.333  -2.497  -3.423  1.00  0.00    -0.481 OA
ATOM      5  H   UNL     1       6.895  -2.176  -4.291  1.00  0.00     0.296 HD
ENDBRANCH   2   4
ENDBRANCH   1   2
BRANCH   1   6
ATOM      6  C   UNL     1       7.026  -0.142  -2.181  1.00  0.00     0.047 C 
BRANCH   6   7
ATOM      7  C   UNL     1       6.692   0.210  -0.802  1.00  0.00    -0.047 A 
ATOM      8  C   UNL     1       5.750   1.175  -0.531  1.00  0.00     0.004 A 
ATOM      9  C   UNL     1       7.331  -0.437   0.230  1.00  0.00     0.004 A 
ATOM     10  C   UNL     1       5.480   1.460   0.809  1.00  0.00     0.000 A 
ATOM     11  C   UNL     1       7.063  -0.155   1.555  1.00  0.00     0.000 A 
ATOM     12  C   UNL     1       6.121   0.811   1.835  1.00  0.00     0.000 A 
ENDBRANCH   6   7
ENDBRANCH   1   6
TORSDOF 4
ENDMDL
MODEL 2
REMARK VINA RESULT:      -7.2      0.078      1.438
REMARK SMILES O=C(O)CCc1ccccc1
REMARK SMILES IDX 4 1 2 2 1 3 3 4 5 6 6 7 7 8 11 9 8 10 10 11 9 12
REMARK H PARENT 3 5
REMARK Flexibility Score: inf
ROOT
ATOM      1  C   UNL     1       8.514  -0.509  -2.443  1.00  0.00     0.127 C 
ENDROOT
BRANCH   1   2
ATOM      2  C   UNL     1       8.529  -1.884  -2.995  1.00  0.00     0.303 C 
ATOM      3  O   UNL     1       9.599  -2.534  -3.093  1.00  0.00    -0.252 OA
BRANCH   2   4
ATOM      4  O   UNL     1       7.359  -2.491  -3.421  1.00  0.00    -0.481 OA
ATOM      5  H   UNL     1       6.458  -2.066  -3.184  1.00  0.00     0.296 HD
ENDBRANCH   2   4
ENDBRANCH   1   2
BRANCH   1   6
ATOM      6  C   UNL     1       7.087  -0.101  -2.235  1.00  0.00     0.047 C 
BRANCH   6   7
ATOM      7  C   UNL     1       6.752   0.201  -0.844  1.00  0.00    -0.047 A 
ATOM      8  C   UNL     1       7.391  -0.443   0.189  1.00  0.00     0.004 A 
ATOM      9  C   UNL     1       5.787   1.144  -0.576  1.00  0.00     0.004 A 
ATOM     10  C   UNL     1       7.022  -0.103   1.493  1.00  0.00     0.000 A 
ATOM     11  C   UNL     1       5.423   1.479   0.713  1.00  0.00     0.000 A 
ATOM     12  C   UNL     1       6.058   0.837   1.754  1.00  0.00     0.000 A 
ENDBRANCH   6   7
ENDBRANCH   1   6
TORSDOF 4
ENDMDL
MODEL 3
REMARK VINA RESULT:      -6.9      3.343      5.047
REMARK SMILES O=C(O)CCc1ccccc1
REMARK SMILES IDX 4 1 2 2 1 3 3 4 5 6 6 7 7 8 11 9 8 10 10 11 9 12
REMARK H PARENT 3 5
REMARK Flexibility Score: inf
ROOT
ATOM      1  C   UNL     1       5.001   1.794   0.695  1.00  0.00     0.127 C 
ENDROOT
BRANCH   1   2
ATOM      2  C   UNL     1       4.543   1.112   1.928  1.00  0.00     0.303 C 
ATOM      3  O   UNL     1       3.423   1.369   2.436  1.00  0.00    -0.252 OA
BRANCH   2   4
ATOM      4  O   UNL     1       5.340   0.170   2.557  1.00  0.00    -0.481 OA
ATOM      5  H   UNL     1       6.350   0.328   2.618  1.00  0.00     0.296 HD
ENDBRANCH   2   4
ENDBRANCH   1   2
BRANCH   1   6
ATOM      6  C   UNL     1       6.499   1.831   0.707  1.00  0.00     0.047 C 
BRANCH   6   7
ATOM      7  C   UNL     1       7.121   1.049  -0.361  1.00  0.00    -0.047 A 
ATOM      8  C   UNL     1       6.387   0.143  -1.089  1.00  0.00     0.004 A 
ATOM      9  C   UNL     1       8.457   1.231  -0.634  1.00  0.00     0.004 A 
ATOM     10  C   UNL     1       7.046  -0.568  -2.094  1.00  0.00     0.000 A 
ATOM     11  C   UNL     1       9.108   0.527  -1.628  1.00  0.00     0.000 A 
ATOM     12  C   UNL     1       8.379  -0.384  -2.362  1.00  0.00     0.000 A 
ENDBRANCH   6   7
ENDBRANCH   1   6
TORSDOF 4
ENDMDL
MODEL 4
REMARK VINA RESULT:      -6.9      3.330      5.103
REMARK SMILES O=C(O)CCc1ccccc1
REMARK SMILES IDX 4 1 2 2 1 3 3 4 5 6 6 7 7 8 11 9 8 10 10 11 9 12
REMARK H PARENT 3 5
REMARK Flexibility Score: inf
ROOT
ATOM      1  C   UNL     1       5.013   1.770   0.670  1.00  0.00     0.127 C 
ENDROOT
BRANCH   1   2
ATOM      2  C   UNL     1       4.562   1.098   1.912  1.00  0.00     0.303 C 
ATOM      3  O   UNL     1       3.436   1.342   2.411  1.00  0.00    -0.252 OA
BRANCH   2   4
ATOM      4  O   UNL     1       5.375   0.180   2.557  1.00  0.00    -0.481 OA
ATOM      5  H   UNL     1       5.210  -0.821   2.415  1.00  0.00     0.296 HD
ENDBRANCH   2   4
ENDBRANCH   1   2
BRANCH   1   6
ATOM      6  C   UNL     1       6.510   1.833   0.686  1.00  0.00     0.047 C 
BRANCH   6   7
ATOM      7  C   UNL     1       7.149   1.058  -0.376  1.00  0.00    -0.047 A 
ATOM      8  C   UNL     1       8.491   1.201  -0.641  1.00  0.00     0.004 A 
ATOM      9  C   UNL     1       6.392   0.175  -1.112  1.00  0.00     0.004 A 
ATOM     10  C   UNL     1       9.036   0.428  -1.669  1.00  0.00     0.000 A 
ATOM     11  C   UNL     1       6.932  -0.588  -2.128  1.00  0.00     0.000 A 
ATOM     12  C   UNL     1       8.276  -0.450  -2.400  1.00  0.00     0.000 A 
ENDBRANCH   6   7
ENDBRANCH   1   6
TORSDOF 4
ENDMDL
MODEL 5
REMARK VINA RESULT:      -6.6      3.728      5.127
REMARK SMILES O=C(O)CCc1ccccc1
REMARK SMILES IDX 4 1 2 2 1 3 3 4 5 6 6 7 7 8 11 9 8 10 10 11 9 12
REMARK H PARENT 3 5
REMARK Flexibility Score: inf
ROOT
ATOM      1  C   UNL     1       5.320   2.931   0.122  1.00  0.00     0.127 C 
ENDROOT
BRANCH   1   2
ATOM      2  C   UNL     1       6.204   3.869   0.853  1.00  0.00     0.303 C 
ATOM      3  O   UNL     1       6.860   4.752   0.246  1.00  0.00    -0.252 OA
BRANCH   2   4
ATOM      4  O   UNL     1       6.331   3.798   2.231  1.00  0.00    -0.481 OA
ATOM      5  H   UNL     1       6.700   4.604   2.742  1.00  0.00     0.296 HD
ENDBRANCH   2   4
ENDBRANCH   1   2
BRANCH   1   6
ATOM      6  C   UNL     1       5.330   1.617   0.843  1.00  0.00     0.047 C 
BRANCH   6   7
ATOM      7  C   UNL     1       6.257   0.637   0.281  1.00  0.00    -0.047 A 
ATOM      8  C   UNL     1       7.059  -0.123   1.099  1.00  0.00     0.004 A 
ATOM      9  C   UNL     1       6.319   0.479  -1.085  1.00  0.00     0.004 A 
ATOM     10  C   UNL     1       7.921  -1.040   0.493  1.00  0.00     0.000 A 
ATOM     11  C   UNL     1       7.171  -0.429  -1.682  1.00  0.00     0.000 A 
ATOM     12  C   UNL     1       7.979  -1.193  -0.869  1.00  0.00     0.000 A 
ENDBRANCH   6   7
ENDBRANCH   1   6
TORSDOF 4
ENDMDL
