@<TRIPOS>MOLECULE
/home/cewinharhar/GITHUB/reincatalyze/data/processed/docking_pred/2023-Apr-26-1657_maxeplen10_maxtrainstep1000_exh32_gamma099_lrac9e-4_lrcr1e-3/b658f69152bbaa0d4df6d0fc1d77222c9f34aa3c_ligand_2.pdbqt
 12 12 0 0 0
SMALL
GASTEIGER

@<TRIPOS>ATOM
      1  C          5.3200    2.9310    0.1220 C.3     1  UNL1        0.1270
      2  C          6.2040    3.8690    0.8530 C.2     1  UNL1        0.3030
      3  O          6.8600    4.7520    0.2460 O.2     1  UNL1       -0.2520
      4  O          6.3310    3.7980    2.2310 O.3     1  UNL1       -0.4810
      5  H          6.7000    4.6040    2.7420 H       1  UNL1        0.2960
      6  C          5.3300    1.6170    0.8430 C.3     1  UNL1        0.0470
      7  C          6.2570    0.6370    0.2810 C.2     1  UNL1       -0.0470
      8  C          7.0590   -0.1230    1.0990 C.2     1  UNL1        0.0040
      9  C          6.3190    0.4790   -1.0850 C.2     1  UNL1        0.0040
     10  C          7.9210   -1.0400    0.4930 C.2     1  UNL1        0.0000
     11  C          7.1710   -0.4290   -1.6820 C.2     1  UNL1        0.0000
     12  C          7.9790   -1.1930   -0.8690 C.2     1  UNL1        0.0000
@<TRIPOS>BOND
     1    11     9    1
     2    11    12    2
     3     9     7    2
     4    12    10    1
     5     1     6    1
     6     1     2    1
     7     3     2    2
     8     7     6    1
     9     7     8    1
    10    10     8    2
    11     2     4    1
    12     4     5    1
