@<TRIPOS>MOLECULE
/home/cewinharhar/GITHUB/reincatalyze/data/processed/docking_pred/2023-Apr-26-1657_maxeplen10_maxtrainstep1000_exh32_gamma099_lrac9e-4_lrcr1e-3/b658f69152bbaa0d4df6d0fc1d77222c9f34aa3c_ligand_2.pdbqt
 12 12 0 0 0
SMALL
GASTEIGER

@<TRIPOS>ATOM
      1  C          5.0130    1.7700    0.6700 C.3     1  UNL1        0.1270
      2  C          4.5620    1.0980    1.9120 C.2     1  UNL1        0.3030
      3  O          3.4360    1.3420    2.4110 O.2     1  UNL1       -0.2520
      4  O          5.3750    0.1800    2.5570 O.3     1  UNL1       -0.4810
      5  H          5.2100   -0.8210    2.4150 H       1  UNL1        0.2960
      6  C          6.5100    1.8330    0.6860 C.3     1  UNL1        0.0470
      7  C          7.1490    1.0580   -0.3760 C.2     1  UNL1       -0.0470
      8  C          8.4910    1.2010   -0.6410 C.2     1  UNL1        0.0040
      9  C          6.3920    0.1750   -1.1120 C.2     1  UNL1        0.0040
     10  C          9.0360    0.4280   -1.6690 C.2     1  UNL1        0.0000
     11  C          6.9320   -0.5880   -2.1280 C.2     1  UNL1        0.0000
     12  C          8.2760   -0.4500   -2.4000 C.2     1  UNL1        0.0000
@<TRIPOS>BOND
     1    12    11    2
     2    12    10    1
     3    11     9    1
     4    10     8    2
     5     9     7    2
     6     8     7    1
     7     7     6    1
     8     1     6    1
     9     1     2    1
    10     2     3    2
    11     2     4    1
    12     5     4    1
