@<TRIPOS>MOLECULE
/home/cewinharhar/GITHUB/reincatalyze/data/processed/docking_pred/2023-Apr-26-1657_maxeplen10_maxtrainstep1000_exh32_gamma099_lrac9e-4_lrcr1e-3/b658f69152bbaa0d4df6d0fc1d77222c9f34aa3c_ligand_2.pdbqt
 12 12 0 0 0
SMALL
GASTEIGER

@<TRIPOS>ATOM
      1  C          5.0010    1.7940    0.6950 C.3     1  UNL1        0.1270
      2  C          4.5430    1.1120    1.9280 C.2     1  UNL1        0.3030
      3  O          3.4230    1.3690    2.4360 O.2     1  UNL1       -0.2520
      4  O          5.3400    0.1700    2.5570 O.3     1  UNL1       -0.4810
      5  H          6.3500    0.3280    2.6180 H       1  UNL1        0.2960
      6  C          6.4990    1.8310    0.7070 C.3     1  UNL1        0.0470
      7  C          7.1210    1.0490   -0.3610 C.2     1  UNL1       -0.0470
      8  C          6.3870    0.1430   -1.0890 C.2     1  UNL1        0.0040
      9  C          8.4570    1.2310   -0.6340 C.2     1  UNL1        0.0040
     10  C          7.0460   -0.5680   -2.0940 C.2     1  UNL1        0.0000
     11  C          9.1080    0.5270   -1.6280 C.2     1  UNL1        0.0000
     12  C          8.3790   -0.3840   -2.3620 C.2     1  UNL1        0.0000
@<TRIPOS>BOND
     1    12    10    2
     2    12    11    1
     3    10     8    1
     4    11     9    2
     5     8     7    2
     6     9     7    1
     7     7     6    1
     8     1     6    1
     9     1     2    1
    10     2     3    2
    11     2     4    1
    12     4     5    1
