@<TRIPOS>MOLECULE
/home/cewinharhar/GITHUB/reincatalyze/data/processed/docking_pred/2023-Apr-26-1657_maxeplen10_maxtrainstep1000_exh32_gamma099_lrac9e-4_lrcr1e-3/b658f69152bbaa0d4df6d0fc1d77222c9f34aa3c_ligand_2.pdbqt
 12 12 0 0 0
SMALL
GASTEIGER

@<TRIPOS>ATOM
      1  C          8.5140   -0.5090   -2.4430 C.3     1  UNL1        0.1270
      2  C          8.5290   -1.8840   -2.9950 C.2     1  UNL1        0.3030
      3  O          9.5990   -2.5340   -3.0930 O.2     1  UNL1       -0.2520
      4  O          7.3590   -2.4910   -3.4210 O.3     1  UNL1       -0.4810
      5  H          6.4580   -2.0660   -3.1840 H       1  UNL1        0.2960
      6  C          7.0870   -0.1010   -2.2350 C.3     1  UNL1        0.0470
      7  C          6.7520    0.2010   -0.8440 C.2     1  UNL1       -0.0470
      8  C          7.3910   -0.4430    0.1890 C.2     1  UNL1        0.0040
      9  C          5.7870    1.1440   -0.5760 C.2     1  UNL1        0.0040
     10  C          7.0220   -0.1030    1.4930 C.2     1  UNL1        0.0000
     11  C          5.4230    1.4790    0.7130 C.2     1  UNL1        0.0000
     12  C          6.0580    0.8370    1.7540 C.2     1  UNL1        0.0000
@<TRIPOS>BOND
     1     4     5    1
     2     4     2    1
     3     3     2    2
     4     2     1    1
     5     1     6    1
     6     6     7    1
     7     7     9    2
     8     7     8    1
     9     9    11    1
    10     8    10    2
    11    11    12    2
    12    10    12    1
