@<TRIPOS>MOLECULE
/home/cewinharhar/GITHUB/reincatalyze/data/processed/docking_pred/2023-Apr-26-1657_maxeplen10_maxtrainstep1000_exh32_gamma099_lrac9e-4_lrcr1e-3/b658f69152bbaa0d4df6d0fc1d77222c9f34aa3c_ligand_2.pdbqt
 12 12 0 0 0
SMALL
GASTEIGER

@<TRIPOS>ATOM
      1  C          8.4600   -0.5310   -2.3800 C.3     1  UNL1        0.1270
      2  C          8.4950   -1.8840   -2.9830 C.2     1  UNL1        0.3030
      3  O          9.5760   -2.5110   -3.1120 O.2     1  UNL1       -0.2520
      4  O          7.3330   -2.4970   -3.4230 O.3     1  UNL1       -0.4810
      5  H          6.8950   -2.1760   -4.2910 H       1  UNL1        0.2960
      6  C          7.0260   -0.1420   -2.1810 C.3     1  UNL1        0.0470
      7  C          6.6920    0.2100   -0.8020 C.2     1  UNL1       -0.0470
      8  C          5.7500    1.1750   -0.5310 C.2     1  UNL1        0.0040
      9  C          7.3310   -0.4370    0.2300 C.2     1  UNL1        0.0040
     10  C          5.4800    1.4600    0.8090 C.2     1  UNL1        0.0000
     11  C          7.0630   -0.1550    1.5550 C.2     1  UNL1        0.0000
     12  C          6.1210    0.8110    1.8350 C.2     1  UNL1        0.0000
@<TRIPOS>BOND
     1     5     4    1
     2     4     2    1
     3     3     2    2
     4     2     1    1
     5     1     6    1
     6     6     7    1
     7     7     8    2
     8     7     9    1
     9     8    10    1
    10     9    11    2
    11    10    12    2
    12    11    12    1
