@<TRIPOS>MOLECULE
/home/cewinharhar/GITHUB/reincatalyze/data/processed/docking_pred/2023-Apr-26-1657_maxeplen10_maxtrainstep1000_exh32_gamma099_lrac9e-4_lrcr1e-3/b8d8050f43b71ccf975db7ed0a80e234855f027b_ligand_2.pdbqt
 12 12 0 0 0
SMALL
GASTEIGER

@<TRIPOS>ATOM
      1  C          8.3930   -0.6340   -2.0710 C.3     1  UNL1        0.1270
      2  C          8.3740   -1.8790   -2.8740 C.2     1  UNL1        0.3030
      3  O          7.2920   -2.4100   -3.2260 O.2     1  UNL1       -0.2520
      4  O          9.5550   -2.4940   -3.2570 O.3     1  UNL1       -0.4810
      5  H         10.1480   -2.0450   -3.9610 H       1  UNL1        0.2960
      6  C          7.0140   -0.0460   -2.0820 C.3     1  UNL1        0.0470
      7  C          6.4410    0.1490   -0.7510 C.2     1  UNL1       -0.0470
      8  C          5.7920    1.3190   -0.4300 C.2     1  UNL1        0.0040
      9  C          6.5550   -0.8550    0.1830 C.2     1  UNL1        0.0040
     10  C          5.2680    1.4360    0.8600 C.2     1  UNL1        0.0000
     11  C          6.0360   -0.7370    1.4570 C.2     1  UNL1        0.0000
     12  C          5.3850    0.4320    1.7880 C.2     1  UNL1        0.0000
@<TRIPOS>BOND
     1     5     4    1
     2     4     2    1
     3     3     2    2
     4     2     1    1
     5     6     1    1
     6     6     7    1
     7     7     8    2
     8     7     9    1
     9     8    10    1
    10     9    11    2
    11    10    12    2
    12    11    12    1
