@<TRIPOS>MOLECULE
/home/cewinharhar/GITHUB/reincatalyze/data/processed/docking_pred/2023-Apr-26-1657_maxeplen10_maxtrainstep1000_exh32_gamma099_lrac9e-4_lrcr1e-3/b8d8050f43b71ccf975db7ed0a80e234855f027b_ligand_2.pdbqt
 12 12 0 0 0
SMALL
GASTEIGER

@<TRIPOS>ATOM
      1  C          7.2230   -1.2020   -2.1550 C.3     1  UNL1        0.1270
      2  C          8.6620   -1.3150   -2.4920 C.2     1  UNL1        0.3030
      3  O          9.4920   -0.4610   -2.0940 O.2     1  UNL1       -0.2520
      4  O          9.1310   -2.3690   -3.2580 O.3     1  UNL1       -0.4810
      5  H          8.5090   -2.8060   -3.9440 H       1  UNL1        0.2960
      6  C          6.9250    0.2320   -1.8390 C.3     1  UNL1        0.0470
      7  C          6.2890    0.4340   -0.5380 C.2     1  UNL1       -0.0470
      8  C          6.4030   -0.5110    0.4550 C.2     1  UNL1        0.0040
      9  C          5.5730    1.5870   -0.3130 C.2     1  UNL1        0.0040
     10  C          5.7710   -0.2510    1.6730 C.2     1  UNL1        0.0000
     11  C          4.9480    1.8420    0.8910 C.2     1  UNL1        0.0000
     12  C          5.0570    0.9000    1.8910 C.2     1  UNL1        0.0000
@<TRIPOS>BOND
     1     5     4    1
     2     4     2    1
     3     2     1    1
     4     2     3    2
     5     1     6    1
     6     6     7    1
     7     7     9    2
     8     7     8    1
     9     9    11    1
    10     8    10    2
    11    11    12    2
    12    10    12    1
