MODEL 1
REMARK VINA RESULT:      -7.3      0.000      0.000
REMARK SMILES O=C(O)CCc1ccccc1
REMARK SMILES IDX 4 1 2 2 1 3 3 4 5 6 6 7 7 8 11 9 8 10 10 11 9 12
REMARK H PARENT 3 5
REMARK Flexibility Score: inf
ROOT
ATOM      1  C   UNL     1       8.344  -0.671  -2.032  1.00  0.00     0.127 C 
ENDROOT
BRANCH   1   2
ATOM      2  C   UNL     1       8.425  -1.900  -2.856  1.00  0.00     0.303 C 
ATOM      3  O   UNL     1       9.521  -2.483  -3.050  1.00  0.00    -0.252 OA
BRANCH   2   4
ATOM      4  O   UNL     1       7.290  -2.442  -3.438  1.00  0.00    -0.481 OA
ATOM      5  H   UNL     1       6.909  -3.318  -3.071  1.00  0.00     0.296 HD
ENDBRANCH   2   4
ENDBRANCH   1   2
BRANCH   1   6
ATOM      6  C   UNL     1       6.921  -0.202  -2.025  1.00  0.00     0.047 C 
BRANCH   6   7
ATOM      7  C   UNL     1       6.386   0.051  -0.688  1.00  0.00    -0.047 A 
ATOM      8  C   UNL     1       6.513  -0.888   0.310  1.00  0.00     0.004 A 
ATOM      9  C   UNL     1       5.751   1.244  -0.434  1.00  0.00     0.004 A 
ATOM     10  C   UNL     1       5.978  -0.578   1.562  1.00  0.00     0.000 A 
ATOM     11  C   UNL     1       5.223   1.549   0.805  1.00  0.00     0.000 A 
ATOM     12  C   UNL     1       5.346   0.614   1.810  1.00  0.00     0.000 A 
ENDBRANCH   6   7
ENDBRANCH   1   6
TORSDOF 4
ENDMDL
MODEL 2
REMARK VINA RESULT:      -7.2      0.157      1.732
REMARK SMILES O=C(O)CCc1ccccc1
REMARK SMILES IDX 4 1 2 2 1 3 3 4 5 6 6 7 7 8 11 9 8 10 10 11 9 12
REMARK H PARENT 3 5
REMARK Flexibility Score: inf
ROOT
ATOM      1  C   UNL     1       8.393  -0.634  -2.071  1.00  0.00     0.127 C 
ENDROOT
BRANCH   1   2
ATOM      2  C   UNL     1       8.374  -1.879  -2.874  1.00  0.00     0.303 C 
ATOM      3  O   UNL     1       7.292  -2.410  -3.226  1.00  0.00    -0.252 OA
BRANCH   2   4
ATOM      4  O   UNL     1       9.555  -2.494  -3.257  1.00  0.00    -0.481 OA
ATOM      5  H   UNL     1      10.148  -2.045  -3.961  1.00  0.00     0.296 HD
ENDBRANCH   2   4
ENDBRANCH   1   2
BRANCH   1   6
ATOM      6  C   UNL     1       7.014  -0.046  -2.082  1.00  0.00     0.047 C 
BRANCH   6   7
ATOM      7  C   UNL     1       6.441   0.149  -0.751  1.00  0.00    -0.047 A 
ATOM      8  C   UNL     1       5.792   1.319  -0.430  1.00  0.00     0.004 A 
ATOM      9  C   UNL     1       6.555  -0.855   0.183  1.00  0.00     0.004 A 
ATOM     10  C   UNL     1       5.268   1.436   0.860  1.00  0.00     0.000 A 
ATOM     11  C   UNL     1       6.036  -0.737   1.457  1.00  0.00     0.000 A 
ATOM     12  C   UNL     1       5.385   0.432   1.788  1.00  0.00     0.000 A 
ENDBRANCH   6   7
ENDBRANCH   1   6
TORSDOF 4
ENDMDL
MODEL 3
REMARK VINA RESULT:      -7.2      0.858      1.034
REMARK SMILES O=C(O)CCc1ccccc1
REMARK SMILES IDX 4 1 2 2 1 3 3 4 5 6 6 7 7 8 11 9 8 10 10 11 9 12
REMARK H PARENT 3 5
REMARK Flexibility Score: inf
ROOT
ATOM      1  C   UNL     1       7.223  -1.202  -2.155  1.00  0.00     0.127 C 
ENDROOT
BRANCH   1   2
ATOM      2  C   UNL     1       8.662  -1.315  -2.492  1.00  0.00     0.303 C 
ATOM      3  O   UNL     1       9.492  -0.461  -2.094  1.00  0.00    -0.252 OA
BRANCH   2   4
ATOM      4  O   UNL     1       9.131  -2.369  -3.258  1.00  0.00    -0.481 OA
ATOM      5  H   UNL     1       8.509  -2.806  -3.944  1.00  0.00     0.296 HD
ENDBRANCH   2   4
ENDBRANCH   1   2
BRANCH   1   6
ATOM      6  C   UNL     1       6.925   0.232  -1.839  1.00  0.00     0.047 C 
BRANCH   6   7
ATOM      7  C   UNL     1       6.289   0.434  -0.538  1.00  0.00    -0.047 A 
ATOM      8  C   UNL     1       6.403  -0.511   0.455  1.00  0.00     0.004 A 
ATOM      9  C   UNL     1       5.573   1.587  -0.313  1.00  0.00     0.004 A 
ATOM     10  C   UNL     1       5.771  -0.251   1.673  1.00  0.00     0.000 A 
ATOM     11  C   UNL     1       4.948   1.842   0.891  1.00  0.00     0.000 A 
ATOM     12  C   UNL     1       5.057   0.900   1.891  1.00  0.00     0.000 A 
ENDBRANCH   6   7
ENDBRANCH   1   6
TORSDOF 4
ENDMDL
MODEL 4
REMARK VINA RESULT:      -6.9      3.374      5.072
REMARK SMILES O=C(O)CCc1ccccc1
REMARK SMILES IDX 4 1 2 2 1 3 3 4 5 6 6 7 7 8 11 9 8 10 10 11 9 12
REMARK H PARENT 3 5
REMARK Flexibility Score: inf
ROOT
ATOM      1  C   UNL     1       5.088   1.723   0.677  1.00  0.00     0.127 C 
ENDROOT
BRANCH   1   2
ATOM      2  C   UNL     1       4.688   1.132   1.976  1.00  0.00     0.303 C 
ATOM      3  O   UNL     1       5.381   0.240   2.526  1.00  0.00    -0.252 OA
BRANCH   2   4
ATOM      4  O   UNL     1       3.535   1.549   2.621  1.00  0.00    -0.481 OA
ATOM      5  H   UNL     1       2.861   2.131   2.116  1.00  0.00     0.296 HD
ENDBRANCH   2   4
ENDBRANCH   1   2
BRANCH   1   6
ATOM      6  C   UNL     1       6.582   1.829   0.648  1.00  0.00     0.047 C 
BRANCH   6   7
ATOM      7  C   UNL     1       7.214   1.031  -0.401  1.00  0.00    -0.047 A 
ATOM      8  C   UNL     1       8.549   1.186  -0.695  1.00  0.00     0.004 A 
ATOM      9  C   UNL     1       6.458   0.115  -1.095  1.00  0.00     0.004 A 
ATOM     10  C   UNL     1       9.086   0.389  -1.709  1.00  0.00     0.000 A 
ATOM     11  C   UNL     1       6.990  -0.671  -2.097  1.00  0.00     0.000 A 
ATOM     12  C   UNL     1       8.327  -0.522  -2.399  1.00  0.00     0.000 A 
ENDBRANCH   6   7
ENDBRANCH   1   6
TORSDOF 4
ENDMDL
MODEL 5
REMARK VINA RESULT:      -6.9      1.942      2.598
REMARK SMILES O=C(O)CCc1ccccc1
REMARK SMILES IDX 4 1 2 2 1 3 3 4 5 6 6 7 7 8 11 9 8 10 10 11 9 12
REMARK H PARENT 3 5
REMARK Flexibility Score: inf
ROOT
ATOM      1  C   UNL     1       8.068   0.309  -2.005  1.00  0.00     0.127 C 
ENDROOT
BRANCH   1   2
ATOM      2  C   UNL     1       9.286   0.349  -1.161  1.00  0.00     0.303 C 
ATOM      3  O   UNL     1       9.412  -0.404  -0.164  1.00  0.00    -0.252 OA
BRANCH   2   4
ATOM      4  O   UNL     1      10.321   1.223  -1.452  1.00  0.00    -0.481 OA
ATOM      5  H   UNL     1      11.099   0.901  -2.034  1.00  0.00     0.296 HD
ENDBRANCH   2   4
ENDBRANCH   1   2
BRANCH   1   6
ATOM      6  C   UNL     1       7.041  -0.533  -1.309  1.00  0.00     0.047 C 
BRANCH   6   7
ATOM      7  C   UNL     1       6.277   0.184  -0.289  1.00  0.00    -0.047 A 
ATOM      8  C   UNL     1       5.732   1.418  -0.557  1.00  0.00     0.004 A 
ATOM      9  C   UNL     1       6.105  -0.392   0.948  1.00  0.00     0.004 A 
ATOM     10  C   UNL     1       5.013   2.044   0.464  1.00  0.00     0.000 A 
ATOM     11  C   UNL     1       5.395   0.229   1.957  1.00  0.00     0.000 A 
ATOM     12  C   UNL     1       4.846   1.466   1.697  1.00  0.00     0.000 A 
ENDBRANCH   6   7
ENDBRANCH   1   6
TORSDOF 4
ENDMDL
