@<TRIPOS>MOLECULE
/home/cewinharhar/GITHUB/reincatalyze/data/processed/docking_pred/2023-Apr-26-1657_maxeplen10_maxtrainstep1000_exh32_gamma099_lrac9e-4_lrcr1e-3/b8d8050f43b71ccf975db7ed0a80e234855f027b_ligand_2.pdbqt
 12 12 0 0 0
SMALL
GASTEIGER

@<TRIPOS>ATOM
      1  C          8.3440   -0.6710   -2.0320 C.3     1  UNL1        0.1270
      2  C          8.4250   -1.9000   -2.8560 C.2     1  UNL1        0.3030
      3  O          9.5210   -2.4830   -3.0500 O.2     1  UNL1       -0.2520
      4  O          7.2900   -2.4420   -3.4380 O.3     1  UNL1       -0.4810
      5  H          6.9090   -3.3180   -3.0710 H       1  UNL1        0.2960
      6  C          6.9210   -0.2020   -2.0250 C.3     1  UNL1        0.0470
      7  C          6.3860    0.0510   -0.6880 C.2     1  UNL1       -0.0470
      8  C          6.5130   -0.8880    0.3100 C.2     1  UNL1        0.0040
      9  C          5.7510    1.2440   -0.4340 C.2     1  UNL1        0.0040
     10  C          5.9780   -0.5780    1.5620 C.2     1  UNL1        0.0000
     11  C          5.2230    1.5490    0.8050 C.2     1  UNL1        0.0000
     12  C          5.3460    0.6140    1.8100 C.2     1  UNL1        0.0000
@<TRIPOS>BOND
     1     4     5    1
     2     4     2    1
     3     3     2    2
     4     2     1    1
     5     1     6    1
     6     6     7    1
     7     7     9    2
     8     7     8    1
     9     9    11    1
    10     8    10    2
    11    11    12    2
    12    10    12    1
