@<TRIPOS>MOLECULE
/home/cewinharhar/GITHUB/reincatalyze/data/processed/docking_pred/2023-Apr-26-1657_maxeplen10_maxtrainstep1000_exh32_gamma099_lrac9e-4_lrcr1e-3/b8d8050f43b71ccf975db7ed0a80e234855f027b_ligand_2.pdbqt
 12 12 0 0 0
SMALL
GASTEIGER

@<TRIPOS>ATOM
      1  C          5.0880    1.7230    0.6770 C.3     1  UNL1        0.1270
      2  C          4.6880    1.1320    1.9760 C.2     1  UNL1        0.3030
      3  O          5.3810    0.2400    2.5260 O.2     1  UNL1       -0.2520
      4  O          3.5350    1.5490    2.6210 O.3     1  UNL1       -0.4810
      5  H          2.8610    2.1310    2.1160 H       1  UNL1        0.2960
      6  C          6.5820    1.8290    0.6480 C.3     1  UNL1        0.0470
      7  C          7.2140    1.0310   -0.4010 C.2     1  UNL1       -0.0470
      8  C          8.5490    1.1860   -0.6950 C.2     1  UNL1        0.0040
      9  C          6.4580    0.1150   -1.0950 C.2     1  UNL1        0.0040
     10  C          9.0860    0.3890   -1.7090 C.2     1  UNL1        0.0000
     11  C          6.9900   -0.6710   -2.0970 C.2     1  UNL1        0.0000
     12  C          8.3270   -0.5220   -2.3990 C.2     1  UNL1        0.0000
@<TRIPOS>BOND
     1    12    11    2
     2    12    10    1
     3    11     9    1
     4    10     8    2
     5     9     7    2
     6     8     7    1
     7     7     6    1
     8     6     1    1
     9     1     2    1
    10     2     3    2
    11     2     4    1
    12     5     4    1
