@<TRIPOS>MOLECULE
/home/cewinharhar/GITHUB/reincatalyze/data/processed/docking_pred/2023-Apr-26-1657_maxeplen10_maxtrainstep1000_exh32_gamma099_lrac9e-4_lrcr1e-3/b8d8050f43b71ccf975db7ed0a80e234855f027b_ligand_2.pdbqt
 12 12 0 0 0
SMALL
GASTEIGER

@<TRIPOS>ATOM
      1  C          8.0680    0.3090   -2.0050 C.3     1  UNL1        0.1270
      2  C          9.2860    0.3490   -1.1610 C.2     1  UNL1        0.3030
      3  O          9.4120   -0.4040   -0.1640 O.2     1  UNL1       -0.2520
      4  O         10.3210    1.2230   -1.4520 O.3     1  UNL1       -0.4810
      5  H         11.0990    0.9010   -2.0340 H       1  UNL1        0.2960
      6  C          7.0410   -0.5330   -1.3090 C.3     1  UNL1        0.0470
      7  C          6.2770    0.1840   -0.2890 C.2     1  UNL1       -0.0470
      8  C          5.7320    1.4180   -0.5570 C.2     1  UNL1        0.0040
      9  C          6.1050   -0.3920    0.9480 C.2     1  UNL1        0.0040
     10  C          5.0130    2.0440    0.4640 C.2     1  UNL1        0.0000
     11  C          5.3950    0.2290    1.9570 C.2     1  UNL1        0.0000
     12  C          4.8460    1.4660    1.6970 C.2     1  UNL1        0.0000
@<TRIPOS>BOND
     1     5     4    1
     2     1     6    1
     3     1     2    1
     4     4     2    1
     5     6     7    1
     6     2     3    2
     7     8     7    2
     8     8    10    1
     9     7     9    1
    10    10    12    2
    11     9    11    2
    12    12    11    1
