@<TRIPOS>MOLECULE
/home/cewinharhar/GITHUB/reincatalyze/data/processed/docking_pred/2023-Apr-26-1657_maxeplen10_maxtrainstep1000_exh32_gamma099_lrac9e-4_lrcr1e-3/b99eeed02ad73e34178363463c07c25b6fbf2bee_ligand_2.pdbqt
 12 12 0 0 0
SMALL
GASTEIGER

@<TRIPOS>ATOM
      1  C          4.9970    1.8230    0.7170 C.3     1  UNL1        0.1270
      2  C          4.4870    1.1190    1.9170 C.2     1  UNL1        0.3030
      3  O          5.1540    0.2100    2.4700 O.2     1  UNL1       -0.2520
      4  O          3.2560    1.4470    2.4630 O.3     1  UNL1       -0.4810
      5  H          2.7260    0.7310    2.9680 H       1  UNL1        0.2960
      6  C          6.4940    1.8000    0.7570 C.3     1  UNL1        0.0470
      7  C          7.1070    1.0480   -0.3370 C.2     1  UNL1       -0.0470
      8  C          6.3610    0.1740   -1.0940 C.2     1  UNL1        0.0040
      9  C          8.4440    1.2240   -0.6060 C.2     1  UNL1        0.0040
     10  C          7.0120   -0.5100   -2.1230 C.2     1  UNL1        0.0000
     11  C          9.0860    0.5470   -1.6240 C.2     1  UNL1        0.0000
     12  C          8.3460   -0.3310   -2.3870 C.2     1  UNL1        0.0000
@<TRIPOS>BOND
     1    12    10    2
     2    12    11    1
     3    10     8    1
     4    11     9    2
     5     8     7    2
     6     9     7    1
     7     7     6    1
     8     1     6    1
     9     1     2    1
    10     2     4    1
    11     2     3    2
    12     4     5    1
