MODEL 1
REMARK VINA RESULT:      -7.3      0.000      0.000
REMARK SMILES O=C(O)CCc1ccccc1
REMARK SMILES IDX 4 1 2 2 1 3 3 4 5 6 6 7 7 8 11 9 8 10 10 11 9 12
REMARK H PARENT 3 5
REMARK Flexibility Score: inf
ROOT
ATOM      1  C   UNL     1       8.405  -0.652  -2.079  1.00  0.00     0.127 C 
ENDROOT
BRANCH   1   2
ATOM      2  C   UNL     1       8.374  -1.898  -2.881  1.00  0.00     0.303 C 
ATOM      3  O   UNL     1       7.287  -2.411  -3.244  1.00  0.00    -0.252 OA
BRANCH   2   4
ATOM      4  O   UNL     1       9.549  -2.533  -3.251  1.00  0.00    -0.481 OA
ATOM      5  H   UNL     1      10.294  -1.989  -3.693  1.00  0.00     0.296 HD
ENDBRANCH   2   4
ENDBRANCH   1   2
BRANCH   1   6
ATOM      6  C   UNL     1       7.028  -0.062  -2.073  1.00  0.00     0.047 C 
BRANCH   6   7
ATOM      7  C   UNL     1       6.459   0.106  -0.737  1.00  0.00    -0.047 A 
ATOM      8  C   UNL     1       5.806   1.266  -0.391  1.00  0.00     0.004 A 
ATOM      9  C   UNL     1       6.580  -0.916   0.177  1.00  0.00     0.004 A 
ATOM     10  C   UNL     1       5.286   1.356   0.902  1.00  0.00     0.000 A 
ATOM     11  C   UNL     1       6.065  -0.824   1.455  1.00  0.00     0.000 A 
ATOM     12  C   UNL     1       5.411   0.335   1.810  1.00  0.00     0.000 A 
ENDBRANCH   6   7
ENDBRANCH   1   6
TORSDOF 4
ENDMDL
MODEL 2
REMARK VINA RESULT:      -7.3      0.053      1.437
REMARK SMILES O=C(O)CCc1ccccc1
REMARK SMILES IDX 4 1 2 2 1 3 3 4 5 6 6 7 7 8 11 9 8 10 10 11 9 12
REMARK H PARENT 3 5
REMARK Flexibility Score: inf
ROOT
ATOM      1  C   UNL     1       8.414  -0.618  -2.140  1.00  0.00     0.127 C 
ENDROOT
BRANCH   1   2
ATOM      2  C   UNL     1       8.384  -1.890  -2.901  1.00  0.00     0.303 C 
ATOM      3  O   UNL     1       7.297  -2.420  -3.239  1.00  0.00    -0.252 OA
BRANCH   2   4
ATOM      4  O   UNL     1       9.559  -2.530  -3.259  1.00  0.00    -0.481 OA
ATOM      5  H   UNL     1      10.285  -2.679  -2.552  1.00  0.00     0.296 HD
ENDBRANCH   2   4
ENDBRANCH   1   2
BRANCH   1   6
ATOM      6  C   UNL     1       7.024  -0.060  -2.101  1.00  0.00     0.047 C 
BRANCH   6   7
ATOM      7  C   UNL     1       6.474   0.072  -0.753  1.00  0.00    -0.047 A 
ATOM      8  C   UNL     1       6.601  -0.948   0.161  1.00  0.00     0.004 A 
ATOM      9  C   UNL     1       5.826   1.234  -0.403  1.00  0.00     0.004 A 
ATOM     10  C   UNL     1       6.052  -0.753   1.431  1.00  0.00     0.000 A 
ATOM     11  C   UNL     1       5.284   1.425   0.852  1.00  0.00     0.000 A 
ATOM     12  C   UNL     1       5.406   0.408   1.774  1.00  0.00     0.000 A 
ENDBRANCH   6   7
ENDBRANCH   1   6
TORSDOF 4
ENDMDL
MODEL 3
REMARK VINA RESULT:      -6.8      1.028      1.926
REMARK SMILES O=C(O)CCc1ccccc1
REMARK SMILES IDX 4 1 2 2 1 3 3 4 5 6 6 7 7 8 11 9 8 10 10 11 9 12
REMARK H PARENT 3 5
REMARK Flexibility Score: inf
ROOT
ATOM      1  C   UNL     1       7.335  -1.291  -2.150  1.00  0.00     0.127 C 
ENDROOT
BRANCH   1   2
ATOM      2  C   UNL     1       8.779  -1.392  -2.466  1.00  0.00     0.303 C 
ATOM      3  O   UNL     1       9.235  -2.357  -3.127  1.00  0.00    -0.252 OA
BRANCH   2   4
ATOM      4  O   UNL     1       9.669  -0.419  -2.038  1.00  0.00    -0.481 OA
ATOM      5  H   UNL     1      10.675  -0.591  -2.118  1.00  0.00     0.296 HD
ENDBRANCH   2   4
ENDBRANCH   1   2
BRANCH   1   6
ATOM      6  C   UNL     1       7.167  -1.422  -0.667  1.00  0.00     0.047 C 
BRANCH   6   7
ATOM      7  C   UNL     1       6.411  -0.330  -0.056  1.00  0.00    -0.047 A 
ATOM      8  C   UNL     1       5.954  -0.429   1.238  1.00  0.00     0.004 A 
ATOM      9  C   UNL     1       6.159   0.806  -0.790  1.00  0.00     0.004 A 
ATOM     10  C   UNL     1       5.239   0.653   1.757  1.00  0.00     0.000 A 
ATOM     11  C   UNL     1       5.452   1.874  -0.275  1.00  0.00     0.000 A 
ATOM     12  C   UNL     1       4.990   1.783   1.020  1.00  0.00     0.000 A 
ENDBRANCH   6   7
ENDBRANCH   1   6
TORSDOF 4
ENDMDL
MODEL 4
REMARK VINA RESULT:      -6.8      3.311      5.149
REMARK SMILES O=C(O)CCc1ccccc1
REMARK SMILES IDX 4 1 2 2 1 3 3 4 5 6 6 7 7 8 11 9 8 10 10 11 9 12
REMARK H PARENT 3 5
REMARK Flexibility Score: inf
ROOT
ATOM      1  C   UNL     1       4.997   1.823   0.717  1.00  0.00     0.127 C 
ENDROOT
BRANCH   1   2
ATOM      2  C   UNL     1       4.487   1.119   1.917  1.00  0.00     0.303 C 
ATOM      3  O   UNL     1       5.154   0.210   2.470  1.00  0.00    -0.252 OA
BRANCH   2   4
ATOM      4  O   UNL     1       3.256   1.447   2.463  1.00  0.00    -0.481 OA
ATOM      5  H   UNL     1       2.726   0.731   2.968  1.00  0.00     0.296 HD
ENDBRANCH   2   4
ENDBRANCH   1   2
BRANCH   1   6
ATOM      6  C   UNL     1       6.494   1.800   0.757  1.00  0.00     0.047 C 
BRANCH   6   7
ATOM      7  C   UNL     1       7.107   1.048  -0.337  1.00  0.00    -0.047 A 
ATOM      8  C   UNL     1       6.361   0.174  -1.094  1.00  0.00     0.004 A 
ATOM      9  C   UNL     1       8.444   1.224  -0.606  1.00  0.00     0.004 A 
ATOM     10  C   UNL     1       7.012  -0.510  -2.123  1.00  0.00     0.000 A 
ATOM     11  C   UNL     1       9.086   0.547  -1.624  1.00  0.00     0.000 A 
ATOM     12  C   UNL     1       8.346  -0.331  -2.387  1.00  0.00     0.000 A 
ENDBRANCH   6   7
ENDBRANCH   1   6
TORSDOF 4
ENDMDL
MODEL 5
REMARK VINA RESULT:      -6.7      3.810      4.924
REMARK SMILES O=C(O)CCc1ccccc1
REMARK SMILES IDX 4 1 2 2 1 3 3 4 5 6 6 7 7 8 11 9 8 10 10 11 9 12
REMARK H PARENT 3 5
REMARK Flexibility Score: inf
ROOT
ATOM      1  C   UNL     1       5.423   2.895   0.007  1.00  0.00     0.127 C 
ENDROOT
BRANCH   1   2
ATOM      2  C   UNL     1       6.235   3.869   0.775  1.00  0.00     0.303 C 
ATOM      3  O   UNL     1       6.884   4.775   0.196  1.00  0.00    -0.252 OA
BRANCH   2   4
ATOM      4  O   UNL     1       6.298   3.806   2.158  1.00  0.00    -0.481 OA
ATOM      5  H   UNL     1       5.680   4.403   2.715  1.00  0.00     0.296 HD
ENDBRANCH   2   4
ENDBRANCH   1   2
BRANCH   1   6
ATOM      6  C   UNL     1       4.925   1.847   0.955  1.00  0.00     0.047 C 
BRANCH   6   7
ATOM      7  C   UNL     1       5.714   0.617   0.948  1.00  0.00    -0.047 A 
ATOM      8  C   UNL     1       6.399   0.226  -0.179  1.00  0.00     0.004 A 
ATOM      9  C   UNL     1       5.768  -0.152   2.088  1.00  0.00     0.004 A 
ATOM     10  C   UNL     1       7.133  -0.961  -0.113  1.00  0.00     0.000 A 
ATOM     11  C   UNL     1       6.493  -1.325   2.152  1.00  0.00     0.000 A 
ATOM     12  C   UNL     1       7.182  -1.724   1.027  1.00  0.00     0.000 A 
ENDBRANCH   6   7
ENDBRANCH   1   6
TORSDOF 4
ENDMDL
