@<TRIPOS>MOLECULE
/home/cewinharhar/GITHUB/reincatalyze/data/processed/docking_pred/2023-Apr-26-1657_maxeplen10_maxtrainstep1000_exh32_gamma099_lrac9e-4_lrcr1e-3/b99eeed02ad73e34178363463c07c25b6fbf2bee_ligand_2.pdbqt
 12 12 0 0 0
SMALL
GASTEIGER

@<TRIPOS>ATOM
      1  C          7.3350   -1.2910   -2.1500 C.3     1  UNL1        0.1270
      2  C          8.7790   -1.3920   -2.4660 C.2     1  UNL1        0.3030
      3  O          9.2350   -2.3570   -3.1270 O.2     1  UNL1       -0.2520
      4  O          9.6690   -0.4190   -2.0380 O.3     1  UNL1       -0.4810
      5  H         10.6750   -0.5910   -2.1180 H       1  UNL1        0.2960
      6  C          7.1670   -1.4220   -0.6670 C.3     1  UNL1        0.0470
      7  C          6.4110   -0.3300   -0.0560 C.2     1  UNL1       -0.0470
      8  C          5.9540   -0.4290    1.2380 C.2     1  UNL1        0.0040
      9  C          6.1590    0.8060   -0.7900 C.2     1  UNL1        0.0040
     10  C          5.2390    0.6530    1.7570 C.2     1  UNL1        0.0000
     11  C          5.4520    1.8740   -0.2750 C.2     1  UNL1        0.0000
     12  C          4.9900    1.7830    1.0200 C.2     1  UNL1        0.0000
@<TRIPOS>BOND
     1     3     2    2
     2     2     1    1
     3     2     4    1
     4     1     6    1
     5     5     4    1
     6     9    11    1
     7     9     7    2
     8     6     7    1
     9    11    12    2
    10     7     8    1
    11    12    10    1
    12     8    10    2
