@<TRIPOS>MOLECULE
/home/cewinharhar/GITHUB/reincatalyze/data/processed/docking_pred/2023-Apr-26-1657_maxeplen10_maxtrainstep1000_exh32_gamma099_lrac9e-4_lrcr1e-3/b99eeed02ad73e34178363463c07c25b6fbf2bee_ligand_2.pdbqt
 12 12 0 0 0
SMALL
GASTEIGER

@<TRIPOS>ATOM
      1  C          5.4230    2.8950    0.0070 C.3     1  UNL1        0.1270
      2  C          6.2350    3.8690    0.7750 C.2     1  UNL1        0.3030
      3  O          6.8840    4.7750    0.1960 O.2     1  UNL1       -0.2520
      4  O          6.2980    3.8060    2.1580 O.3     1  UNL1       -0.4810
      5  H          5.6800    4.4030    2.7150 H       1  UNL1        0.2960
      6  C          4.9250    1.8470    0.9550 C.3     1  UNL1        0.0470
      7  C          5.7140    0.6170    0.9480 C.2     1  UNL1       -0.0470
      8  C          6.3990    0.2260   -0.1790 C.2     1  UNL1        0.0040
      9  C          5.7680   -0.1520    2.0880 C.2     1  UNL1        0.0040
     10  C          7.1330   -0.9610   -0.1130 C.2     1  UNL1        0.0000
     11  C          6.4930   -1.3250    2.1520 C.2     1  UNL1        0.0000
     12  C          7.1820   -1.7240    1.0270 C.2     1  UNL1        0.0000
@<TRIPOS>BOND
     1     8    10    1
     2     8     7    2
     3    10    12    2
     4     1     2    1
     5     1     6    1
     6     3     2    2
     7     2     4    1
     8     7     6    1
     9     7     9    1
    10    12    11    1
    11     9    11    2
    12     4     5    1
