@<TRIPOS>MOLECULE
/home/cewinharhar/GITHUB/reincatalyze/data/processed/docking_pred/2023-Apr-26-1657_maxeplen10_maxtrainstep1000_exh32_gamma099_lrac9e-4_lrcr1e-3/b9a0748b4c4cb53be71f33acfe76cbadf25e0c0f_ligand_2.pdbqt
 12 12 0 0 0
SMALL
GASTEIGER

@<TRIPOS>ATOM
      1  C          8.3910   -0.5500   -2.2070 C.3     1  UNL1        0.1270
      2  C          8.4600   -1.8510   -2.9140 C.2     1  UNL1        0.3030
      3  O          9.5540   -2.4470   -3.0740 O.2     1  UNL1       -0.2520
      4  O          7.3150   -2.4460   -3.4190 O.3     1  UNL1       -0.4810
      5  H          7.1750   -2.4830   -4.4320 H       1  UNL1        0.2960
      6  C          6.9570   -0.1180   -2.1560 C.3     1  UNL1        0.0470
      7  C          6.4420    0.0710   -0.8010 C.2     1  UNL1       -0.0470
      8  C          5.8280    1.2480   -0.4390 C.2     1  UNL1        0.0040
      9  C          6.5740   -0.9460    0.1160 C.2     1  UNL1        0.0040
     10  C          5.3590    1.3580    0.8710 C.2     1  UNL1        0.0000
     11  C          6.1100   -0.8360    1.4110 C.2     1  UNL1        0.0000
     12  C          5.4950    0.3410    1.7820 C.2     1  UNL1        0.0000
@<TRIPOS>BOND
     1     5     4    1
     2     4     2    1
     3     3     2    2
     4     2     1    1
     5     1     6    1
     6     6     7    1
     7     7     8    2
     8     7     9    1
     9     8    10    1
    10     9    11    2
    11    10    12    2
    12    11    12    1
