@<TRIPOS>MOLECULE
/home/cewinharhar/GITHUB/reincatalyze/data/processed/docking_pred/2023-Apr-26-1657_maxeplen10_maxtrainstep1000_exh32_gamma099_lrac9e-4_lrcr1e-3/b9a0748b4c4cb53be71f33acfe76cbadf25e0c0f_ligand_2.pdbqt
 12 12 0 0 0
SMALL
GASTEIGER

@<TRIPOS>ATOM
      1  C          8.3360   -0.9590   -1.7360 C.3     1  UNL1        0.1270
      2  C          8.3420   -1.9950   -2.7960 C.2     1  UNL1        0.3030
      3  O          7.2730   -2.4040   -3.3120 O.2     1  UNL1       -0.2520
      4  O          9.5330   -2.5420   -3.2470 O.3     1  UNL1       -0.4810
      5  H         10.4110   -2.2710   -2.7960 H       1  UNL1        0.2960
      6  C          7.4290   -1.4180   -0.6350 C.3     1  UNL1        0.0470
      7  C          6.5890   -0.3590   -0.0770 C.2     1  UNL1       -0.0470
      8  C          6.1070   -0.4480    1.2080 C.2     1  UNL1        0.0040
      9  C          6.2840    0.7350   -0.8530 C.2     1  UNL1        0.0040
     10  C          5.3110    0.6010    1.6760 C.2     1  UNL1        0.0000
     11  C          5.4970    1.7710   -0.3890 C.2     1  UNL1        0.0000
     12  C          5.0090    1.6890    0.8970 C.2     1  UNL1        0.0000
@<TRIPOS>BOND
     1     3     2    2
     2     4     2    1
     3     4     5    1
     4     2     1    1
     5     1     6    1
     6     9    11    1
     7     9     7    2
     8     6     7    1
     9    11    12    2
    10     7     8    1
    11    12    10    1
    12     8    10    2
