@<TRIPOS>MOLECULE
/home/cewinharhar/GITHUB/reincatalyze/data/processed/docking_pred/2023-Apr-26-1657_maxeplen10_maxtrainstep1000_exh32_gamma099_lrac9e-4_lrcr1e-3/b9a0748b4c4cb53be71f33acfe76cbadf25e0c0f_ligand_2.pdbqt
 12 12 0 0 0
SMALL
GASTEIGER

@<TRIPOS>ATOM
      1  C          8.4710   -0.6230   -2.1480 C.3     1  UNL1        0.1270
      2  C          8.4830   -1.8960   -2.9060 C.2     1  UNL1        0.3030
      3  O          9.5510   -2.5280   -3.0990 O.2     1  UNL1       -0.2520
      4  O          7.3130   -2.4250   -3.4240 O.3     1  UNL1       -0.4810
      5  H          6.6760   -2.9350   -2.8050 H       1  UNL1        0.2960
      6  C          7.0660   -0.1010   -2.1260 C.3     1  UNL1        0.0470
      7  C          6.5060    0.0430   -0.7840 C.2     1  UNL1       -0.0470
      8  C          6.6230   -0.9700    0.1400 C.2     1  UNL1        0.0040
      9  C          5.8570    1.2090   -0.4490 C.2     1  UNL1        0.0040
     10  C          6.0650   -0.7630    1.4030 C.2     1  UNL1        0.0000
     11  C          5.3060    1.4120    0.8010 C.2     1  UNL1        0.0000
     12  C          5.4180    0.4020    1.7320 C.2     1  UNL1        0.0000
@<TRIPOS>BOND
     1     4     2    1
     2     4     5    1
     3     3     2    2
     4     2     1    1
     5     1     6    1
     6     6     7    1
     7     7     9    2
     8     7     8    1
     9     9    11    1
    10     8    10    2
    11    11    12    2
    12    10    12    1
