@<TRIPOS>MOLECULE
/home/cewinharhar/GITHUB/reincatalyze/data/processed/docking_pred/2023-Apr-26-1657_maxeplen10_maxtrainstep1000_exh32_gamma099_lrac9e-4_lrcr1e-3/b9a0748b4c4cb53be71f33acfe76cbadf25e0c0f_ligand_2.pdbqt
 12 12 0 0 0
SMALL
GASTEIGER

@<TRIPOS>ATOM
      1  C          4.9890    1.8000    0.7010 C.3     1  UNL1        0.1270
      2  C          4.4830    1.1160    1.9140 C.2     1  UNL1        0.3030
      3  O          5.1510    0.2150    2.4800 O.2     1  UNL1       -0.2520
      4  O          3.2550    1.4540    2.4600 O.3     1  UNL1       -0.4810
      5  H          3.0550    2.4350    2.6740 H       1  UNL1        0.2960
      6  C          6.4870    1.7940    0.7470 C.3     1  UNL1        0.0470
      7  C          7.1120    1.0440   -0.3410 C.2     1  UNL1       -0.0470
      8  C          6.3800    0.1550   -1.0940 C.2     1  UNL1        0.0040
      9  C          8.4470    1.2370   -0.6090 C.2     1  UNL1        0.0040
     10  C          7.0420   -0.5260   -2.1180 C.2     1  UNL1        0.0000
     11  C          9.1010    0.5630   -1.6210 C.2     1  UNL1        0.0000
     12  C          8.3750   -0.3300   -2.3800 C.2     1  UNL1        0.0000
@<TRIPOS>BOND
     1    12    10    2
     2    12    11    1
     3    10     8    1
     4    11     9    2
     5     8     7    2
     6     9     7    1
     7     7     6    1
     8     1     6    1
     9     1     2    1
    10     2     4    1
    11     2     3    2
    12     4     5    1
