@<TRIPOS>MOLECULE
/home/cewinharhar/GITHUB/reincatalyze/data/processed/docking_pred/2023-Apr-26-1657_maxeplen10_maxtrainstep1000_exh32_gamma099_lrac9e-4_lrcr1e-3/b9a0748b4c4cb53be71f33acfe76cbadf25e0c0f_ligand_2.pdbqt
 12 12 0 0 0
SMALL
GASTEIGER

@<TRIPOS>ATOM
      1  C          8.2470    0.1720   -2.1760 C.3     1  UNL1        0.1270
      2  C          9.3790    0.3050   -1.2290 C.2     1  UNL1        0.3030
      3  O          9.4630   -0.4220   -0.2090 O.2     1  UNL1       -0.2520
      4  O         10.3780    1.2410   -1.4440 O.3     1  UNL1       -0.4810
      5  H         11.1010    1.3740   -0.7310 H       1  UNL1        0.2960
      6  C          7.1450   -0.5770   -1.4910 C.3     1  UNL1        0.0470
      7  C          6.3510    0.2400   -0.5750 C.2     1  UNL1       -0.0470
      8  C          6.0890   -0.1910    0.7050 C.2     1  UNL1        0.0040
      9  C          5.8660    1.4530   -1.0060 C.2     1  UNL1        0.0040
     10  C          5.3240    0.6420    1.5250 C.2     1  UNL1        0.0000
     11  C          5.1100    2.2750   -0.1940 C.2     1  UNL1        0.0000
     12  C          4.8420    1.8500    1.0900 C.2     1  UNL1        0.0000
@<TRIPOS>BOND
     1     1     6    1
     2     1     2    1
     3     6     7    1
     4     4     2    1
     5     4     5    1
     6     2     3    2
     7     9     7    2
     8     9    11    1
     9     7     8    1
    10    11    12    2
    11     8    10    2
    12    12    10    1
