@<TRIPOS>MOLECULE
/home/cewinharhar/GITHUB/reincatalyze/data/processed/docking_pred/2023-Apr-26-1657_maxeplen10_maxtrainstep1000_exh32_gamma099_lrac9e-4_lrcr1e-3/ba254a63d1f23417312e0ffefa4719b754a9a4bf_ligand_2.pdbqt
 12 12 0 0 0
SMALL
GASTEIGER

@<TRIPOS>ATOM
      1  C          8.2560   -0.8770   -1.8910 C.3     1  UNL1        0.1270
      2  C          8.4300   -1.9920   -2.8510 C.2     1  UNL1        0.3030
      3  O          9.5670   -2.4620   -3.1040 O.2     1  UNL1       -0.2520
      4  O          7.3390   -2.5480   -3.4990 O.3     1  UNL1       -0.4810
      5  H          7.3320   -3.5520   -3.6970 H       1  UNL1        0.2960
      6  C          7.3230   -1.3290   -0.8090 C.3     1  UNL1        0.0470
      7  C          6.5250   -0.2520   -0.2250 C.2     1  UNL1       -0.0470
      8  C          6.1720    0.8470   -0.9720 C.2     1  UNL1        0.0040
      9  C          6.1250   -0.3500    1.0880 C.2     1  UNL1        0.0040
     10  C          5.4080    1.8370   -0.3490 C.2     1  UNL1        0.0000
     11  C          5.3700    0.6290    1.7020 C.2     1  UNL1        0.0000
     12  C          5.0130    1.7340    0.9610 C.2     1  UNL1        0.0000
@<TRIPOS>BOND
     1     5     4    1
     2     4     2    1
     3     3     2    2
     4     2     1    1
     5     1     6    1
     6     8    10    1
     7     8     7    2
     8     6     7    1
     9    10    12    2
    10     7     9    1
    11    12    11    1
    12     9    11    2
