@<TRIPOS>MOLECULE
/home/cewinharhar/GITHUB/reincatalyze/data/processed/docking_pred/2023-Apr-26-1657_maxeplen10_maxtrainstep1000_exh32_gamma099_lrac9e-4_lrcr1e-3/ba254a63d1f23417312e0ffefa4719b754a9a4bf_ligand_2.pdbqt
 12 12 0 0 0
SMALL
GASTEIGER

@<TRIPOS>ATOM
      1  C          5.3540    2.9200    0.0740 C.3     1  UNL1        0.1270
      2  C          6.2040    3.8690    0.8320 C.2     1  UNL1        0.3030
      3  O          6.8550    4.7700    0.2460 O.2     1  UNL1       -0.2520
      4  O          6.3040    3.7880    2.2110 O.3     1  UNL1       -0.4810
      5  H          6.7880    2.9890    2.6320 H       1  UNL1        0.2960
      6  C          5.3140    1.6240    0.8240 C.3     1  UNL1        0.0470
      7  C          6.0510    0.5400    0.1760 C.2     1  UNL1       -0.0470
      8  C          6.4730   -0.5530    0.8980 C.2     1  UNL1        0.0040
      9  C          6.3180    0.6210   -1.1700 C.2     1  UNL1        0.0040
     10  C          7.1710   -1.5510    0.2140 C.2     1  UNL1        0.0000
     11  C          7.0090   -0.3670   -1.8450 C.2     1  UNL1        0.0000
     12  C          7.4360   -1.4640   -1.1290 C.2     1  UNL1        0.0000
@<TRIPOS>BOND
     1    11     9    1
     2    11    12    2
     3     9     7    2
     4    12    10    1
     5     1     6    1
     6     1     2    1
     7     7     6    1
     8     7     8    1
     9    10     8    2
    10     3     2    2
    11     2     4    1
    12     4     5    1
