@<TRIPOS>MOLECULE
/home/cewinharhar/GITHUB/reincatalyze/data/processed/docking_pred/2023-Apr-26-1657_maxeplen10_maxtrainstep1000_exh32_gamma099_lrac9e-4_lrcr1e-3/ba254a63d1f23417312e0ffefa4719b754a9a4bf_ligand_2.pdbqt
 12 12 0 0 0
SMALL
GASTEIGER

@<TRIPOS>ATOM
      1  C          8.4050   -0.6950   -2.0290 C.3     1  UNL1        0.1270
      2  C          8.3760   -1.9130   -2.8740 C.2     1  UNL1        0.3030
      3  O          7.2890   -2.4170   -3.2510 O.2     1  UNL1       -0.2520
      4  O          9.5510   -2.5300   -3.2700 O.3     1  UNL1       -0.4810
      5  H          9.7770   -2.5850   -4.2670 H       1  UNL1        0.2960
      6  C          7.0390   -0.0800   -2.0440 C.3     1  UNL1        0.0470
      7  C          6.4550    0.1030   -0.7160 C.2     1  UNL1       -0.0470
      8  C          5.8010    1.2680   -0.3900 C.2     1  UNL1        0.0040
      9  C          6.5640   -0.9080    0.2100 C.2     1  UNL1        0.0040
     10  C          5.2670    1.3740    0.8960 C.2     1  UNL1        0.0000
     11  C          6.0350   -0.8020    1.4810 C.2     1  UNL1        0.0000
     12  C          5.3790    0.3620    1.8160 C.2     1  UNL1        0.0000
@<TRIPOS>BOND
     1     5     4    1
     2     4     2    1
     3     3     2    2
     4     2     1    1
     5     6     1    1
     6     6     7    1
     7     7     8    2
     8     7     9    1
     9     8    10    1
    10     9    11    2
    11    10    12    2
    12    11    12    1
