MODEL 1
REMARK VINA RESULT:      -7.3      0.000      0.000
REMARK SMILES O=C(O)CCc1ccccc1
REMARK SMILES IDX 4 1 2 2 1 3 3 4 5 6 6 7 7 8 11 9 8 10 10 11 9 12
REMARK H PARENT 3 5
REMARK Flexibility Score: inf
ROOT
ATOM      1  C   UNL     1       8.405  -0.695  -2.029  1.00  0.00     0.127 C 
ENDROOT
BRANCH   1   2
ATOM      2  C   UNL     1       8.376  -1.913  -2.874  1.00  0.00     0.303 C 
ATOM      3  O   UNL     1       7.289  -2.417  -3.251  1.00  0.00    -0.252 OA
BRANCH   2   4
ATOM      4  O   UNL     1       9.551  -2.530  -3.270  1.00  0.00    -0.481 OA
ATOM      5  H   UNL     1       9.777  -2.585  -4.267  1.00  0.00     0.296 HD
ENDBRANCH   2   4
ENDBRANCH   1   2
BRANCH   1   6
ATOM      6  C   UNL     1       7.039  -0.080  -2.044  1.00  0.00     0.047 C 
BRANCH   6   7
ATOM      7  C   UNL     1       6.455   0.103  -0.716  1.00  0.00    -0.047 A 
ATOM      8  C   UNL     1       5.801   1.268  -0.390  1.00  0.00     0.004 A 
ATOM      9  C   UNL     1       6.564  -0.908   0.210  1.00  0.00     0.004 A 
ATOM     10  C   UNL     1       5.267   1.374   0.896  1.00  0.00     0.000 A 
ATOM     11  C   UNL     1       6.035  -0.802   1.481  1.00  0.00     0.000 A 
ATOM     12  C   UNL     1       5.379   0.362   1.816  1.00  0.00     0.000 A 
ENDBRANCH   6   7
ENDBRANCH   1   6
TORSDOF 4
ENDMDL
MODEL 2
REMARK VINA RESULT:      -7.2      0.068      1.438
REMARK SMILES O=C(O)CCc1ccccc1
REMARK SMILES IDX 4 1 2 2 1 3 3 4 5 6 6 7 7 8 11 9 8 10 10 11 9 12
REMARK H PARENT 3 5
REMARK Flexibility Score: inf
ROOT
ATOM      1  C   UNL     1       8.406  -0.612  -2.147  1.00  0.00     0.127 C 
ENDROOT
BRANCH   1   2
ATOM      2  C   UNL     1       8.380  -1.888  -2.901  1.00  0.00     0.303 C 
ATOM      3  O   UNL     1       7.296  -2.417  -3.247  1.00  0.00    -0.252 OA
BRANCH   2   4
ATOM      4  O   UNL     1       9.557  -2.533  -3.244  1.00  0.00    -0.481 OA
ATOM      5  H   UNL     1      10.286  -2.014  -3.742  1.00  0.00     0.296 HD
ENDBRANCH   2   4
ENDBRANCH   1   2
BRANCH   1   6
ATOM      6  C   UNL     1       7.012  -0.063  -2.103  1.00  0.00     0.047 C 
BRANCH   6   7
ATOM      7  C   UNL     1       6.467   0.068  -0.753  1.00  0.00    -0.047 A 
ATOM      8  C   UNL     1       6.600  -0.951   0.161  1.00  0.00     0.004 A 
ATOM      9  C   UNL     1       5.818   1.229  -0.401  1.00  0.00     0.004 A 
ATOM     10  C   UNL     1       6.055  -0.756   1.433  1.00  0.00     0.000 A 
ATOM     11  C   UNL     1       5.280   1.420   0.856  1.00  0.00     0.000 A 
ATOM     12  C   UNL     1       5.408   0.404   1.778  1.00  0.00     0.000 A 
ENDBRANCH   6   7
ENDBRANCH   1   6
TORSDOF 4
ENDMDL
MODEL 3
REMARK VINA RESULT:      -7.2      0.637      1.439
REMARK SMILES O=C(O)CCc1ccccc1
REMARK SMILES IDX 4 1 2 2 1 3 3 4 5 6 6 7 7 8 11 9 8 10 10 11 9 12
REMARK H PARENT 3 5
REMARK Flexibility Score: inf
ROOT
ATOM      1  C   UNL     1       8.256  -0.877  -1.891  1.00  0.00     0.127 C 
ENDROOT
BRANCH   1   2
ATOM      2  C   UNL     1       8.430  -1.992  -2.851  1.00  0.00     0.303 C 
ATOM      3  O   UNL     1       9.567  -2.462  -3.104  1.00  0.00    -0.252 OA
BRANCH   2   4
ATOM      4  O   UNL     1       7.339  -2.548  -3.499  1.00  0.00    -0.481 OA
ATOM      5  H   UNL     1       7.332  -3.552  -3.697  1.00  0.00     0.296 HD
ENDBRANCH   2   4
ENDBRANCH   1   2
BRANCH   1   6
ATOM      6  C   UNL     1       7.323  -1.329  -0.809  1.00  0.00     0.047 C 
BRANCH   6   7
ATOM      7  C   UNL     1       6.525  -0.252  -0.225  1.00  0.00    -0.047 A 
ATOM      8  C   UNL     1       6.172   0.847  -0.972  1.00  0.00     0.004 A 
ATOM      9  C   UNL     1       6.125  -0.350   1.088  1.00  0.00     0.004 A 
ATOM     10  C   UNL     1       5.408   1.837  -0.349  1.00  0.00     0.000 A 
ATOM     11  C   UNL     1       5.370   0.629   1.702  1.00  0.00     0.000 A 
ATOM     12  C   UNL     1       5.013   1.734   0.961  1.00  0.00     0.000 A 
ENDBRANCH   6   7
ENDBRANCH   1   6
TORSDOF 4
ENDMDL
MODEL 4
REMARK VINA RESULT:      -6.7      3.319      5.164
REMARK SMILES O=C(O)CCc1ccccc1
REMARK SMILES IDX 4 1 2 2 1 3 3 4 5 6 6 7 7 8 11 9 8 10 10 11 9 12
REMARK H PARENT 3 5
REMARK Flexibility Score: inf
ROOT
ATOM      1  C   UNL     1       4.999   1.805   0.724  1.00  0.00     0.127 C 
ENDROOT
BRANCH   1   2
ATOM      2  C   UNL     1       4.474   1.112   1.924  1.00  0.00     0.303 C 
ATOM      3  O   UNL     1       5.126   0.195   2.483  1.00  0.00    -0.252 OA
BRANCH   2   4
ATOM      4  O   UNL     1       3.246   1.458   2.464  1.00  0.00    -0.481 OA
ATOM      5  H   UNL     1       3.154   1.556   3.479  1.00  0.00     0.296 HD
ENDBRANCH   2   4
ENDBRANCH   1   2
BRANCH   1   6
ATOM      6  C   UNL     1       6.496   1.765   0.774  1.00  0.00     0.047 C 
BRANCH   6   7
ATOM      7  C   UNL     1       7.107   1.020  -0.325  1.00  0.00    -0.047 A 
ATOM      8  C   UNL     1       6.373   0.112  -1.054  1.00  0.00     0.004 A 
ATOM      9  C   UNL     1       8.431   1.237  -0.629  1.00  0.00     0.004 A 
ATOM     10  C   UNL     1       7.022  -0.562  -2.090  1.00  0.00     0.000 A 
ATOM     11  C   UNL     1       9.071   0.569  -1.654  1.00  0.00     0.000 A 
ATOM     12  C   UNL     1       8.343  -0.343  -2.388  1.00  0.00     0.000 A 
ENDBRANCH   6   7
ENDBRANCH   1   6
TORSDOF 4
ENDMDL
MODEL 5
REMARK VINA RESULT:      -6.5      3.679      5.129
REMARK SMILES O=C(O)CCc1ccccc1
REMARK SMILES IDX 4 1 2 2 1 3 3 4 5 6 6 7 7 8 11 9 8 10 10 11 9 12
REMARK H PARENT 3 5
REMARK Flexibility Score: inf
ROOT
ATOM      1  C   UNL     1       5.354   2.920   0.074  1.00  0.00     0.127 C 
ENDROOT
BRANCH   1   2
ATOM      2  C   UNL     1       6.204   3.869   0.832  1.00  0.00     0.303 C 
ATOM      3  O   UNL     1       6.855   4.770   0.246  1.00  0.00    -0.252 OA
BRANCH   2   4
ATOM      4  O   UNL     1       6.304   3.788   2.211  1.00  0.00    -0.481 OA
ATOM      5  H   UNL     1       6.788   2.989   2.632  1.00  0.00     0.296 HD
ENDBRANCH   2   4
ENDBRANCH   1   2
BRANCH   1   6
ATOM      6  C   UNL     1       5.314   1.624   0.824  1.00  0.00     0.047 C 
BRANCH   6   7
ATOM      7  C   UNL     1       6.051   0.540   0.176  1.00  0.00    -0.047 A 
ATOM      8  C   UNL     1       6.473  -0.553   0.898  1.00  0.00     0.004 A 
ATOM      9  C   UNL     1       6.318   0.621  -1.170  1.00  0.00     0.004 A 
ATOM     10  C   UNL     1       7.171  -1.551   0.214  1.00  0.00     0.000 A 
ATOM     11  C   UNL     1       7.009  -0.367  -1.845  1.00  0.00     0.000 A 
ATOM     12  C   UNL     1       7.436  -1.464  -1.129  1.00  0.00     0.000 A 
ENDBRANCH   6   7
ENDBRANCH   1   6
TORSDOF 4
ENDMDL
