@<TRIPOS>MOLECULE
/home/cewinharhar/GITHUB/reincatalyze/data/processed/docking_pred/2023-Apr-26-1657_maxeplen10_maxtrainstep1000_exh32_gamma099_lrac9e-4_lrcr1e-3/ba254a63d1f23417312e0ffefa4719b754a9a4bf_ligand_2.pdbqt
 12 12 0 0 0
SMALL
GASTEIGER

@<TRIPOS>ATOM
      1  C          8.4060   -0.6120   -2.1470 C.3     1  UNL1        0.1270
      2  C          8.3800   -1.8880   -2.9010 C.2     1  UNL1        0.3030
      3  O          7.2960   -2.4170   -3.2470 O.2     1  UNL1       -0.2520
      4  O          9.5570   -2.5330   -3.2440 O.3     1  UNL1       -0.4810
      5  H         10.2860   -2.0140   -3.7420 H       1  UNL1        0.2960
      6  C          7.0120   -0.0630   -2.1030 C.3     1  UNL1        0.0470
      7  C          6.4670    0.0680   -0.7530 C.2     1  UNL1       -0.0470
      8  C          6.6000   -0.9510    0.1610 C.2     1  UNL1        0.0040
      9  C          5.8180    1.2290   -0.4010 C.2     1  UNL1        0.0040
     10  C          6.0550   -0.7560    1.4330 C.2     1  UNL1        0.0000
     11  C          5.2800    1.4200    0.8560 C.2     1  UNL1        0.0000
     12  C          5.4080    0.4040    1.7780 C.2     1  UNL1        0.0000
@<TRIPOS>BOND
     1     5     4    1
     2     3     2    2
     3     4     2    1
     4     2     1    1
     5     1     6    1
     6     6     7    1
     7     7     9    2
     8     7     8    1
     9     9    11    1
    10     8    10    2
    11    11    12    2
    12    10    12    1
