@<TRIPOS>MOLECULE
/home/cewinharhar/GITHUB/reincatalyze/data/processed/docking_pred/2023-Apr-26-1657_maxeplen10_maxtrainstep1000_exh32_gamma099_lrac9e-4_lrcr1e-3/ba254a63d1f23417312e0ffefa4719b754a9a4bf_ligand_2.pdbqt
 12 12 0 0 0
SMALL
GASTEIGER

@<TRIPOS>ATOM
      1  C          4.9990    1.8050    0.7240 C.3     1  UNL1        0.1270
      2  C          4.4740    1.1120    1.9240 C.2     1  UNL1        0.3030
      3  O          5.1260    0.1950    2.4830 O.2     1  UNL1       -0.2520
      4  O          3.2460    1.4580    2.4640 O.3     1  UNL1       -0.4810
      5  H          3.1540    1.5560    3.4790 H       1  UNL1        0.2960
      6  C          6.4960    1.7650    0.7740 C.3     1  UNL1        0.0470
      7  C          7.1070    1.0200   -0.3250 C.2     1  UNL1       -0.0470
      8  C          6.3730    0.1120   -1.0540 C.2     1  UNL1        0.0040
      9  C          8.4310    1.2370   -0.6290 C.2     1  UNL1        0.0040
     10  C          7.0220   -0.5620   -2.0900 C.2     1  UNL1        0.0000
     11  C          9.0710    0.5690   -1.6540 C.2     1  UNL1        0.0000
     12  C          8.3430   -0.3430   -2.3880 C.2     1  UNL1        0.0000
@<TRIPOS>BOND
     1    12    10    2
     2    12    11    1
     3    10     8    1
     4    11     9    2
     5     8     7    2
     6     9     7    1
     7     7     6    1
     8     1     6    1
     9     1     2    1
    10     2     4    1
    11     2     3    2
    12     4     5    1
