@<TRIPOS>MOLECULE
/home/cewinharhar/GITHUB/reincatalyze/data/processed/docking_pred/2023-Apr-26-1657_maxeplen10_maxtrainstep1000_exh32_gamma099_lrac9e-4_lrcr1e-3/bae690ffab80532c90b6f683492bf7de3cce581e_ligand_2.pdbqt
 12 12 0 0 0
SMALL
GASTEIGER

@<TRIPOS>ATOM
      1  C          8.3990   -0.6350   -2.1010 C.3     1  UNL1        0.1270
      2  C          8.3700   -1.8900   -2.8890 C.2     1  UNL1        0.3030
      3  O          7.2830   -2.4080   -3.2480 O.2     1  UNL1       -0.2520
      4  O          9.5450   -2.5280   -3.2520 O.3     1  UNL1       -0.4810
      5  H          9.7250   -3.4770   -2.9120 H       1  UNL1        0.2960
      6  C          7.0160   -0.0580   -2.0840 C.3     1  UNL1        0.0470
      7  C          6.4550    0.1020   -0.7440 C.2     1  UNL1       -0.0470
      8  C          5.8130    1.2640   -0.3840 C.2     1  UNL1        0.0040
      9  C          6.5740   -0.9270    0.1610 C.2     1  UNL1        0.0040
     10  C          5.3000    1.3480    0.9120 C.2     1  UNL1        0.0000
     11  C          6.0680   -0.8430    1.4430 C.2     1  UNL1        0.0000
     12  C          5.4230    0.3180    1.8110 C.2     1  UNL1        0.0000
@<TRIPOS>BOND
     1     4     5    1
     2     4     2    1
     3     3     2    2
     4     2     1    1
     5     1     6    1
     6     6     7    1
     7     7     8    2
     8     7     9    1
     9     8    10    1
    10     9    11    2
    11    10    12    2
    12    11    12    1
