@<TRIPOS>MOLECULE
/home/cewinharhar/GITHUB/reincatalyze/data/processed/docking_pred/2023-Apr-26-1657_maxeplen10_maxtrainstep1000_exh32_gamma099_lrac9e-4_lrcr1e-3/bae690ffab80532c90b6f683492bf7de3cce581e_ligand_2.pdbqt
 12 12 0 0 0
SMALL
GASTEIGER

@<TRIPOS>ATOM
      1  C          5.0750    1.7050    0.6930 C.3     1  UNL1        0.1270
      2  C          4.6040    1.0210    1.9200 C.2     1  UNL1        0.3030
      3  O          5.3070    0.1510    2.4900 O.2     1  UNL1       -0.2520
      4  O          3.3710    1.3240    2.4730 O.3     1  UNL1       -0.4810
      5  H          3.1740    1.0510    3.4400 H       1  UNL1        0.2960
      6  C          6.5730    1.7370    0.7160 C.3     1  UNL1        0.0470
      7  C          7.2010    0.9790   -0.3650 C.2     1  UNL1       -0.0470
      8  C          8.5130    1.2030   -0.7110 C.2     1  UNL1        0.0040
      9  C          6.4630    0.0320   -1.0370 C.2     1  UNL1        0.0040
     10  C          9.0480    0.4430   -1.7530 C.2     1  UNL1        0.0000
     11  C          6.9940   -0.7180   -2.0680 C.2     1  UNL1        0.0000
     12  C          8.3070   -0.5000   -2.4210 C.2     1  UNL1        0.0000
@<TRIPOS>BOND
     1    12    11    2
     2    12    10    1
     3    11     9    1
     4    10     8    2
     5     9     7    2
     6     8     7    1
     7     7     6    1
     8     1     6    1
     9     1     2    1
    10     2     4    1
    11     2     3    2
    12     4     5    1
