MODEL 1
REMARK VINA RESULT:      -7.3      0.000      0.000
REMARK SMILES O=C(O)CCc1ccccc1
REMARK SMILES IDX 4 1 2 2 1 3 3 4 5 6 6 7 7 8 11 9 8 10 10 11 9 12
REMARK H PARENT 3 5
REMARK Flexibility Score: inf
ROOT
ATOM      1  C   UNL     1       8.454  -0.677  -2.071  1.00  0.00     0.127 C 
ENDROOT
BRANCH   1   2
ATOM      2  C   UNL     1       8.465  -1.918  -2.882  1.00  0.00     0.303 C 
ATOM      3  O   UNL     1       9.532  -2.540  -3.105  1.00  0.00    -0.252 OA
BRANCH   2   4
ATOM      4  O   UNL     1       7.292  -2.425  -3.418  1.00  0.00    -0.481 OA
ATOM      5  H   UNL     1       6.894  -3.284  -3.028  1.00  0.00     0.296 HD
ENDBRANCH   2   4
ENDBRANCH   1   2
BRANCH   1   6
ATOM      6  C   UNL     1       7.053  -0.148  -2.038  1.00  0.00     0.047 C 
BRANCH   6   7
ATOM      7  C   UNL     1       6.498  -0.019  -0.692  1.00  0.00    -0.047 A 
ATOM      8  C   UNL     1       6.634  -1.034   0.226  1.00  0.00     0.004 A 
ATOM      9  C   UNL     1       5.835   1.137  -0.347  1.00  0.00     0.004 A 
ATOM     10  C   UNL     1       6.080  -0.841   1.494  1.00  0.00     0.000 A 
ATOM     11  C   UNL     1       5.287   1.325   0.906  1.00  0.00     0.000 A 
ATOM     12  C   UNL     1       5.419   0.313   1.831  1.00  0.00     0.000 A 
ENDBRANCH   6   7
ENDBRANCH   1   6
TORSDOF 4
ENDMDL
MODEL 2
REMARK VINA RESULT:      -7.3      0.112      1.732
REMARK SMILES O=C(O)CCc1ccccc1
REMARK SMILES IDX 4 1 2 2 1 3 3 4 5 6 6 7 7 8 11 9 8 10 10 11 9 12
REMARK H PARENT 3 5
REMARK Flexibility Score: inf
ROOT
ATOM      1  C   UNL     1       8.399  -0.635  -2.101  1.00  0.00     0.127 C 
ENDROOT
BRANCH   1   2
ATOM      2  C   UNL     1       8.370  -1.890  -2.889  1.00  0.00     0.303 C 
ATOM      3  O   UNL     1       7.283  -2.408  -3.248  1.00  0.00    -0.252 OA
BRANCH   2   4
ATOM      4  O   UNL     1       9.545  -2.528  -3.252  1.00  0.00    -0.481 OA
ATOM      5  H   UNL     1       9.725  -3.477  -2.912  1.00  0.00     0.296 HD
ENDBRANCH   2   4
ENDBRANCH   1   2
BRANCH   1   6
ATOM      6  C   UNL     1       7.016  -0.058  -2.084  1.00  0.00     0.047 C 
BRANCH   6   7
ATOM      7  C   UNL     1       6.455   0.102  -0.744  1.00  0.00    -0.047 A 
ATOM      8  C   UNL     1       5.813   1.264  -0.384  1.00  0.00     0.004 A 
ATOM      9  C   UNL     1       6.574  -0.927   0.161  1.00  0.00     0.004 A 
ATOM     10  C   UNL     1       5.300   1.348   0.912  1.00  0.00     0.000 A 
ATOM     11  C   UNL     1       6.068  -0.843   1.443  1.00  0.00     0.000 A 
ATOM     12  C   UNL     1       5.423   0.318   1.811  1.00  0.00     0.000 A 
ENDBRANCH   6   7
ENDBRANCH   1   6
TORSDOF 4
ENDMDL
MODEL 3
REMARK VINA RESULT:      -6.7      3.333      5.049
REMARK SMILES O=C(O)CCc1ccccc1
REMARK SMILES IDX 4 1 2 2 1 3 3 4 5 6 6 7 7 8 11 9 8 10 10 11 9 12
REMARK H PARENT 3 5
REMARK Flexibility Score: inf
ROOT
ATOM      1  C   UNL     1       5.075   1.705   0.693  1.00  0.00     0.127 C 
ENDROOT
BRANCH   1   2
ATOM      2  C   UNL     1       4.604   1.021   1.920  1.00  0.00     0.303 C 
ATOM      3  O   UNL     1       5.307   0.151   2.490  1.00  0.00    -0.252 OA
BRANCH   2   4
ATOM      4  O   UNL     1       3.371   1.324   2.473  1.00  0.00    -0.481 OA
ATOM      5  H   UNL     1       3.174   1.051   3.440  1.00  0.00     0.296 HD
ENDBRANCH   2   4
ENDBRANCH   1   2
BRANCH   1   6
ATOM      6  C   UNL     1       6.573   1.737   0.716  1.00  0.00     0.047 C 
BRANCH   6   7
ATOM      7  C   UNL     1       7.201   0.979  -0.365  1.00  0.00    -0.047 A 
ATOM      8  C   UNL     1       8.513   1.203  -0.711  1.00  0.00     0.004 A 
ATOM      9  C   UNL     1       6.463   0.032  -1.037  1.00  0.00     0.004 A 
ATOM     10  C   UNL     1       9.048   0.443  -1.753  1.00  0.00     0.000 A 
ATOM     11  C   UNL     1       6.994  -0.718  -2.068  1.00  0.00     0.000 A 
ATOM     12  C   UNL     1       8.307  -0.500  -2.421  1.00  0.00     0.000 A 
ENDBRANCH   6   7
ENDBRANCH   1   6
TORSDOF 4
ENDMDL
MODEL 4
REMARK VINA RESULT:      -6.7      3.817      4.979
REMARK SMILES O=C(O)CCc1ccccc1
REMARK SMILES IDX 4 1 2 2 1 3 3 4 5 6 6 7 7 8 11 9 8 10 10 11 9 12
REMARK H PARENT 3 5
REMARK Flexibility Score: inf
ROOT
ATOM      1  C   UNL     1       5.430   2.893   0.010  1.00  0.00     0.127 C 
ENDROOT
BRANCH   1   2
ATOM      2  C   UNL     1       6.234   3.862   0.792  1.00  0.00     0.303 C 
ATOM      3  O   UNL     1       6.884   4.775   0.225  1.00  0.00    -0.252 OA
BRANCH   2   4
ATOM      4  O   UNL     1       6.291   3.785   2.174  1.00  0.00    -0.481 OA
ATOM      5  H   UNL     1       6.926   3.113   2.613  1.00  0.00     0.296 HD
ENDBRANCH   2   4
ENDBRANCH   1   2
BRANCH   1   6
ATOM      6  C   UNL     1       4.924   1.838   0.945  1.00  0.00     0.047 C 
BRANCH   6   7
ATOM      7  C   UNL     1       5.714   0.607   0.936  1.00  0.00    -0.047 A 
ATOM      8  C   UNL     1       6.364   0.197  -0.205  1.00  0.00     0.004 A 
ATOM      9  C   UNL     1       5.803  -0.141   2.087  1.00  0.00     0.004 A 
ATOM     10  C   UNL     1       7.101  -0.987  -0.140  1.00  0.00     0.000 A 
ATOM     11  C   UNL     1       6.532  -1.313   2.148  1.00  0.00     0.000 A 
ATOM     12  C   UNL     1       7.186  -1.731   1.010  1.00  0.00     0.000 A 
ENDBRANCH   6   7
ENDBRANCH   1   6
TORSDOF 4
ENDMDL
MODEL 5
REMARK VINA RESULT:      -6.7      1.940      2.317
REMARK SMILES O=C(O)CCc1ccccc1
REMARK SMILES IDX 4 1 2 2 1 3 3 4 5 6 6 7 7 8 11 9 8 10 10 11 9 12
REMARK H PARENT 3 5
REMARK Flexibility Score: inf
ROOT
ATOM      1  C   UNL     1       8.238   0.193  -2.196  1.00  0.00     0.127 C 
ENDROOT
BRANCH   1   2
ATOM      2  C   UNL     1       9.363   0.324  -1.241  1.00  0.00     0.303 C 
ATOM      3  O   UNL     1       9.446  -0.413  -0.227  1.00  0.00    -0.252 OA
BRANCH   2   4
ATOM      4  O   UNL     1      10.359   1.266  -1.442  1.00  0.00    -0.481 OA
ATOM      5  H   UNL     1      10.442   2.053  -0.792  1.00  0.00     0.296 HD
ENDBRANCH   2   4
ENDBRANCH   1   2
BRANCH   1   6
ATOM      6  C   UNL     1       7.133  -0.561  -1.521  1.00  0.00     0.047 C 
BRANCH   6   7
ATOM      7  C   UNL     1       6.354   0.243  -0.579  1.00  0.00    -0.047 A 
ATOM      8  C   UNL     1       6.126  -0.201   0.703  1.00  0.00     0.004 A 
ATOM      9  C   UNL     1       5.850   1.455  -0.988  1.00  0.00     0.004 A 
ATOM     10  C   UNL     1       5.376   0.619   1.548  1.00  0.00     0.000 A 
ATOM     11  C   UNL     1       5.108   2.264  -0.151  1.00  0.00     0.000 A 
ATOM     12  C   UNL     1       4.874   1.827   1.134  1.00  0.00     0.000 A 
ENDBRANCH   6   7
ENDBRANCH   1   6
TORSDOF 4
ENDMDL
