@<TRIPOS>MOLECULE
/home/cewinharhar/GITHUB/reincatalyze/data/processed/docking_pred/2023-Apr-26-1657_maxeplen10_maxtrainstep1000_exh32_gamma099_lrac9e-4_lrcr1e-3/bae690ffab80532c90b6f683492bf7de3cce581e_ligand_2.pdbqt
 12 12 0 0 0
SMALL
GASTEIGER

@<TRIPOS>ATOM
      1  C          8.4540   -0.6770   -2.0710 C.3     1  UNL1        0.1270
      2  C          8.4650   -1.9180   -2.8820 C.2     1  UNL1        0.3030
      3  O          9.5320   -2.5400   -3.1050 O.2     1  UNL1       -0.2520
      4  O          7.2920   -2.4250   -3.4180 O.3     1  UNL1       -0.4810
      5  H          6.8940   -3.2840   -3.0280 H       1  UNL1        0.2960
      6  C          7.0530   -0.1480   -2.0380 C.3     1  UNL1        0.0470
      7  C          6.4980   -0.0190   -0.6920 C.2     1  UNL1       -0.0470
      8  C          6.6340   -1.0340    0.2260 C.2     1  UNL1        0.0040
      9  C          5.8350    1.1370   -0.3470 C.2     1  UNL1        0.0040
     10  C          6.0800   -0.8410    1.4940 C.2     1  UNL1        0.0000
     11  C          5.2870    1.3250    0.9060 C.2     1  UNL1        0.0000
     12  C          5.4190    0.3130    1.8310 C.2     1  UNL1        0.0000
@<TRIPOS>BOND
     1     4     5    1
     2     4     2    1
     3     3     2    2
     4     2     1    1
     5     1     6    1
     6     6     7    1
     7     7     9    2
     8     7     8    1
     9     9    11    1
    10     8    10    2
    11    11    12    2
    12    10    12    1
