@<TRIPOS>MOLECULE
/home/cewinharhar/GITHUB/reincatalyze/data/processed/docking_pred/2023-Apr-26-1657_maxeplen10_maxtrainstep1000_exh32_gamma099_lrac9e-4_lrcr1e-3/bae690ffab80532c90b6f683492bf7de3cce581e_ligand_2.pdbqt
 12 12 0 0 0
SMALL
GASTEIGER

@<TRIPOS>ATOM
      1  C          8.2380    0.1930   -2.1960 C.3     1  UNL1        0.1270
      2  C          9.3630    0.3240   -1.2410 C.2     1  UNL1        0.3030
      3  O          9.4460   -0.4130   -0.2270 O.2     1  UNL1       -0.2520
      4  O         10.3590    1.2660   -1.4420 O.3     1  UNL1       -0.4810
      5  H         10.4420    2.0530   -0.7920 H       1  UNL1        0.2960
      6  C          7.1330   -0.5610   -1.5210 C.3     1  UNL1        0.0470
      7  C          6.3540    0.2430   -0.5790 C.2     1  UNL1       -0.0470
      8  C          6.1260   -0.2010    0.7030 C.2     1  UNL1        0.0040
      9  C          5.8500    1.4550   -0.9880 C.2     1  UNL1        0.0040
     10  C          5.3760    0.6190    1.5480 C.2     1  UNL1        0.0000
     11  C          5.1080    2.2640   -0.1510 C.2     1  UNL1        0.0000
     12  C          4.8740    1.8270    1.1340 C.2     1  UNL1        0.0000
@<TRIPOS>BOND
     1     1     6    1
     2     1     2    1
     3     6     7    1
     4     4     2    1
     5     4     5    1
     6     2     3    2
     7     9     7    2
     8     9    11    1
     9     7     8    1
    10    11    12    2
    11     8    10    2
    12    12    10    1
