@<TRIPOS>MOLECULE
/home/cewinharhar/GITHUB/reincatalyze/data/processed/docking_pred/2023-Apr-26-1657_maxeplen10_maxtrainstep1000_exh32_gamma099_lrac9e-4_lrcr1e-3/bae690ffab80532c90b6f683492bf7de3cce581e_ligand_2.pdbqt
 12 12 0 0 0
SMALL
GASTEIGER

@<TRIPOS>ATOM
      1  C          5.4300    2.8930    0.0100 C.3     1  UNL1        0.1270
      2  C          6.2340    3.8620    0.7920 C.2     1  UNL1        0.3030
      3  O          6.8840    4.7750    0.2250 O.2     1  UNL1       -0.2520
      4  O          6.2910    3.7850    2.1740 O.3     1  UNL1       -0.4810
      5  H          6.9260    3.1130    2.6130 H       1  UNL1        0.2960
      6  C          4.9240    1.8380    0.9450 C.3     1  UNL1        0.0470
      7  C          5.7140    0.6070    0.9360 C.2     1  UNL1       -0.0470
      8  C          6.3640    0.1970   -0.2050 C.2     1  UNL1        0.0040
      9  C          5.8030   -0.1410    2.0870 C.2     1  UNL1        0.0040
     10  C          7.1010   -0.9870   -0.1400 C.2     1  UNL1        0.0000
     11  C          6.5320   -1.3130    2.1480 C.2     1  UNL1        0.0000
     12  C          7.1860   -1.7310    1.0100 C.2     1  UNL1        0.0000
@<TRIPOS>BOND
     1     8    10    1
     2     8     7    2
     3    10    12    2
     4     1     2    1
     5     1     6    1
     6     3     2    2
     7     2     4    1
     8     7     6    1
     9     7     9    1
    10    12    11    1
    11     9    11    2
    12     4     5    1
