MODEL 1
REMARK VINA RESULT:      -7.3      0.000      0.000
REMARK SMILES O=C(O)CCc1ccccc1
REMARK SMILES IDX 4 1 2 2 1 3 3 4 5 6 6 7 7 8 11 9 8 10 10 11 9 12
REMARK H PARENT 3 5
REMARK Flexibility Score: inf
ROOT
ATOM      1  C   UNL     1       8.441  -0.657  -2.082  1.00  0.00     0.127 C 
ENDROOT
BRANCH   1   2
ATOM      2  C   UNL     1       8.466  -1.909  -2.876  1.00  0.00     0.303 C 
ATOM      3  O   UNL     1       9.541  -2.522  -3.088  1.00  0.00    -0.252 OA
BRANCH   2   4
ATOM      4  O   UNL     1       7.300  -2.436  -3.406  1.00  0.00    -0.481 OA
ATOM      5  H   UNL     1       7.361  -3.179  -4.108  1.00  0.00     0.296 HD
ENDBRANCH   2   4
ENDBRANCH   1   2
BRANCH   1   6
ATOM      6  C   UNL     1       7.043  -0.118  -2.098  1.00  0.00     0.047 C 
BRANCH   6   7
ATOM      7  C   UNL     1       6.468   0.082  -0.769  1.00  0.00    -0.047 A 
ATOM      8  C   UNL     1       5.834   1.260  -0.447  1.00  0.00     0.004 A 
ATOM      9  C   UNL     1       6.565  -0.925   0.163  1.00  0.00     0.004 A 
ATOM     10  C   UNL     1       5.307   1.382   0.841  1.00  0.00     0.000 A 
ATOM     11  C   UNL     1       6.044  -0.803   1.436  1.00  0.00     0.000 A 
ATOM     12  C   UNL     1       5.408   0.374   1.767  1.00  0.00     0.000 A 
ENDBRANCH   6   7
ENDBRANCH   1   6
TORSDOF 4
ENDMDL
MODEL 2
REMARK VINA RESULT:      -7.3      0.077      1.438
REMARK SMILES O=C(O)CCc1ccccc1
REMARK SMILES IDX 4 1 2 2 1 3 3 4 5 6 6 7 7 8 11 9 8 10 10 11 9 12
REMARK H PARENT 3 5
REMARK Flexibility Score: inf
ROOT
ATOM      1  C   UNL     1       8.424  -0.576  -2.210  1.00  0.00     0.127 C 
ENDROOT
BRANCH   1   2
ATOM      2  C   UNL     1       8.468  -1.878  -2.916  1.00  0.00     0.303 C 
ATOM      3  O   UNL     1       9.550  -2.495  -3.077  1.00  0.00    -0.252 OA
BRANCH   2   4
ATOM      4  O   UNL     1       7.312  -2.451  -3.421  1.00  0.00    -0.481 OA
ATOM      5  H   UNL     1       6.538  -1.847  -3.710  1.00  0.00     0.296 HD
ENDBRANCH   2   4
ENDBRANCH   1   2
BRANCH   1   6
ATOM      6  C   UNL     1       6.999  -0.115  -2.160  1.00  0.00     0.047 C 
BRANCH   6   7
ATOM      7  C   UNL     1       6.475   0.049  -0.806  1.00  0.00    -0.047 A 
ATOM      8  C   UNL     1       6.612  -0.952   0.128  1.00  0.00     0.004 A 
ATOM      9  C   UNL     1       5.840   1.222  -0.469  1.00  0.00     0.004 A 
ATOM     10  C   UNL     1       6.088  -0.726   1.402  1.00  0.00     0.000 A 
ATOM     11  C   UNL     1       5.322   1.443   0.791  1.00  0.00     0.000 A 
ATOM     12  C   UNL     1       5.455   0.445   1.732  1.00  0.00     0.000 A 
ENDBRANCH   6   7
ENDBRANCH   1   6
TORSDOF 4
ENDMDL
MODEL 3
REMARK VINA RESULT:      -7.2      0.649      1.075
REMARK SMILES O=C(O)CCc1ccccc1
REMARK SMILES IDX 4 1 2 2 1 3 3 4 5 6 6 7 7 8 11 9 8 10 10 11 9 12
REMARK H PARENT 3 5
REMARK Flexibility Score: inf
ROOT
ATOM      1  C   UNL     1       8.286  -0.942  -1.810  1.00  0.00     0.127 C 
ENDROOT
BRANCH   1   2
ATOM      2  C   UNL     1       8.436  -2.002  -2.834  1.00  0.00     0.303 C 
ATOM      3  O   UNL     1       9.565  -2.465  -3.132  1.00  0.00    -0.252 OA
BRANCH   2   4
ATOM      4  O   UNL     1       7.330  -2.514  -3.493  1.00  0.00    -0.481 OA
ATOM      5  H   UNL     1       6.410  -2.100  -3.323  1.00  0.00     0.296 HD
ENDBRANCH   2   4
ENDBRANCH   1   2
BRANCH   1   6
ATOM      6  C   UNL     1       7.244  -1.380  -0.826  1.00  0.00     0.047 C 
BRANCH   6   7
ATOM      7  C   UNL     1       6.485  -0.280  -0.234  1.00  0.00    -0.047 A 
ATOM      8  C   UNL     1       6.162   0.831  -0.977  1.00  0.00     0.004 A 
ATOM      9  C   UNL     1       6.092  -0.368   1.081  1.00  0.00     0.004 A 
ATOM     10  C   UNL     1       5.434   1.843  -0.347  1.00  0.00     0.000 A 
ATOM     11  C   UNL     1       5.373   0.634   1.703  1.00  0.00     0.000 A 
ATOM     12  C   UNL     1       5.046   1.751   0.966  1.00  0.00     0.000 A 
ENDBRANCH   6   7
ENDBRANCH   1   6
TORSDOF 4
ENDMDL
MODEL 4
REMARK VINA RESULT:      -7.0      0.612      1.876
REMARK SMILES O=C(O)CCc1ccccc1
REMARK SMILES IDX 4 1 2 2 1 3 3 4 5 6 6 7 7 8 11 9 8 10 10 11 9 12
REMARK H PARENT 3 5
REMARK Flexibility Score: inf
ROOT
ATOM      1  C   UNL     1       8.018  -0.760  -2.065  1.00  0.00     0.127 C 
ENDROOT
BRANCH   1   2
ATOM      2  C   UNL     1       8.193  -1.925  -2.964  1.00  0.00     0.303 C 
ATOM      3  O   UNL     1       7.207  -2.479  -3.511  1.00  0.00    -0.252 OA
BRANCH   2   4
ATOM      4  O   UNL     1       9.454  -2.437  -3.225  1.00  0.00    -0.481 OA
ATOM      5  H   UNL     1       9.957  -2.932  -2.484  1.00  0.00     0.296 HD
ENDBRANCH   2   4
ENDBRANCH   1   2
BRANCH   1   6
ATOM      6  C   UNL     1       7.356  -1.231  -0.806  1.00  0.00     0.047 C 
BRANCH   6   7
ATOM      7  C   UNL     1       6.518  -0.222  -0.161  1.00  0.00    -0.047 A 
ATOM      8  C   UNL     1       6.086  -0.391   1.134  1.00  0.00     0.004 A 
ATOM      9  C   UNL     1       6.165   0.906  -0.864  1.00  0.00     0.004 A 
ATOM     10  C   UNL     1       5.289   0.614   1.687  1.00  0.00     0.000 A 
ATOM     11  C   UNL     1       5.377   1.898  -0.316  1.00  0.00     0.000 A 
ATOM     12  C   UNL     1       4.938   1.737   0.981  1.00  0.00     0.000 A 
ENDBRANCH   6   7
ENDBRANCH   1   6
TORSDOF 4
ENDMDL
MODEL 5
REMARK VINA RESULT:      -6.8      3.369      5.083
REMARK SMILES O=C(O)CCc1ccccc1
REMARK SMILES IDX 4 1 2 2 1 3 3 4 5 6 6 7 7 8 11 9 8 10 10 11 9 12
REMARK H PARENT 3 5
REMARK Flexibility Score: inf
ROOT
ATOM      1  C   UNL     1       4.987   1.757   0.677  1.00  0.00     0.127 C 
ENDROOT
BRANCH   1   2
ATOM      2  C   UNL     1       4.479   1.105   1.906  1.00  0.00     0.303 C 
ATOM      3  O   UNL     1       5.138   0.208   2.488  1.00  0.00    -0.252 OA
BRANCH   2   4
ATOM      4  O   UNL     1       3.257   1.468   2.449  1.00  0.00    -0.481 OA
ATOM      5  H   UNL     1       3.236   2.039   3.299  1.00  0.00     0.296 HD
ENDBRANCH   2   4
ENDBRANCH   1   2
BRANCH   1   6
ATOM      6  C   UNL     1       6.485   1.760   0.731  1.00  0.00     0.047 C 
BRANCH   6   7
ATOM      7  C   UNL     1       7.120   1.009  -0.350  1.00  0.00    -0.047 A 
ATOM      8  C   UNL     1       6.403   0.098  -1.090  1.00  0.00     0.004 A 
ATOM      9  C   UNL     1       8.451   1.224  -0.626  1.00  0.00     0.004 A 
ATOM     10  C   UNL     1       7.074  -0.583  -2.108  1.00  0.00     0.000 A 
ATOM     11  C   UNL     1       9.113   0.550  -1.632  1.00  0.00     0.000 A 
ATOM     12  C   UNL     1       8.402  -0.365  -2.377  1.00  0.00     0.000 A 
ENDBRANCH   6   7
ENDBRANCH   1   6
TORSDOF 4
ENDMDL
