@<TRIPOS>MOLECULE
/home/cewinharhar/GITHUB/reincatalyze/data/processed/docking_pred/2023-Apr-26-1657_maxeplen10_maxtrainstep1000_exh32_gamma099_lrac9e-4_lrcr1e-3/bb509c9d750c31c787a0dfaad7ceec12964b61ea_ligand_2.pdbqt
 12 12 0 0 0
SMALL
GASTEIGER

@<TRIPOS>ATOM
      1  C          8.4240   -0.5760   -2.2100 C.3     1  UNL1        0.1270
      2  C          8.4680   -1.8780   -2.9160 C.2     1  UNL1        0.3030
      3  O          9.5500   -2.4950   -3.0770 O.2     1  UNL1       -0.2520
      4  O          7.3120   -2.4510   -3.4210 O.3     1  UNL1       -0.4810
      5  H          6.5380   -1.8470   -3.7100 H       1  UNL1        0.2960
      6  C          6.9990   -0.1150   -2.1600 C.3     1  UNL1        0.0470
      7  C          6.4750    0.0490   -0.8060 C.2     1  UNL1       -0.0470
      8  C          6.6120   -0.9520    0.1280 C.2     1  UNL1        0.0040
      9  C          5.8400    1.2220   -0.4690 C.2     1  UNL1        0.0040
     10  C          6.0880   -0.7260    1.4020 C.2     1  UNL1        0.0000
     11  C          5.3220    1.4430    0.7910 C.2     1  UNL1        0.0000
     12  C          5.4550    0.4450    1.7320 C.2     1  UNL1        0.0000
@<TRIPOS>BOND
     1     5     4    1
     2     4     2    1
     3     3     2    2
     4     2     1    1
     5     1     6    1
     6     6     7    1
     7     7     9    2
     8     7     8    1
     9     9    11    1
    10     8    10    2
    11    11    12    2
    12    10    12    1
