@<TRIPOS>MOLECULE
/home/cewinharhar/GITHUB/reincatalyze/data/processed/docking_pred/2023-Apr-26-1657_maxeplen10_maxtrainstep1000_exh32_gamma099_lrac9e-4_lrcr1e-3/bb509c9d750c31c787a0dfaad7ceec12964b61ea_ligand_2.pdbqt
 12 12 0 0 0
SMALL
GASTEIGER

@<TRIPOS>ATOM
      1  C          8.2860   -0.9420   -1.8100 C.3     1  UNL1        0.1270
      2  C          8.4360   -2.0020   -2.8340 C.2     1  UNL1        0.3030
      3  O          9.5650   -2.4650   -3.1320 O.2     1  UNL1       -0.2520
      4  O          7.3300   -2.5140   -3.4930 O.3     1  UNL1       -0.4810
      5  H          6.4100   -2.1000   -3.3230 H       1  UNL1        0.2960
      6  C          7.2440   -1.3800   -0.8260 C.3     1  UNL1        0.0470
      7  C          6.4850   -0.2800   -0.2340 C.2     1  UNL1       -0.0470
      8  C          6.1620    0.8310   -0.9770 C.2     1  UNL1        0.0040
      9  C          6.0920   -0.3680    1.0810 C.2     1  UNL1        0.0040
     10  C          5.4340    1.8430   -0.3470 C.2     1  UNL1        0.0000
     11  C          5.3730    0.6340    1.7030 C.2     1  UNL1        0.0000
     12  C          5.0460    1.7510    0.9660 C.2     1  UNL1        0.0000
@<TRIPOS>BOND
     1     4     5    1
     2     4     2    1
     3     3     2    2
     4     2     1    1
     5     1     6    1
     6     8    10    1
     7     8     7    2
     8     6     7    1
     9    10    12    2
    10     7     9    1
    11    12    11    1
    12     9    11    2
