@<TRIPOS>MOLECULE
/home/cewinharhar/GITHUB/reincatalyze/data/processed/docking_pred/2023-Apr-26-1657_maxeplen10_maxtrainstep1000_exh32_gamma099_lrac9e-4_lrcr1e-3/bb509c9d750c31c787a0dfaad7ceec12964b61ea_ligand_2.pdbqt
 12 12 0 0 0
SMALL
GASTEIGER

@<TRIPOS>ATOM
      1  C          8.0180   -0.7600   -2.0650 C.3     1  UNL1        0.1270
      2  C          8.1930   -1.9250   -2.9640 C.2     1  UNL1        0.3030
      3  O          7.2070   -2.4790   -3.5110 O.2     1  UNL1       -0.2520
      4  O          9.4540   -2.4370   -3.2250 O.3     1  UNL1       -0.4810
      5  H          9.9570   -2.9320   -2.4840 H       1  UNL1        0.2960
      6  C          7.3560   -1.2310   -0.8060 C.3     1  UNL1        0.0470
      7  C          6.5180   -0.2220   -0.1610 C.2     1  UNL1       -0.0470
      8  C          6.0860   -0.3910    1.1340 C.2     1  UNL1        0.0040
      9  C          6.1650    0.9060   -0.8640 C.2     1  UNL1        0.0040
     10  C          5.2890    0.6140    1.6870 C.2     1  UNL1        0.0000
     11  C          5.3770    1.8980   -0.3160 C.2     1  UNL1        0.0000
     12  C          4.9380    1.7370    0.9810 C.2     1  UNL1        0.0000
@<TRIPOS>BOND
     1     3     2    2
     2     4     2    1
     3     4     5    1
     4     2     1    1
     5     1     6    1
     6     9    11    1
     7     9     7    2
     8     6     7    1
     9    11    12    2
    10     7     8    1
    11    12    10    1
    12     8    10    2
