@<TRIPOS>MOLECULE
/home/cewinharhar/GITHUB/reincatalyze/data/processed/docking_pred/2023-Apr-26-1657_maxeplen10_maxtrainstep1000_exh32_gamma099_lrac9e-4_lrcr1e-3/bb509c9d750c31c787a0dfaad7ceec12964b61ea_ligand_2.pdbqt
 12 12 0 0 0
SMALL
GASTEIGER

@<TRIPOS>ATOM
      1  C          8.4410   -0.6570   -2.0820 C.3     1  UNL1        0.1270
      2  C          8.4660   -1.9090   -2.8760 C.2     1  UNL1        0.3030
      3  O          9.5410   -2.5220   -3.0880 O.2     1  UNL1       -0.2520
      4  O          7.3000   -2.4360   -3.4060 O.3     1  UNL1       -0.4810
      5  H          7.3610   -3.1790   -4.1080 H       1  UNL1        0.2960
      6  C          7.0430   -0.1180   -2.0980 C.3     1  UNL1        0.0470
      7  C          6.4680    0.0820   -0.7690 C.2     1  UNL1       -0.0470
      8  C          5.8340    1.2600   -0.4470 C.2     1  UNL1        0.0040
      9  C          6.5650   -0.9250    0.1630 C.2     1  UNL1        0.0040
     10  C          5.3070    1.3820    0.8410 C.2     1  UNL1        0.0000
     11  C          6.0440   -0.8030    1.4360 C.2     1  UNL1        0.0000
     12  C          5.4080    0.3740    1.7670 C.2     1  UNL1        0.0000
@<TRIPOS>BOND
     1     5     4    1
     2     4     2    1
     3     3     2    2
     4     2     1    1
     5     6     1    1
     6     6     7    1
     7     7     8    2
     8     7     9    1
     9     8    10    1
    10     9    11    2
    11    10    12    2
    12    11    12    1
