@<TRIPOS>MOLECULE
/home/cewinharhar/GITHUB/reincatalyze/data/processed/docking_pred/2023-Apr-26-1657_maxeplen10_maxtrainstep1000_exh32_gamma099_lrac9e-4_lrcr1e-3/bb509c9d750c31c787a0dfaad7ceec12964b61ea_ligand_2.pdbqt
 12 12 0 0 0
SMALL
GASTEIGER

@<TRIPOS>ATOM
      1  C          4.9870    1.7570    0.6770 C.3     1  UNL1        0.1270
      2  C          4.4790    1.1050    1.9060 C.2     1  UNL1        0.3030
      3  O          5.1380    0.2080    2.4880 O.2     1  UNL1       -0.2520
      4  O          3.2570    1.4680    2.4490 O.3     1  UNL1       -0.4810
      5  H          3.2360    2.0390    3.2990 H       1  UNL1        0.2960
      6  C          6.4850    1.7600    0.7310 C.3     1  UNL1        0.0470
      7  C          7.1200    1.0090   -0.3500 C.2     1  UNL1       -0.0470
      8  C          6.4030    0.0980   -1.0900 C.2     1  UNL1        0.0040
      9  C          8.4510    1.2240   -0.6260 C.2     1  UNL1        0.0040
     10  C          7.0740   -0.5830   -2.1080 C.2     1  UNL1        0.0000
     11  C          9.1130    0.5500   -1.6320 C.2     1  UNL1        0.0000
     12  C          8.4020   -0.3650   -2.3770 C.2     1  UNL1        0.0000
@<TRIPOS>BOND
     1    12    10    2
     2    12    11    1
     3    10     8    1
     4    11     9    2
     5     8     7    2
     6     9     7    1
     7     7     6    1
     8     1     6    1
     9     1     2    1
    10     2     4    1
    11     2     3    2
    12     4     5    1
