MODEL 1
REMARK VINA RESULT:      -7.3      0.000      0.000
REMARK SMILES O=C(O)CCc1ccccc1
REMARK SMILES IDX 4 1 2 2 1 3 3 4 5 6 6 7 7 8 11 9 8 10 10 11 9 12
REMARK H PARENT 3 5
REMARK Flexibility Score: inf
ROOT
ATOM      1  C   UNL     1       8.431  -0.607  -2.157  1.00  0.00     0.127 C 
ENDROOT
BRANCH   1   2
ATOM      2  C   UNL     1       8.469  -1.885  -2.906  1.00  0.00     0.303 C 
ATOM      3  O   UNL     1       9.550  -2.494  -3.098  1.00  0.00    -0.252 OA
BRANCH   2   4
ATOM      4  O   UNL     1       7.309  -2.443  -3.418  1.00  0.00    -0.481 OA
ATOM      5  H   UNL     1       7.040  -3.389  -3.134  1.00  0.00     0.296 HD
ENDBRANCH   2   4
ENDBRANCH   1   2
BRANCH   1   6
ATOM      6  C   UNL     1       7.013  -0.124  -2.122  1.00  0.00     0.047 C 
BRANCH   6   7
ATOM      7  C   UNL     1       6.476   0.046  -0.772  1.00  0.00    -0.047 A 
ATOM      8  C   UNL     1       5.847   1.213  -0.408  1.00  0.00     0.004 A 
ATOM      9  C   UNL     1       6.605  -0.980   0.135  1.00  0.00     0.004 A 
ATOM     10  C   UNL     1       5.357   1.306   0.897  1.00  0.00     0.000 A 
ATOM     11  C   UNL     1       6.121  -0.887   1.425  1.00  0.00     0.000 A 
ATOM     12  C   UNL     1       5.489   0.280   1.799  1.00  0.00     0.000 A 
ENDBRANCH   6   7
ENDBRANCH   1   6
TORSDOF 4
ENDMDL
MODEL 2
REMARK VINA RESULT:      -7.3      0.071      1.438
REMARK SMILES O=C(O)CCc1ccccc1
REMARK SMILES IDX 4 1 2 2 1 3 3 4 5 6 6 7 7 8 11 9 8 10 10 11 9 12
REMARK H PARENT 3 5
REMARK Flexibility Score: inf
ROOT
ATOM      1  C   UNL     1       8.467  -0.655  -2.107  1.00  0.00     0.127 C 
ENDROOT
BRANCH   1   2
ATOM      2  C   UNL     1       8.479  -1.909  -2.897  1.00  0.00     0.303 C 
ATOM      3  O   UNL     1       9.546  -2.539  -3.102  1.00  0.00    -0.252 OA
BRANCH   2   4
ATOM      4  O   UNL     1       7.308  -2.423  -3.431  1.00  0.00    -0.481 OA
ATOM      5  H   UNL     1       6.665  -2.940  -2.825  1.00  0.00     0.296 HD
ENDBRANCH   2   4
ENDBRANCH   1   2
BRANCH   1   6
ATOM      6  C   UNL     1       7.062  -0.135  -2.070  1.00  0.00     0.047 C 
BRANCH   6   7
ATOM      7  C   UNL     1       6.515   0.002  -0.722  1.00  0.00    -0.047 A 
ATOM      8  C   UNL     1       6.668  -1.003   0.205  1.00  0.00     0.004 A 
ATOM      9  C   UNL     1       5.841   1.153  -0.385  1.00  0.00     0.004 A 
ATOM     10  C   UNL     1       6.120  -0.803   1.474  1.00  0.00     0.000 A 
ATOM     11  C   UNL     1       5.300   1.349   0.870  1.00  0.00     0.000 A 
ATOM     12  C   UNL     1       5.449   0.347   1.805  1.00  0.00     0.000 A 
ENDBRANCH   6   7
ENDBRANCH   1   6
TORSDOF 4
ENDMDL
MODEL 3
REMARK VINA RESULT:      -7.2      0.624      1.620
REMARK SMILES O=C(O)CCc1ccccc1
REMARK SMILES IDX 4 1 2 2 1 3 3 4 5 6 6 7 7 8 11 9 8 10 10 11 9 12
REMARK H PARENT 3 5
REMARK Flexibility Score: inf
ROOT
ATOM      1  C   UNL     1       8.153  -0.801  -1.994  1.00  0.00     0.127 C 
ENDROOT
BRANCH   1   2
ATOM      2  C   UNL     1       8.347  -1.970  -2.884  1.00  0.00     0.303 C 
ATOM      3  O   UNL     1       9.484  -2.476  -3.055  1.00  0.00    -0.252 OA
BRANCH   2   4
ATOM      4  O   UNL     1       7.276  -2.537  -3.555  1.00  0.00    -0.481 OA
ATOM      5  H   UNL     1       6.323  -2.310  -3.259  1.00  0.00     0.296 HD
ENDBRANCH   2   4
ENDBRANCH   1   2
BRANCH   1   6
ATOM      6  C   UNL     1       7.473  -1.269  -0.744  1.00  0.00     0.047 C 
BRANCH   6   7
ATOM      7  C   UNL     1       6.604  -0.267  -0.129  1.00  0.00    -0.047 A 
ATOM      8  C   UNL     1       6.168  -0.415   1.168  1.00  0.00     0.004 A 
ATOM      9  C   UNL     1       6.224   0.833  -0.862  1.00  0.00     0.004 A 
ATOM     10  C   UNL     1       5.341   0.582   1.691  1.00  0.00     0.000 A 
ATOM     11  C   UNL     1       5.406   1.817  -0.343  1.00  0.00     0.000 A 
ATOM     12  C   UNL     1       4.965   1.677   0.955  1.00  0.00     0.000 A 
ENDBRANCH   6   7
ENDBRANCH   1   6
TORSDOF 4
ENDMDL
MODEL 4
REMARK VINA RESULT:      -7.1      0.705      1.508
REMARK SMILES O=C(O)CCc1ccccc1
REMARK SMILES IDX 4 1 2 2 1 3 3 4 5 6 6 7 7 8 11 9 8 10 10 11 9 12
REMARK H PARENT 3 5
REMARK Flexibility Score: inf
ROOT
ATOM      1  C   UNL     1       8.328  -1.023  -1.706  1.00  0.00     0.127 C 
ENDROOT
BRANCH   1   2
ATOM      2  C   UNL     1       8.352  -2.021  -2.800  1.00  0.00     0.303 C 
ATOM      3  O   UNL     1       7.289  -2.451  -3.312  1.00  0.00    -0.252 OA
BRANCH   2   4
ATOM      4  O   UNL     1       9.553  -2.509  -3.290  1.00  0.00    -0.481 OA
ATOM      5  H   UNL     1       9.936  -2.119  -4.155  1.00  0.00     0.296 HD
ENDBRANCH   2   4
ENDBRANCH   1   2
BRANCH   1   6
ATOM      6  C   UNL     1       7.289  -1.440  -0.710  1.00  0.00     0.047 C 
BRANCH   6   7
ATOM      7  C   UNL     1       6.507  -0.331  -0.167  1.00  0.00    -0.047 A 
ATOM      8  C   UNL     1       6.210   0.767  -0.941  1.00  0.00     0.004 A 
ATOM      9  C   UNL     1       6.066  -0.394   1.135  1.00  0.00     0.004 A 
ATOM     10  C   UNL     1       5.458   1.788  -0.357  1.00  0.00     0.000 A 
ATOM     11  C   UNL     1       5.324   0.617   1.711  1.00  0.00     0.000 A 
ATOM     12  C   UNL     1       5.022   1.720   0.942  1.00  0.00     0.000 A 
ENDBRANCH   6   7
ENDBRANCH   1   6
TORSDOF 4
ENDMDL
MODEL 5
REMARK VINA RESULT:      -6.8      3.379      5.044
REMARK SMILES O=C(O)CCc1ccccc1
REMARK SMILES IDX 4 1 2 2 1 3 3 4 5 6 6 7 7 8 11 9 8 10 10 11 9 12
REMARK H PARENT 3 5
REMARK Flexibility Score: inf
ROOT
ATOM      1  C   UNL     1       5.017   1.742   0.688  1.00  0.00     0.127 C 
ENDROOT
BRANCH   1   2
ATOM      2  C   UNL     1       4.489   1.098   1.913  1.00  0.00     0.303 C 
ATOM      3  O   UNL     1       5.134   0.198   2.506  1.00  0.00    -0.252 OA
BRANCH   2   4
ATOM      4  O   UNL     1       3.264   1.473   2.441  1.00  0.00    -0.481 OA
ATOM      5  H   UNL     1       3.230   1.920   3.361  1.00  0.00     0.296 HD
ENDBRANCH   2   4
ENDBRANCH   1   2
BRANCH   1   6
ATOM      6  C   UNL     1       6.514   1.731   0.758  1.00  0.00     0.047 C 
BRANCH   6   7
ATOM      7  C   UNL     1       7.154   0.997  -0.332  1.00  0.00    -0.047 A 
ATOM      8  C   UNL     1       8.459   1.257  -0.684  1.00  0.00     0.004 A 
ATOM      9  C   UNL     1       6.438   0.036  -1.008  1.00  0.00     0.004 A 
ATOM     10  C   UNL     1       9.007   0.517  -1.734  1.00  0.00     0.000 A 
ATOM     11  C   UNL     1       6.981  -0.694  -2.046  1.00  0.00     0.000 A 
ATOM     12  C   UNL     1       8.287  -0.439  -2.404  1.00  0.00     0.000 A 
ENDBRANCH   6   7
ENDBRANCH   1   6
TORSDOF 4
ENDMDL
