@<TRIPOS>MOLECULE
/home/cewinharhar/GITHUB/reincatalyze/data/processed/docking_pred/2023-Apr-26-1657_maxeplen10_maxtrainstep1000_exh32_gamma099_lrac9e-4_lrcr1e-3/bb8285001221c2ec88d34c7e342a921234d5c761_ligand_2.pdbqt
 12 12 0 0 0
SMALL
GASTEIGER

@<TRIPOS>ATOM
      1  C          8.3280   -1.0230   -1.7060 C.3     1  UNL1        0.1270
      2  C          8.3520   -2.0210   -2.8000 C.2     1  UNL1        0.3030
      3  O          7.2890   -2.4510   -3.3120 O.2     1  UNL1       -0.2520
      4  O          9.5530   -2.5090   -3.2900 O.3     1  UNL1       -0.4810
      5  H          9.9360   -2.1190   -4.1550 H       1  UNL1        0.2960
      6  C          7.2890   -1.4400   -0.7100 C.3     1  UNL1        0.0470
      7  C          6.5070   -0.3310   -0.1670 C.2     1  UNL1       -0.0470
      8  C          6.2100    0.7670   -0.9410 C.2     1  UNL1        0.0040
      9  C          6.0660   -0.3940    1.1350 C.2     1  UNL1        0.0040
     10  C          5.4580    1.7880   -0.3570 C.2     1  UNL1        0.0000
     11  C          5.3240    0.6170    1.7110 C.2     1  UNL1        0.0000
     12  C          5.0220    1.7200    0.9420 C.2     1  UNL1        0.0000
@<TRIPOS>BOND
     1     5     4    1
     2     3     2    2
     3     4     2    1
     4     2     1    1
     5     1     6    1
     6     8    10    1
     7     8     7    2
     8     6     7    1
     9    10    12    2
    10     7     9    1
    11    12    11    1
    12     9    11    2
