@<TRIPOS>MOLECULE
/home/cewinharhar/GITHUB/reincatalyze/data/processed/docking_pred/2023-Apr-26-1657_maxeplen10_maxtrainstep1000_exh32_gamma099_lrac9e-4_lrcr1e-3/bb8285001221c2ec88d34c7e342a921234d5c761_ligand_2.pdbqt
 12 12 0 0 0
SMALL
GASTEIGER

@<TRIPOS>ATOM
      1  C          8.4310   -0.6070   -2.1570 C.3     1  UNL1        0.1270
      2  C          8.4690   -1.8850   -2.9060 C.2     1  UNL1        0.3030
      3  O          9.5500   -2.4940   -3.0980 O.2     1  UNL1       -0.2520
      4  O          7.3090   -2.4430   -3.4180 O.3     1  UNL1       -0.4810
      5  H          7.0400   -3.3890   -3.1340 H       1  UNL1        0.2960
      6  C          7.0130   -0.1240   -2.1220 C.3     1  UNL1        0.0470
      7  C          6.4760    0.0460   -0.7720 C.2     1  UNL1       -0.0470
      8  C          5.8470    1.2130   -0.4080 C.2     1  UNL1        0.0040
      9  C          6.6050   -0.9800    0.1350 C.2     1  UNL1        0.0040
     10  C          5.3570    1.3060    0.8970 C.2     1  UNL1        0.0000
     11  C          6.1210   -0.8870    1.4250 C.2     1  UNL1        0.0000
     12  C          5.4890    0.2800    1.7990 C.2     1  UNL1        0.0000
@<TRIPOS>BOND
     1     4     5    1
     2     4     2    1
     3     3     2    2
     4     2     1    1
     5     1     6    1
     6     6     7    1
     7     7     8    2
     8     7     9    1
     9     8    10    1
    10     9    11    2
    11    10    12    2
    12    11    12    1
