@<TRIPOS>MOLECULE
/home/cewinharhar/GITHUB/reincatalyze/data/processed/docking_pred/2023-Apr-26-1657_maxeplen10_maxtrainstep1000_exh32_gamma099_lrac9e-4_lrcr1e-3/bb8285001221c2ec88d34c7e342a921234d5c761_ligand_2.pdbqt
 12 12 0 0 0
SMALL
GASTEIGER

@<TRIPOS>ATOM
      1  C          5.0170    1.7420    0.6880 C.3     1  UNL1        0.1270
      2  C          4.4890    1.0980    1.9130 C.2     1  UNL1        0.3030
      3  O          5.1340    0.1980    2.5060 O.2     1  UNL1       -0.2520
      4  O          3.2640    1.4730    2.4410 O.3     1  UNL1       -0.4810
      5  H          3.2300    1.9200    3.3610 H       1  UNL1        0.2960
      6  C          6.5140    1.7310    0.7580 C.3     1  UNL1        0.0470
      7  C          7.1540    0.9970   -0.3320 C.2     1  UNL1       -0.0470
      8  C          8.4590    1.2570   -0.6840 C.2     1  UNL1        0.0040
      9  C          6.4380    0.0360   -1.0080 C.2     1  UNL1        0.0040
     10  C          9.0070    0.5170   -1.7340 C.2     1  UNL1        0.0000
     11  C          6.9810   -0.6940   -2.0460 C.2     1  UNL1        0.0000
     12  C          8.2870   -0.4390   -2.4040 C.2     1  UNL1        0.0000
@<TRIPOS>BOND
     1    12    11    2
     2    12    10    1
     3    11     9    1
     4    10     8    2
     5     9     7    2
     6     8     7    1
     7     7     6    1
     8     1     6    1
     9     1     2    1
    10     2     4    1
    11     2     3    2
    12     4     5    1
