@<TRIPOS>MOLECULE
/home/cewinharhar/GITHUB/reincatalyze/data/processed/docking_pred/2023-Apr-26-1657_maxeplen10_maxtrainstep1000_exh32_gamma099_lrac9e-4_lrcr1e-3/bb8285001221c2ec88d34c7e342a921234d5c761_ligand_2.pdbqt
 12 12 0 0 0
SMALL
GASTEIGER

@<TRIPOS>ATOM
      1  C          8.4670   -0.6550   -2.1070 C.3     1  UNL1        0.1270
      2  C          8.4790   -1.9090   -2.8970 C.2     1  UNL1        0.3030
      3  O          9.5460   -2.5390   -3.1020 O.2     1  UNL1       -0.2520
      4  O          7.3080   -2.4230   -3.4310 O.3     1  UNL1       -0.4810
      5  H          6.6650   -2.9400   -2.8250 H       1  UNL1        0.2960
      6  C          7.0620   -0.1350   -2.0700 C.3     1  UNL1        0.0470
      7  C          6.5150    0.0020   -0.7220 C.2     1  UNL1       -0.0470
      8  C          6.6680   -1.0030    0.2050 C.2     1  UNL1        0.0040
      9  C          5.8410    1.1530   -0.3850 C.2     1  UNL1        0.0040
     10  C          6.1200   -0.8030    1.4740 C.2     1  UNL1        0.0000
     11  C          5.3000    1.3490    0.8700 C.2     1  UNL1        0.0000
     12  C          5.4490    0.3470    1.8050 C.2     1  UNL1        0.0000
@<TRIPOS>BOND
     1     4     2    1
     2     4     5    1
     3     3     2    2
     4     2     1    1
     5     1     6    1
     6     6     7    1
     7     7     9    2
     8     7     8    1
     9     9    11    1
    10     8    10    2
    11    11    12    2
    12    10    12    1
