@<TRIPOS>MOLECULE
/home/cewinharhar/GITHUB/reincatalyze/data/processed/docking_pred/2023-Apr-26-1657_maxeplen10_maxtrainstep1000_exh32_gamma099_lrac9e-4_lrcr1e-3/bde4f716ac8ce10fa2b7126593b1b8cc9fcb83f2_ligand_2.pdbqt
 12 12 0 0 0
SMALL
GASTEIGER

@<TRIPOS>ATOM
      1  C          8.2440    0.2910   -2.2040 C.3     1  UNL1        0.1270
      2  C          9.3650    0.3660   -1.2380 C.2     1  UNL1        0.3030
      3  O          9.4340   -0.4180   -0.2590 O.2     1  UNL1       -0.2520
      4  O         10.3710    1.3060   -1.3900 O.3     1  UNL1       -0.4810
      5  H         11.3060    1.1030   -1.0250 H       1  UNL1        0.2960
      6  C          7.1170   -0.4590   -1.5610 C.3     1  UNL1        0.0470
      7  C          6.3240    0.3420   -0.6300 C.2     1  UNL1       -0.0470
      8  C          5.7950    1.5510   -1.0170 C.2     1  UNL1        0.0040
      9  C          6.1090   -0.1280    0.6450 C.2     1  UNL1        0.0040
     10  C          5.0470    2.2620   -0.0760 C.2     1  UNL1        0.0000
     11  C          5.3690    0.5760    1.5740 C.2     1  UNL1        0.0000
     12  C          4.8360    1.7890    1.1940 C.2     1  UNL1        0.0000
@<TRIPOS>BOND
     1     1     6    1
     2     1     2    1
     3     6     7    1
     4     4     2    1
     5     4     5    1
     6     2     3    2
     7     8     7    2
     8     8    10    1
     9     7     9    1
    10    10    12    2
    11     9    11    2
    12    12    11    1
