@<TRIPOS>MOLECULE
/home/cewinharhar/GITHUB/reincatalyze/data/processed/docking_pred/2023-Apr-26-1657_maxeplen10_maxtrainstep1000_exh32_gamma099_lrac9e-4_lrcr1e-3/bde4f716ac8ce10fa2b7126593b1b8cc9fcb83f2_ligand_2.pdbqt
 12 12 0 0 0
SMALL
GASTEIGER

@<TRIPOS>ATOM
      1  C          8.4160   -0.5540   -2.2460 C.3     1  UNL1        0.1270
      2  C          8.4690   -1.8700   -2.9260 C.2     1  UNL1        0.3030
      3  O          9.5540   -2.4860   -3.0670 O.2     1  UNL1       -0.2520
      4  O          7.3180   -2.4570   -3.4270 O.3     1  UNL1       -0.4810
      5  H          7.2710   -2.6990   -4.4200 H       1  UNL1        0.2960
      6  C          6.9850   -0.1170   -2.1770 C.3     1  UNL1        0.0470
      7  C          6.4750    0.0350   -0.8160 C.2     1  UNL1       -0.0470
      8  C          6.6130   -0.9780    0.1040 C.2     1  UNL1        0.0040
      9  C          5.8530    1.2090   -0.4590 C.2     1  UNL1        0.0040
     10  C          6.1030   -0.7630    1.3870 C.2     1  UNL1        0.0000
     11  C          5.3490    1.4200    0.8090 C.2     1  UNL1        0.0000
     12  C          5.4820    0.4090    1.7370 C.2     1  UNL1        0.0000
@<TRIPOS>BOND
     1     5     4    1
     2     4     2    1
     3     3     2    2
     4     2     1    1
     5     1     6    1
     6     6     7    1
     7     7     9    2
     8     7     8    1
     9     9    11    1
    10     8    10    2
    11    11    12    2
    12    10    12    1
