@<TRIPOS>MOLECULE
/home/cewinharhar/GITHUB/reincatalyze/data/processed/docking_pred/2023-Apr-26-1657_maxeplen10_maxtrainstep1000_exh32_gamma099_lrac9e-4_lrcr1e-3/bde4f716ac8ce10fa2b7126593b1b8cc9fcb83f2_ligand_2.pdbqt
 12 12 0 0 0
SMALL
GASTEIGER

@<TRIPOS>ATOM
      1  C          8.4380   -0.6500   -2.0900 C.3     1  UNL1        0.1270
      2  C          8.4620   -1.9040   -2.8800 C.2     1  UNL1        0.3030
      3  O          9.5360   -2.5210   -3.0890 O.2     1  UNL1       -0.2520
      4  O          7.2960   -2.4300   -3.4120 O.3     1  UNL1       -0.4810
      5  H          6.9670   -2.0990   -4.3230 H       1  UNL1        0.2960
      6  C          7.0350   -0.1260   -2.0820 C.3     1  UNL1        0.0470
      7  C          6.4750    0.0540   -0.7440 C.2     1  UNL1       -0.0470
      8  C          5.8450    1.2260   -0.3960 C.2     1  UNL1        0.0040
      9  C          6.5830   -0.9670    0.1720 C.2     1  UNL1        0.0040
     10  C          5.3330    1.3280    0.8990 C.2     1  UNL1        0.0000
     11  C          6.0760   -0.8650    1.4520 C.2     1  UNL1        0.0000
     12  C          5.4440    0.3060    1.8080 C.2     1  UNL1        0.0000
@<TRIPOS>BOND
     1     5     4    1
     2     4     2    1
     3     3     2    2
     4     2     1    1
     5     1     6    1
     6     6     7    1
     7     7     8    2
     8     7     9    1
     9     8    10    1
    10     9    11    2
    11    10    12    2
    12    11    12    1
