MODEL 1
REMARK VINA RESULT:      -7.3      0.000      0.000
REMARK SMILES O=C(O)CCc1ccccc1
REMARK SMILES IDX 4 1 2 2 1 3 3 4 5 6 6 7 7 8 11 9 8 10 10 11 9 12
REMARK H PARENT 3 5
REMARK Flexibility Score: inf
ROOT
ATOM      1  C   UNL     1       8.438  -0.650  -2.090  1.00  0.00     0.127 C 
ENDROOT
BRANCH   1   2
ATOM      2  C   UNL     1       8.462  -1.904  -2.880  1.00  0.00     0.303 C 
ATOM      3  O   UNL     1       9.536  -2.521  -3.089  1.00  0.00    -0.252 OA
BRANCH   2   4
ATOM      4  O   UNL     1       7.296  -2.430  -3.412  1.00  0.00    -0.481 OA
ATOM      5  H   UNL     1       6.967  -2.099  -4.323  1.00  0.00     0.296 HD
ENDBRANCH   2   4
ENDBRANCH   1   2
BRANCH   1   6
ATOM      6  C   UNL     1       7.035  -0.126  -2.082  1.00  0.00     0.047 C 
BRANCH   6   7
ATOM      7  C   UNL     1       6.475   0.054  -0.744  1.00  0.00    -0.047 A 
ATOM      8  C   UNL     1       5.845   1.226  -0.396  1.00  0.00     0.004 A 
ATOM      9  C   UNL     1       6.583  -0.967   0.172  1.00  0.00     0.004 A 
ATOM     10  C   UNL     1       5.333   1.328   0.899  1.00  0.00     0.000 A 
ATOM     11  C   UNL     1       6.076  -0.865   1.452  1.00  0.00     0.000 A 
ATOM     12  C   UNL     1       5.444   0.306   1.808  1.00  0.00     0.000 A 
ENDBRANCH   6   7
ENDBRANCH   1   6
TORSDOF 4
ENDMDL
MODEL 2
REMARK VINA RESULT:      -7.3      0.103      1.440
REMARK SMILES O=C(O)CCc1ccccc1
REMARK SMILES IDX 4 1 2 2 1 3 3 4 5 6 6 7 7 8 11 9 8 10 10 11 9 12
REMARK H PARENT 3 5
REMARK Flexibility Score: inf
ROOT
ATOM      1  C   UNL     1       8.416  -0.554  -2.246  1.00  0.00     0.127 C 
ENDROOT
BRANCH   1   2
ATOM      2  C   UNL     1       8.469  -1.870  -2.926  1.00  0.00     0.303 C 
ATOM      3  O   UNL     1       9.554  -2.486  -3.067  1.00  0.00    -0.252 OA
BRANCH   2   4
ATOM      4  O   UNL     1       7.318  -2.457  -3.427  1.00  0.00    -0.481 OA
ATOM      5  H   UNL     1       7.271  -2.699  -4.420  1.00  0.00     0.296 HD
ENDBRANCH   2   4
ENDBRANCH   1   2
BRANCH   1   6
ATOM      6  C   UNL     1       6.985  -0.117  -2.177  1.00  0.00     0.047 C 
BRANCH   6   7
ATOM      7  C   UNL     1       6.475   0.035  -0.816  1.00  0.00    -0.047 A 
ATOM      8  C   UNL     1       6.613  -0.978   0.104  1.00  0.00     0.004 A 
ATOM      9  C   UNL     1       5.853   1.209  -0.459  1.00  0.00     0.004 A 
ATOM     10  C   UNL     1       6.103  -0.763   1.387  1.00  0.00     0.000 A 
ATOM     11  C   UNL     1       5.349   1.420   0.809  1.00  0.00     0.000 A 
ATOM     12  C   UNL     1       5.482   0.409   1.737  1.00  0.00     0.000 A 
ENDBRANCH   6   7
ENDBRANCH   1   6
TORSDOF 4
ENDMDL
MODEL 3
REMARK VINA RESULT:      -7.2      0.669      1.619
REMARK SMILES O=C(O)CCc1ccccc1
REMARK SMILES IDX 4 1 2 2 1 3 3 4 5 6 6 7 7 8 11 9 8 10 10 11 9 12
REMARK H PARENT 3 5
REMARK Flexibility Score: inf
ROOT
ATOM      1  C   UNL     1       8.339  -1.038  -1.681  1.00  0.00     0.127 C 
ENDROOT
BRANCH   1   2
ATOM      2  C   UNL     1       8.450  -2.027  -2.779  1.00  0.00     0.303 C 
ATOM      3  O   UNL     1       9.567  -2.470  -3.145  1.00  0.00    -0.252 OA
BRANCH   2   4
ATOM      4  O   UNL     1       7.321  -2.491  -3.433  1.00  0.00    -0.481 OA
ATOM      5  H   UNL     1       6.589  -2.964  -2.896  1.00  0.00     0.296 HD
ENDBRANCH   2   4
ENDBRANCH   1   2
BRANCH   1   6
ATOM      6  C   UNL     1       7.267  -1.498  -0.740  1.00  0.00     0.047 C 
BRANCH   6   7
ATOM      7  C   UNL     1       6.503  -0.410  -0.131  1.00  0.00    -0.047 A 
ATOM      8  C   UNL     1       6.086  -0.490   1.177  1.00  0.00     0.004 A 
ATOM      9  C   UNL     1       6.206   0.703  -0.883  1.00  0.00     0.004 A 
ATOM     10  C   UNL     1       5.361   0.587   1.693  1.00  0.00     0.000 A 
ATOM     11  C   UNL     1       5.489   1.767  -0.371  1.00  0.00     0.000 A 
ATOM     12  C   UNL     1       5.066   1.695   0.938  1.00  0.00     0.000 A 
ENDBRANCH   6   7
ENDBRANCH   1   6
TORSDOF 4
ENDMDL
MODEL 4
REMARK VINA RESULT:      -6.7      3.366      5.045
REMARK SMILES O=C(O)CCc1ccccc1
REMARK SMILES IDX 4 1 2 2 1 3 3 4 5 6 6 7 7 8 11 9 8 10 10 11 9 12
REMARK H PARENT 3 5
REMARK Flexibility Score: inf
ROOT
ATOM      1  C   UNL     1       5.030   1.767   0.684  1.00  0.00     0.127 C 
ENDROOT
BRANCH   1   2
ATOM      2  C   UNL     1       4.505   1.106   1.902  1.00  0.00     0.303 C 
ATOM      3  O   UNL     1       5.156   0.204   2.485  1.00  0.00    -0.252 OA
BRANCH   2   4
ATOM      4  O   UNL     1       3.276   1.466   2.431  1.00  0.00    -0.481 OA
ATOM      5  H   UNL     1       2.890   0.927   3.212  1.00  0.00     0.296 HD
ENDBRANCH   2   4
ENDBRANCH   1   2
BRANCH   1   6
ATOM      6  C   UNL     1       6.527   1.758   0.752  1.00  0.00     0.047 C 
BRANCH   6   7
ATOM      7  C   UNL     1       7.166   1.020  -0.336  1.00  0.00    -0.047 A 
ATOM      8  C   UNL     1       8.489   1.234  -0.650  1.00  0.00     0.004 A 
ATOM      9  C   UNL     1       6.430   0.101  -1.048  1.00  0.00     0.004 A 
ATOM     10  C   UNL     1       9.034   0.493  -1.700  1.00  0.00     0.000 A 
ATOM     11  C   UNL     1       6.971  -0.630  -2.087  1.00  0.00     0.000 A 
ATOM     12  C   UNL     1       8.294  -0.422  -2.407  1.00  0.00     0.000 A 
ENDBRANCH   6   7
ENDBRANCH   1   6
TORSDOF 4
ENDMDL
MODEL 5
REMARK VINA RESULT:      -6.6      1.937      2.319
REMARK SMILES O=C(O)CCc1ccccc1
REMARK SMILES IDX 4 1 2 2 1 3 3 4 5 6 6 7 7 8 11 9 8 10 10 11 9 12
REMARK H PARENT 3 5
REMARK Flexibility Score: inf
ROOT
ATOM      1  C   UNL     1       8.244   0.291  -2.204  1.00  0.00     0.127 C 
ENDROOT
BRANCH   1   2
ATOM      2  C   UNL     1       9.365   0.366  -1.238  1.00  0.00     0.303 C 
ATOM      3  O   UNL     1       9.434  -0.418  -0.259  1.00  0.00    -0.252 OA
BRANCH   2   4
ATOM      4  O   UNL     1      10.371   1.306  -1.390  1.00  0.00    -0.481 OA
ATOM      5  H   UNL     1      11.306   1.103  -1.025  1.00  0.00     0.296 HD
ENDBRANCH   2   4
ENDBRANCH   1   2
BRANCH   1   6
ATOM      6  C   UNL     1       7.117  -0.459  -1.561  1.00  0.00     0.047 C 
BRANCH   6   7
ATOM      7  C   UNL     1       6.324   0.342  -0.630  1.00  0.00    -0.047 A 
ATOM      8  C   UNL     1       5.795   1.551  -1.017  1.00  0.00     0.004 A 
ATOM      9  C   UNL     1       6.109  -0.128   0.645  1.00  0.00     0.004 A 
ATOM     10  C   UNL     1       5.047   2.262  -0.076  1.00  0.00     0.000 A 
ATOM     11  C   UNL     1       5.369   0.576   1.574  1.00  0.00     0.000 A 
ATOM     12  C   UNL     1       4.836   1.789   1.194  1.00  0.00     0.000 A 
ENDBRANCH   6   7
ENDBRANCH   1   6
TORSDOF 4
ENDMDL
