@<TRIPOS>MOLECULE
/home/cewinharhar/GITHUB/reincatalyze/data/processed/docking_pred/2023-Apr-26-1657_maxeplen10_maxtrainstep1000_exh32_gamma099_lrac9e-4_lrcr1e-3/bde4f716ac8ce10fa2b7126593b1b8cc9fcb83f2_ligand_2.pdbqt
 12 12 0 0 0
SMALL
GASTEIGER

@<TRIPOS>ATOM
      1  C          5.0300    1.7670    0.6840 C.3     1  UNL1        0.1270
      2  C          4.5050    1.1060    1.9020 C.2     1  UNL1        0.3030
      3  O          5.1560    0.2040    2.4850 O.2     1  UNL1       -0.2520
      4  O          3.2760    1.4660    2.4310 O.3     1  UNL1       -0.4810
      5  H          2.8900    0.9270    3.2120 H       1  UNL1        0.2960
      6  C          6.5270    1.7580    0.7520 C.3     1  UNL1        0.0470
      7  C          7.1660    1.0200   -0.3360 C.2     1  UNL1       -0.0470
      8  C          8.4890    1.2340   -0.6500 C.2     1  UNL1        0.0040
      9  C          6.4300    0.1010   -1.0480 C.2     1  UNL1        0.0040
     10  C          9.0340    0.4930   -1.7000 C.2     1  UNL1        0.0000
     11  C          6.9710   -0.6300   -2.0870 C.2     1  UNL1        0.0000
     12  C          8.2940   -0.4220   -2.4070 C.2     1  UNL1        0.0000
@<TRIPOS>BOND
     1    12    11    2
     2    12    10    1
     3    11     9    1
     4    10     8    2
     5     9     7    2
     6     8     7    1
     7     7     6    1
     8     1     6    1
     9     1     2    1
    10     2     4    1
    11     2     3    2
    12     4     5    1
