@<TRIPOS>MOLECULE
/home/cewinharhar/GITHUB/reincatalyze/data/processed/docking_pred/2023-Apr-26-1657_maxeplen10_maxtrainstep1000_exh32_gamma099_lrac9e-4_lrcr1e-3/bde4f716ac8ce10fa2b7126593b1b8cc9fcb83f2_ligand_2.pdbqt
 12 12 0 0 0
SMALL
GASTEIGER

@<TRIPOS>ATOM
      1  C          8.3390   -1.0380   -1.6810 C.3     1  UNL1        0.1270
      2  C          8.4500   -2.0270   -2.7790 C.2     1  UNL1        0.3030
      3  O          9.5670   -2.4700   -3.1450 O.2     1  UNL1       -0.2520
      4  O          7.3210   -2.4910   -3.4330 O.3     1  UNL1       -0.4810
      5  H          6.5890   -2.9640   -2.8960 H       1  UNL1        0.2960
      6  C          7.2670   -1.4980   -0.7400 C.3     1  UNL1        0.0470
      7  C          6.5030   -0.4100   -0.1310 C.2     1  UNL1       -0.0470
      8  C          6.0860   -0.4900    1.1770 C.2     1  UNL1        0.0040
      9  C          6.2060    0.7030   -0.8830 C.2     1  UNL1        0.0040
     10  C          5.3610    0.5870    1.6930 C.2     1  UNL1        0.0000
     11  C          5.4890    1.7670   -0.3710 C.2     1  UNL1        0.0000
     12  C          5.0660    1.6950    0.9380 C.2     1  UNL1        0.0000
@<TRIPOS>BOND
     1     4     5    1
     2     4     2    1
     3     3     2    2
     4     2     1    1
     5     1     6    1
     6     9    11    1
     7     9     7    2
     8     6     7    1
     9    11    12    2
    10     7     8    1
    11    12    10    1
    12     8    10    2
