@<TRIPOS>MOLECULE
/home/cewinharhar/GITHUB/reincatalyze/data/processed/docking_pred/2023-Apr-26-1657_maxeplen10_maxtrainstep1000_exh32_gamma099_lrac9e-4_lrcr1e-3/bdfc35a41e3d78d3bf59a6b88613069133e00868_ligand_2.pdbqt
 12 12 0 0 0
SMALL
GASTEIGER

@<TRIPOS>ATOM
      1  C          8.2890   -0.9200   -1.8340 C.3     1  UNL1        0.1270
      2  C          8.4420   -2.0060   -2.8300 C.2     1  UNL1        0.3030
      3  O          9.5730   -2.4710   -3.1180 O.2     1  UNL1       -0.2520
      4  O          7.3370   -2.5400   -3.4740 O.3     1  UNL1       -0.4810
      5  H          7.3230   -3.5380   -3.7010 H       1  UNL1        0.2960
      6  C          7.2960   -1.3630   -0.8030 C.3     1  UNL1        0.0470
      7  C          6.5140   -0.2730   -0.2230 C.2     1  UNL1       -0.0470
      8  C          6.1830    0.8320   -0.9730 C.2     1  UNL1        0.0040
      9  C          6.1080   -0.3620    1.0890 C.2     1  UNL1        0.0040
     10  C          5.4330    1.8350   -0.3540 C.2     1  UNL1        0.0000
     11  C          5.3670    0.6310    1.6990 C.2     1  UNL1        0.0000
     12  C          5.0320    1.7410    0.9550 C.2     1  UNL1        0.0000
@<TRIPOS>BOND
     1     5     4    1
     2     4     2    1
     3     3     2    2
     4     2     1    1
     5     1     6    1
     6     8    10    1
     7     8     7    2
     8     6     7    1
     9    10    12    2
    10     7     9    1
    11    12    11    1
    12     9    11    2
