MODEL 1
REMARK VINA RESULT:      -7.4      0.000      0.000
REMARK SMILES O=C(O)CCc1ccccc1
REMARK SMILES IDX 4 1 2 2 1 3 3 4 5 6 6 7 7 8 11 9 8 10 10 11 9 12
REMARK H PARENT 3 5
REMARK Flexibility Score: inf
ROOT
ATOM      1  C   UNL     1       8.452  -0.625  -2.163  1.00  0.00     0.127 C 
ENDROOT
BRANCH   1   2
ATOM      2  C   UNL     1       8.488  -1.903  -2.913  1.00  0.00     0.303 C 
ATOM      3  O   UNL     1       9.564  -2.527  -3.083  1.00  0.00    -0.252 OA
BRANCH   2   4
ATOM      4  O   UNL     1       7.330  -2.445  -3.448  1.00  0.00    -0.481 OA
ATOM      5  H   UNL     1       6.514  -1.843  -3.589  1.00  0.00     0.296 HD
ENDBRANCH   2   4
ENDBRANCH   1   2
BRANCH   1   6
ATOM      6  C   UNL     1       7.036  -0.134  -2.136  1.00  0.00     0.047 C 
BRANCH   6   7
ATOM      7  C   UNL     1       6.491   0.033  -0.791  1.00  0.00    -0.047 A 
ATOM      8  C   UNL     1       6.618  -0.963   0.149  1.00  0.00     0.004 A 
ATOM      9  C   UNL     1       5.846   1.205  -0.469  1.00  0.00     0.004 A 
ATOM     10  C   UNL     1       6.074  -0.734   1.415  1.00  0.00     0.000 A 
ATOM     11  C   UNL     1       5.308   1.430   0.783  1.00  0.00     0.000 A 
ATOM     12  C   UNL     1       5.431   0.436   1.730  1.00  0.00     0.000 A 
ENDBRANCH   6   7
ENDBRANCH   1   6
TORSDOF 4
ENDMDL
MODEL 2
REMARK VINA RESULT:      -7.3      0.136      1.732
REMARK SMILES O=C(O)CCc1ccccc1
REMARK SMILES IDX 4 1 2 2 1 3 3 4 5 6 6 7 7 8 11 9 8 10 10 11 9 12
REMARK H PARENT 3 5
REMARK Flexibility Score: inf
ROOT
ATOM      1  C   UNL     1       8.387  -0.640  -2.092  1.00  0.00     0.127 C 
ENDROOT
BRANCH   1   2
ATOM      2  C   UNL     1       8.368  -1.890  -2.888  1.00  0.00     0.303 C 
ATOM      3  O   UNL     1       7.285  -2.413  -3.251  1.00  0.00    -0.252 OA
BRANCH   2   4
ATOM      4  O   UNL     1       9.548  -2.517  -3.254  1.00  0.00    -0.481 OA
ATOM      5  H   UNL     1       9.963  -3.209  -2.626  1.00  0.00     0.296 HD
ENDBRANCH   2   4
ENDBRANCH   1   2
BRANCH   1   6
ATOM      6  C   UNL     1       7.000  -0.073  -2.071  1.00  0.00     0.047 C 
BRANCH   6   7
ATOM      7  C   UNL     1       6.445   0.090  -0.728  1.00  0.00    -0.047 A 
ATOM      8  C   UNL     1       5.806   1.254  -0.368  1.00  0.00     0.004 A 
ATOM      9  C   UNL     1       6.566  -0.938   0.178  1.00  0.00     0.004 A 
ATOM     10  C   UNL     1       5.300   1.340   0.931  1.00  0.00     0.000 A 
ATOM     11  C   UNL     1       6.065  -0.851   1.461  1.00  0.00     0.000 A 
ATOM     12  C   UNL     1       5.424   0.312   1.831  1.00  0.00     0.000 A 
ENDBRANCH   6   7
ENDBRANCH   1   6
TORSDOF 4
ENDMDL
MODEL 3
REMARK VINA RESULT:      -7.2      0.645      1.588
REMARK SMILES O=C(O)CCc1ccccc1
REMARK SMILES IDX 4 1 2 2 1 3 3 4 5 6 6 7 7 8 11 9 8 10 10 11 9 12
REMARK H PARENT 3 5
REMARK Flexibility Score: inf
ROOT
ATOM      1  C   UNL     1       8.289  -0.920  -1.834  1.00  0.00     0.127 C 
ENDROOT
BRANCH   1   2
ATOM      2  C   UNL     1       8.442  -2.006  -2.830  1.00  0.00     0.303 C 
ATOM      3  O   UNL     1       9.573  -2.471  -3.118  1.00  0.00    -0.252 OA
BRANCH   2   4
ATOM      4  O   UNL     1       7.337  -2.540  -3.474  1.00  0.00    -0.481 OA
ATOM      5  H   UNL     1       7.323  -3.538  -3.701  1.00  0.00     0.296 HD
ENDBRANCH   2   4
ENDBRANCH   1   2
BRANCH   1   6
ATOM      6  C   UNL     1       7.296  -1.363  -0.803  1.00  0.00     0.047 C 
BRANCH   6   7
ATOM      7  C   UNL     1       6.514  -0.273  -0.223  1.00  0.00    -0.047 A 
ATOM      8  C   UNL     1       6.183   0.832  -0.973  1.00  0.00     0.004 A 
ATOM      9  C   UNL     1       6.108  -0.362   1.089  1.00  0.00     0.004 A 
ATOM     10  C   UNL     1       5.433   1.835  -0.354  1.00  0.00     0.000 A 
ATOM     11  C   UNL     1       5.367   0.631   1.699  1.00  0.00     0.000 A 
ATOM     12  C   UNL     1       5.032   1.741   0.955  1.00  0.00     0.000 A 
ENDBRANCH   6   7
ENDBRANCH   1   6
TORSDOF 4
ENDMDL
MODEL 4
REMARK VINA RESULT:      -6.8      3.381      5.080
REMARK SMILES O=C(O)CCc1ccccc1
REMARK SMILES IDX 4 1 2 2 1 3 3 4 5 6 6 7 7 8 11 9 8 10 10 11 9 12
REMARK H PARENT 3 5
REMARK Flexibility Score: inf
ROOT
ATOM      1  C   UNL     1       5.027   1.774   0.686  1.00  0.00     0.127 C 
ENDROOT
BRANCH   1   2
ATOM      2  C   UNL     1       4.502   1.108   1.901  1.00  0.00     0.303 C 
ATOM      3  O   UNL     1       5.152   0.202   2.478  1.00  0.00    -0.252 OA
BRANCH   2   4
ATOM      4  O   UNL     1       3.275   1.468   2.434  1.00  0.00    -0.481 OA
ATOM      5  H   UNL     1       2.698   0.755   2.889  1.00  0.00     0.296 HD
ENDBRANCH   2   4
ENDBRANCH   1   2
BRANCH   1   6
ATOM      6  C   UNL     1       6.524   1.766   0.753  1.00  0.00     0.047 C 
BRANCH   6   7
ATOM      7  C   UNL     1       7.164   1.029  -0.335  1.00  0.00    -0.047 A 
ATOM      8  C   UNL     1       8.488   1.241  -0.645  1.00  0.00     0.004 A 
ATOM      9  C   UNL     1       6.427   0.115  -1.052  1.00  0.00     0.004 A 
ATOM     10  C   UNL     1       9.034   0.502  -1.696  1.00  0.00     0.000 A 
ATOM     11  C   UNL     1       6.968  -0.615  -2.091  1.00  0.00     0.000 A 
ATOM     12  C   UNL     1       8.293  -0.408  -2.408  1.00  0.00     0.000 A 
ENDBRANCH   6   7
ENDBRANCH   1   6
TORSDOF 4
ENDMDL
MODEL 5
REMARK VINA RESULT:      -6.6      1.917      2.283
REMARK SMILES O=C(O)CCc1ccccc1
REMARK SMILES IDX 4 1 2 2 1 3 3 4 5 6 6 7 7 8 11 9 8 10 10 11 9 12
REMARK H PARENT 3 5
REMARK Flexibility Score: inf
ROOT
ATOM      1  C   UNL     1       8.206   0.238  -2.215  1.00  0.00     0.127 C 
ENDROOT
BRANCH   1   2
ATOM      2  C   UNL     1       9.338   0.350  -1.265  1.00  0.00     0.303 C 
ATOM      3  O   UNL     1       9.435  -0.416  -0.275  1.00  0.00    -0.252 OA
BRANCH   2   4
ATOM      4  O   UNL     1      10.324   1.308  -1.445  1.00  0.00    -0.481 OA
ATOM      5  H   UNL     1      10.939   1.246  -2.260  1.00  0.00     0.296 HD
ENDBRANCH   2   4
ENDBRANCH   1   2
BRANCH   1   6
ATOM      6  C   UNL     1       7.103  -0.523  -1.545  1.00  0.00     0.047 C 
BRANCH   6   7
ATOM      7  C   UNL     1       6.332   0.267  -0.587  1.00  0.00    -0.047 A 
ATOM      8  C   UNL     1       6.110  -0.196   0.689  1.00  0.00     0.004 A 
ATOM      9  C   UNL     1       5.827   1.486  -0.975  1.00  0.00     0.004 A 
ATOM     10  C   UNL     1       5.365   0.612   1.551  1.00  0.00     0.000 A 
ATOM     11  C   UNL     1       5.091   2.284  -0.121  1.00  0.00     0.000 A 
ATOM     12  C   UNL     1       4.864   1.827   1.159  1.00  0.00     0.000 A 
ENDBRANCH   6   7
ENDBRANCH   1   6
TORSDOF 4
ENDMDL
