@<TRIPOS>MOLECULE
/home/cewinharhar/GITHUB/reincatalyze/data/processed/docking_pred/2023-Apr-26-1657_maxeplen10_maxtrainstep1000_exh32_gamma099_lrac9e-4_lrcr1e-3/bdfc35a41e3d78d3bf59a6b88613069133e00868_ligand_2.pdbqt
 12 12 0 0 0
SMALL
GASTEIGER

@<TRIPOS>ATOM
      1  C          8.4520   -0.6250   -2.1630 C.3     1  UNL1        0.1270
      2  C          8.4880   -1.9030   -2.9130 C.2     1  UNL1        0.3030
      3  O          9.5640   -2.5270   -3.0830 O.2     1  UNL1       -0.2520
      4  O          7.3300   -2.4450   -3.4480 O.3     1  UNL1       -0.4810
      5  H          6.5140   -1.8430   -3.5890 H       1  UNL1        0.2960
      6  C          7.0360   -0.1340   -2.1360 C.3     1  UNL1        0.0470
      7  C          6.4910    0.0330   -0.7910 C.2     1  UNL1       -0.0470
      8  C          6.6180   -0.9630    0.1490 C.2     1  UNL1        0.0040
      9  C          5.8460    1.2050   -0.4690 C.2     1  UNL1        0.0040
     10  C          6.0740   -0.7340    1.4150 C.2     1  UNL1        0.0000
     11  C          5.3080    1.4300    0.7830 C.2     1  UNL1        0.0000
     12  C          5.4310    0.4360    1.7300 C.2     1  UNL1        0.0000
@<TRIPOS>BOND
     1     5     4    1
     2     4     2    1
     3     3     2    2
     4     2     1    1
     5     1     6    1
     6     6     7    1
     7     7     9    2
     8     7     8    1
     9     9    11    1
    10     8    10    2
    11    11    12    2
    12    10    12    1
