@<TRIPOS>MOLECULE
/home/cewinharhar/GITHUB/reincatalyze/data/processed/docking_pred/2023-Apr-26-1657_maxeplen10_maxtrainstep1000_exh32_gamma099_lrac9e-4_lrcr1e-3/bdfc35a41e3d78d3bf59a6b88613069133e00868_ligand_2.pdbqt
 12 12 0 0 0
SMALL
GASTEIGER

@<TRIPOS>ATOM
      1  C          8.2060    0.2380   -2.2150 C.3     1  UNL1        0.1270
      2  C          9.3380    0.3500   -1.2650 C.2     1  UNL1        0.3030
      3  O          9.4350   -0.4160   -0.2750 O.2     1  UNL1       -0.2520
      4  O         10.3240    1.3080   -1.4450 O.3     1  UNL1       -0.4810
      5  H         10.9390    1.2460   -2.2600 H       1  UNL1        0.2960
      6  C          7.1030   -0.5230   -1.5450 C.3     1  UNL1        0.0470
      7  C          6.3320    0.2670   -0.5870 C.2     1  UNL1       -0.0470
      8  C          6.1100   -0.1960    0.6890 C.2     1  UNL1        0.0040
      9  C          5.8270    1.4860   -0.9750 C.2     1  UNL1        0.0040
     10  C          5.3650    0.6120    1.5510 C.2     1  UNL1        0.0000
     11  C          5.0910    2.2840   -0.1210 C.2     1  UNL1        0.0000
     12  C          4.8640    1.8270    1.1590 C.2     1  UNL1        0.0000
@<TRIPOS>BOND
     1     5     4    1
     2     1     6    1
     3     1     2    1
     4     6     7    1
     5     4     2    1
     6     2     3    2
     7     9     7    2
     8     9    11    1
     9     7     8    1
    10    11    12    2
    11     8    10    2
    12    12    10    1
