@<TRIPOS>MOLECULE
/home/cewinharhar/GITHUB/reincatalyze/data/processed/docking_pred/2023-Apr-26-1657_maxeplen10_maxtrainstep1000_exh32_gamma099_lrac9e-4_lrcr1e-3/bdfc35a41e3d78d3bf59a6b88613069133e00868_ligand_2.pdbqt
 12 12 0 0 0
SMALL
GASTEIGER

@<TRIPOS>ATOM
      1  C          5.0270    1.7740    0.6860 C.3     1  UNL1        0.1270
      2  C          4.5020    1.1080    1.9010 C.2     1  UNL1        0.3030
      3  O          5.1520    0.2020    2.4780 O.2     1  UNL1       -0.2520
      4  O          3.2750    1.4680    2.4340 O.3     1  UNL1       -0.4810
      5  H          2.6980    0.7550    2.8890 H       1  UNL1        0.2960
      6  C          6.5240    1.7660    0.7530 C.3     1  UNL1        0.0470
      7  C          7.1640    1.0290   -0.3350 C.2     1  UNL1       -0.0470
      8  C          8.4880    1.2410   -0.6450 C.2     1  UNL1        0.0040
      9  C          6.4270    0.1150   -1.0520 C.2     1  UNL1        0.0040
     10  C          9.0340    0.5020   -1.6960 C.2     1  UNL1        0.0000
     11  C          6.9680   -0.6150   -2.0910 C.2     1  UNL1        0.0000
     12  C          8.2930   -0.4080   -2.4080 C.2     1  UNL1        0.0000
@<TRIPOS>BOND
     1    12    11    2
     2    12    10    1
     3    11     9    1
     4    10     8    2
     5     9     7    2
     6     8     7    1
     7     7     6    1
     8     1     6    1
     9     1     2    1
    10     2     4    1
    11     2     3    2
    12     4     5    1
