@<TRIPOS>MOLECULE
/home/cewinharhar/GITHUB/reincatalyze/data/processed/docking_pred/2023-Apr-26-1657_maxeplen10_maxtrainstep1000_exh32_gamma099_lrac9e-4_lrcr1e-3/bdfc35a41e3d78d3bf59a6b88613069133e00868_ligand_2.pdbqt
 12 12 0 0 0
SMALL
GASTEIGER

@<TRIPOS>ATOM
      1  C          8.3870   -0.6400   -2.0920 C.3     1  UNL1        0.1270
      2  C          8.3680   -1.8900   -2.8880 C.2     1  UNL1        0.3030
      3  O          7.2850   -2.4130   -3.2510 O.2     1  UNL1       -0.2520
      4  O          9.5480   -2.5170   -3.2540 O.3     1  UNL1       -0.4810
      5  H          9.9630   -3.2090   -2.6260 H       1  UNL1        0.2960
      6  C          7.0000   -0.0730   -2.0710 C.3     1  UNL1        0.0470
      7  C          6.4450    0.0900   -0.7280 C.2     1  UNL1       -0.0470
      8  C          5.8060    1.2540   -0.3680 C.2     1  UNL1        0.0040
      9  C          6.5660   -0.9380    0.1780 C.2     1  UNL1        0.0040
     10  C          5.3000    1.3400    0.9310 C.2     1  UNL1        0.0000
     11  C          6.0650   -0.8510    1.4610 C.2     1  UNL1        0.0000
     12  C          5.4240    0.3120    1.8310 C.2     1  UNL1        0.0000
@<TRIPOS>BOND
     1     4     2    1
     2     4     5    1
     3     3     2    2
     4     2     1    1
     5     1     6    1
     6     6     7    1
     7     7     8    2
     8     7     9    1
     9     8    10    1
    10     9    11    2
    11    10    12    2
    12    11    12    1
