@<TRIPOS>MOLECULE
/home/cewinharhar/GITHUB/reincatalyze/data/processed/docking_pred/2023-Apr-26-1657_maxeplen10_maxtrainstep1000_exh32_gamma099_lrac9e-4_lrcr1e-3/be159ddb300952c005bf82764a5ce22912cca304_ligand_2.pdbqt
 12 12 0 0 0
SMALL
GASTEIGER

@<TRIPOS>ATOM
      1  C          8.4780   -0.6040   -2.1640 C.3     1  UNL1        0.1270
      2  C          8.4970   -1.8880   -2.9050 C.2     1  UNL1        0.3030
      3  O          9.5710   -2.5070   -3.1060 O.2     1  UNL1       -0.2520
      4  O          7.3260   -2.4410   -3.3970 O.3     1  UNL1       -0.4810
      5  H          6.6890   -2.9190   -2.7550 H       1  UNL1        0.2960
      6  C          7.0690   -0.0950   -2.1420 C.3     1  UNL1        0.0470
      7  C          6.5110    0.0520   -0.7980 C.2     1  UNL1       -0.0470
      8  C          6.6360   -0.9570    0.1290 C.2     1  UNL1        0.0040
      9  C          5.8570    1.2160   -0.4660 C.2     1  UNL1        0.0040
     10  C          6.0790   -0.7480    1.3930 C.2     1  UNL1        0.0000
     11  C          5.3080    1.4200    0.7840 C.2     1  UNL1        0.0000
     12  C          5.4280    0.4140    1.7180 C.2     1  UNL1        0.0000
@<TRIPOS>BOND
     1     4     2    1
     2     4     5    1
     3     3     2    2
     4     2     1    1
     5     1     6    1
     6     6     7    1
     7     7     9    2
     8     7     8    1
     9     9    11    1
    10     8    10    2
    11    11    12    2
    12    10    12    1
