@<TRIPOS>MOLECULE
/home/cewinharhar/GITHUB/reincatalyze/data/processed/docking_pred/2023-Apr-26-1657_maxeplen10_maxtrainstep1000_exh32_gamma099_lrac9e-4_lrcr1e-3/be159ddb300952c005bf82764a5ce22912cca304_ligand_2.pdbqt
 12 12 0 0 0
SMALL
GASTEIGER

@<TRIPOS>ATOM
      1  C          5.0400    1.7150    0.6730 C.3     1  UNL1        0.1270
      2  C          4.6030    1.0340    1.9150 C.2     1  UNL1        0.3030
      3  O          5.3340    0.1870    2.4840 O.2     1  UNL1       -0.2520
      4  O          3.3700    1.3140    2.4820 O.3     1  UNL1       -0.4810
      5  H          3.2390    1.1790    3.4880 H       1  UNL1        0.2960
      6  C          6.5360    1.7990    0.6840 C.3     1  UNL1        0.0470
      7  C          7.1820    1.0340   -0.3810 C.2     1  UNL1       -0.0470
      8  C          8.5230    1.1900   -0.6450 C.2     1  UNL1        0.0040
      9  C          6.4330    0.1480   -1.1200 C.2     1  UNL1        0.0040
     10  C          9.0740    0.4260   -1.6760 C.2     1  UNL1        0.0000
     11  C          6.9790   -0.6070   -2.1400 C.2     1  UNL1        0.0000
     12  C          8.3220   -0.4550   -2.4110 C.2     1  UNL1        0.0000
@<TRIPOS>BOND
     1    12    11    2
     2    12    10    1
     3    11     9    1
     4    10     8    2
     5     9     7    2
     6     8     7    1
     7     7     6    1
     8     1     6    1
     9     1     2    1
    10     2     4    1
    11     2     3    2
    12     4     5    1
