MODEL 1
REMARK VINA RESULT:      -7.4      0.000      0.000
REMARK SMILES O=C(O)CCc1ccccc1
REMARK SMILES IDX 4 1 2 2 1 3 3 4 5 6 6 7 7 8 11 9 8 10 10 11 9 12
REMARK H PARENT 3 5
REMARK Flexibility Score: inf
ROOT
ATOM      1  C   UNL     1       8.478  -0.604  -2.164  1.00  0.00     0.127 C 
ENDROOT
BRANCH   1   2
ATOM      2  C   UNL     1       8.497  -1.888  -2.905  1.00  0.00     0.303 C 
ATOM      3  O   UNL     1       9.571  -2.507  -3.106  1.00  0.00    -0.252 OA
BRANCH   2   4
ATOM      4  O   UNL     1       7.326  -2.441  -3.397  1.00  0.00    -0.481 OA
ATOM      5  H   UNL     1       6.689  -2.919  -2.755  1.00  0.00     0.296 HD
ENDBRANCH   2   4
ENDBRANCH   1   2
BRANCH   1   6
ATOM      6  C   UNL     1       7.069  -0.095  -2.142  1.00  0.00     0.047 C 
BRANCH   6   7
ATOM      7  C   UNL     1       6.511   0.052  -0.798  1.00  0.00    -0.047 A 
ATOM      8  C   UNL     1       6.636  -0.957   0.129  1.00  0.00     0.004 A 
ATOM      9  C   UNL     1       5.857   1.216  -0.466  1.00  0.00     0.004 A 
ATOM     10  C   UNL     1       6.079  -0.748   1.393  1.00  0.00     0.000 A 
ATOM     11  C   UNL     1       5.308   1.420   0.784  1.00  0.00     0.000 A 
ATOM     12  C   UNL     1       5.428   0.414   1.718  1.00  0.00     0.000 A 
ENDBRANCH   6   7
ENDBRANCH   1   6
TORSDOF 4
ENDMDL
MODEL 2
REMARK VINA RESULT:      -7.3      0.124      1.732
REMARK SMILES O=C(O)CCc1ccccc1
REMARK SMILES IDX 4 1 2 2 1 3 3 4 5 6 6 7 7 8 11 9 8 10 10 11 9 12
REMARK H PARENT 3 5
REMARK Flexibility Score: inf
ROOT
ATOM      1  C   UNL     1       8.407  -0.611  -2.125  1.00  0.00     0.127 C 
ENDROOT
BRANCH   1   2
ATOM      2  C   UNL     1       8.382  -1.881  -2.889  1.00  0.00     0.303 C 
ATOM      3  O   UNL     1       7.297  -2.415  -3.229  1.00  0.00    -0.252 OA
BRANCH   2   4
ATOM      4  O   UNL     1       9.560  -2.516  -3.249  1.00  0.00    -0.481 OA
ATOM      5  H   UNL     1       9.548  -3.521  -3.443  1.00  0.00     0.296 HD
ENDBRANCH   2   4
ENDBRANCH   1   2
BRANCH   1   6
ATOM      6  C   UNL     1       7.017  -0.054  -2.093  1.00  0.00     0.047 C 
BRANCH   6   7
ATOM      7  C   UNL     1       6.467   0.096  -0.747  1.00  0.00    -0.047 A 
ATOM      8  C   UNL     1       5.831   1.256  -0.372  1.00  0.00     0.004 A 
ATOM      9  C   UNL     1       6.591  -0.942   0.148  1.00  0.00     0.004 A 
ATOM     10  C   UNL     1       5.329   1.329   0.929  1.00  0.00     0.000 A 
ATOM     11  C   UNL     1       6.094  -0.868   1.434  1.00  0.00     0.000 A 
ATOM     12  C   UNL     1       5.456   0.292   1.818  1.00  0.00     0.000 A 
ENDBRANCH   6   7
ENDBRANCH   1   6
TORSDOF 4
ENDMDL
MODEL 3
REMARK VINA RESULT:      -6.7      3.328      5.031
REMARK SMILES O=C(O)CCc1ccccc1
REMARK SMILES IDX 4 1 2 2 1 3 3 4 5 6 6 7 7 8 11 9 8 10 10 11 9 12
REMARK H PARENT 3 5
REMARK Flexibility Score: inf
ROOT
ATOM      1  C   UNL     1       5.040   1.715   0.673  1.00  0.00     0.127 C 
ENDROOT
BRANCH   1   2
ATOM      2  C   UNL     1       4.603   1.034   1.915  1.00  0.00     0.303 C 
ATOM      3  O   UNL     1       5.334   0.187   2.484  1.00  0.00    -0.252 OA
BRANCH   2   4
ATOM      4  O   UNL     1       3.370   1.314   2.482  1.00  0.00    -0.481 OA
ATOM      5  H   UNL     1       3.239   1.179   3.488  1.00  0.00     0.296 HD
ENDBRANCH   2   4
ENDBRANCH   1   2
BRANCH   1   6
ATOM      6  C   UNL     1       6.536   1.799   0.684  1.00  0.00     0.047 C 
BRANCH   6   7
ATOM      7  C   UNL     1       7.182   1.034  -0.381  1.00  0.00    -0.047 A 
ATOM      8  C   UNL     1       8.523   1.190  -0.645  1.00  0.00     0.004 A 
ATOM      9  C   UNL     1       6.433   0.148  -1.120  1.00  0.00     0.004 A 
ATOM     10  C   UNL     1       9.074   0.426  -1.676  1.00  0.00     0.000 A 
ATOM     11  C   UNL     1       6.979  -0.607  -2.140  1.00  0.00     0.000 A 
ATOM     12  C   UNL     1       8.322  -0.455  -2.411  1.00  0.00     0.000 A 
ENDBRANCH   6   7
ENDBRANCH   1   6
TORSDOF 4
ENDMDL
MODEL 4
REMARK VINA RESULT:      -6.7      3.815      4.939
REMARK SMILES O=C(O)CCc1ccccc1
REMARK SMILES IDX 4 1 2 2 1 3 3 4 5 6 6 7 7 8 11 9 8 10 10 11 9 12
REMARK H PARENT 3 5
REMARK Flexibility Score: inf
ROOT
ATOM      1  C   UNL     1       5.452   2.884  -0.009  1.00  0.00     0.127 C 
ENDROOT
BRANCH   1   2
ATOM      2  C   UNL     1       6.221   3.875   0.780  1.00  0.00     0.303 C 
ATOM      3  O   UNL     1       6.921   4.753   0.217  1.00  0.00    -0.252 OA
BRANCH   2   4
ATOM      4  O   UNL     1       6.189   3.859   2.165  1.00  0.00    -0.481 OA
ATOM      5  H   UNL     1       6.340   4.730   2.679  1.00  0.00     0.296 HD
ENDBRANCH   2   4
ENDBRANCH   1   2
BRANCH   1   6
ATOM      6  C   UNL     1       4.920   1.845   0.930  1.00  0.00     0.047 C 
BRANCH   6   7
ATOM      7  C   UNL     1       5.710   0.615   0.965  1.00  0.00    -0.047 A 
ATOM      8  C   UNL     1       5.760  -0.156   2.103  1.00  0.00     0.004 A 
ATOM      9  C   UNL     1       6.405   0.232  -0.158  1.00  0.00     0.004 A 
ATOM     10  C   UNL     1       6.534  -1.318   2.065  1.00  0.00     0.000 A 
ATOM     11  C   UNL     1       7.170  -0.918  -0.194  1.00  0.00     0.000 A 
ATOM     12  C   UNL     1       7.226  -1.695   0.942  1.00  0.00     0.000 A 
ENDBRANCH   6   7
ENDBRANCH   1   6
TORSDOF 4
ENDMDL
MODEL 5
REMARK VINA RESULT:      -6.6      2.011      2.299
REMARK SMILES O=C(O)CCc1ccccc1
REMARK SMILES IDX 4 1 2 2 1 3 3 4 5 6 6 7 7 8 11 9 8 10 10 11 9 12
REMARK H PARENT 3 5
REMARK Flexibility Score: inf
ROOT
ATOM      1  C   UNL     1       8.342   0.427  -1.854  1.00  0.00     0.127 C 
ENDROOT
BRANCH   1   2
ATOM      2  C   UNL     1       9.501   0.232  -0.952  1.00  0.00     0.303 C 
ATOM      3  O   UNL     1       9.431  -0.531   0.043  1.00  0.00    -0.252 OA
BRANCH   2   4
ATOM      4  O   UNL     1      10.699   0.889  -1.183  1.00  0.00    -0.481 OA
ATOM      5  H   UNL     1      11.529   0.621  -0.647  1.00  0.00     0.296 HD
ENDBRANCH   2   4
ENDBRANCH   1   2
BRANCH   1   6
ATOM      6  C   UNL     1       7.214  -0.428  -1.363  1.00  0.00     0.047 C 
BRANCH   6   7
ATOM      7  C   UNL     1       6.373   0.217  -0.356  1.00  0.00    -0.047 A 
ATOM      8  C   UNL     1       6.149  -0.382   0.862  1.00  0.00     0.004 A 
ATOM      9  C   UNL     1       5.805   1.438  -0.637  1.00  0.00     0.004 A 
ATOM     10  C   UNL     1       5.337   0.292   1.777  1.00  0.00     0.000 A 
ATOM     11  C   UNL     1       5.002   2.103   0.268  1.00  0.00     0.000 A 
ATOM     12  C   UNL     1       4.772   1.509   1.490  1.00  0.00     0.000 A 
ENDBRANCH   6   7
ENDBRANCH   1   6
TORSDOF 4
ENDMDL
