@<TRIPOS>MOLECULE
/home/cewinharhar/GITHUB/reincatalyze/data/processed/docking_pred/2023-Apr-26-1657_maxeplen10_maxtrainstep1000_exh32_gamma099_lrac9e-4_lrcr1e-3/be159ddb300952c005bf82764a5ce22912cca304_ligand_2.pdbqt
 12 12 0 0 0
SMALL
GASTEIGER

@<TRIPOS>ATOM
      1  C          8.3420    0.4270   -1.8540 C.3     1  UNL1        0.1270
      2  C          9.5010    0.2320   -0.9520 C.2     1  UNL1        0.3030
      3  O          9.4310   -0.5310    0.0430 O.2     1  UNL1       -0.2520
      4  O         10.6990    0.8890   -1.1830 O.3     1  UNL1       -0.4810
      5  H         11.5290    0.6210   -0.6470 H       1  UNL1        0.2960
      6  C          7.2140   -0.4280   -1.3630 C.3     1  UNL1        0.0470
      7  C          6.3730    0.2170   -0.3560 C.2     1  UNL1       -0.0470
      8  C          6.1490   -0.3820    0.8620 C.2     1  UNL1        0.0040
      9  C          5.8050    1.4380   -0.6370 C.2     1  UNL1        0.0040
     10  C          5.3370    0.2920    1.7770 C.2     1  UNL1        0.0000
     11  C          5.0020    2.1030    0.2680 C.2     1  UNL1        0.0000
     12  C          4.7720    1.5090    1.4900 C.2     1  UNL1        0.0000
@<TRIPOS>BOND
     1     1     6    1
     2     1     2    1
     3     6     7    1
     4     4     2    1
     5     4     5    1
     6     2     3    2
     7     9     7    2
     8     9    11    1
     9     7     8    1
    10    11    12    2
    11     8    10    2
    12    12    10    1
