@<TRIPOS>MOLECULE
/home/cewinharhar/GITHUB/reincatalyze/data/processed/docking_pred/2023-Apr-26-1657_maxeplen10_maxtrainstep1000_exh32_gamma099_lrac9e-4_lrcr1e-3/be159ddb300952c005bf82764a5ce22912cca304_ligand_2.pdbqt
 12 12 0 0 0
SMALL
GASTEIGER

@<TRIPOS>ATOM
      1  C          8.4070   -0.6110   -2.1250 C.3     1  UNL1        0.1270
      2  C          8.3820   -1.8810   -2.8890 C.2     1  UNL1        0.3030
      3  O          7.2970   -2.4150   -3.2290 O.2     1  UNL1       -0.2520
      4  O          9.5600   -2.5160   -3.2490 O.3     1  UNL1       -0.4810
      5  H          9.5480   -3.5210   -3.4430 H       1  UNL1        0.2960
      6  C          7.0170   -0.0540   -2.0930 C.3     1  UNL1        0.0470
      7  C          6.4670    0.0960   -0.7470 C.2     1  UNL1       -0.0470
      8  C          5.8310    1.2560   -0.3720 C.2     1  UNL1        0.0040
      9  C          6.5910   -0.9420    0.1480 C.2     1  UNL1        0.0040
     10  C          5.3290    1.3290    0.9290 C.2     1  UNL1        0.0000
     11  C          6.0940   -0.8680    1.4340 C.2     1  UNL1        0.0000
     12  C          5.4560    0.2920    1.8180 C.2     1  UNL1        0.0000
@<TRIPOS>BOND
     1     5     4    1
     2     4     2    1
     3     3     2    2
     4     2     1    1
     5     1     6    1
     6     6     7    1
     7     7     8    2
     8     7     9    1
     9     8    10    1
    10     9    11    2
    11    10    12    2
    12    11    12    1
