@<TRIPOS>MOLECULE
/home/cewinharhar/GITHUB/reincatalyze/data/processed/docking_pred/2023-Apr-26-1657_maxeplen10_maxtrainstep1000_exh32_gamma099_lrac9e-4_lrcr1e-3/be159ddb300952c005bf82764a5ce22912cca304_ligand_2.pdbqt
 12 12 0 0 0
SMALL
GASTEIGER

@<TRIPOS>ATOM
      1  C          5.4520    2.8840   -0.0090 C.3     1  UNL1        0.1270
      2  C          6.2210    3.8750    0.7800 C.2     1  UNL1        0.3030
      3  O          6.9210    4.7530    0.2170 O.2     1  UNL1       -0.2520
      4  O          6.1890    3.8590    2.1650 O.3     1  UNL1       -0.4810
      5  H          6.3400    4.7300    2.6790 H       1  UNL1        0.2960
      6  C          4.9200    1.8450    0.9300 C.3     1  UNL1        0.0470
      7  C          5.7100    0.6150    0.9650 C.2     1  UNL1       -0.0470
      8  C          5.7600   -0.1560    2.1030 C.2     1  UNL1        0.0040
      9  C          6.4050    0.2320   -0.1580 C.2     1  UNL1        0.0040
     10  C          6.5340   -1.3180    2.0650 C.2     1  UNL1        0.0000
     11  C          7.1700   -0.9180   -0.1940 C.2     1  UNL1        0.0000
     12  C          7.2260   -1.6950    0.9420 C.2     1  UNL1        0.0000
@<TRIPOS>BOND
     1    11     9    1
     2    11    12    2
     3     9     7    2
     4     1     2    1
     5     1     6    1
     6     3     2    2
     7     2     4    1
     8     6     7    1
     9    12    10    1
    10     7     8    1
    11    10     8    2
    12     4     5    1
