@<TRIPOS>MOLECULE
/home/cewinharhar/GITHUB/reincatalyze/data/processed/docking_pred/2023-Apr-26-1657_maxeplen10_maxtrainstep1000_exh32_gamma099_lrac9e-4_lrcr1e-3/bef029ec7f2d3d0301694813bb63cef4e6663bb8_ligand_2.pdbqt
 12 12 0 0 0
SMALL
GASTEIGER

@<TRIPOS>ATOM
      1  C          8.4020   -0.7580   -1.9370 C.3     1  UNL1        0.1270
      2  C          8.3560   -1.9330   -2.8380 C.2     1  UNL1        0.3030
      3  O          7.2640   -2.3900   -3.2580 O.2     1  UNL1       -0.2520
      4  O          9.5220   -2.5630   -3.2440 O.3     1  UNL1       -0.4810
      5  H          9.7640   -2.5780   -4.2380 H       1  UNL1        0.2960
      6  C          7.0730   -0.0680   -1.9960 C.3     1  UNL1        0.0470
      7  C          6.4290    0.0930   -0.6930 C.2     1  UNL1       -0.0470
      8  C          5.7710    1.2580   -0.3730 C.2     1  UNL1        0.0040
      9  C          6.4860   -0.9370    0.2160 C.2     1  UNL1        0.0040
     10  C          5.1780    1.3420    0.8890 C.2     1  UNL1        0.0000
     11  C          5.9000   -0.8520    1.4640 C.2     1  UNL1        0.0000
     12  C          5.2390    0.3110    1.7920 C.2     1  UNL1        0.0000
@<TRIPOS>BOND
     1     5     4    1
     2     3     2    2
     3     4     2    1
     4     2     1    1
     5     6     1    1
     6     6     7    1
     7     7     8    2
     8     7     9    1
     9     8    10    1
    10     9    11    2
    11    10    12    2
    12    11    12    1
