MODEL 1
REMARK VINA RESULT:      -7.3      0.000      0.000
REMARK SMILES O=C(O)CCc1ccccc1
REMARK SMILES IDX 4 1 2 2 1 3 3 4 5 6 6 7 7 8 11 9 8 10 10 11 9 12
REMARK H PARENT 3 5
REMARK Flexibility Score: inf
ROOT
ATOM      1  C   UNL     1       8.427  -0.631  -2.089  1.00  0.00     0.127 C 
ENDROOT
BRANCH   1   2
ATOM      2  C   UNL     1       8.467  -1.882  -2.883  1.00  0.00     0.303 C 
ATOM      3  O   UNL     1       9.549  -2.481  -3.101  1.00  0.00    -0.252 OA
BRANCH   2   4
ATOM      4  O   UNL     1       7.306  -2.427  -3.408  1.00  0.00    -0.481 OA
ATOM      5  H   UNL     1       6.411  -2.236  -2.949  1.00  0.00     0.296 HD
ENDBRANCH   2   4
ENDBRANCH   1   2
BRANCH   1   6
ATOM      6  C   UNL     1       7.020  -0.117  -2.090  1.00  0.00     0.047 C 
BRANCH   6   7
ATOM      7  C   UNL     1       6.438   0.027  -0.757  1.00  0.00    -0.047 A 
ATOM      8  C   UNL     1       6.526  -0.993   0.163  1.00  0.00     0.004 A 
ATOM      9  C   UNL     1       5.800   1.200  -0.426  1.00  0.00     0.004 A 
ATOM     10  C   UNL     1       5.949  -0.786   1.417  1.00  0.00     0.000 A 
ATOM     11  C   UNL     1       5.230   1.403   0.815  1.00  0.00     0.000 A 
ATOM     12  C   UNL     1       5.312   0.386   1.742  1.00  0.00     0.000 A 
ENDBRANCH   6   7
ENDBRANCH   1   6
TORSDOF 4
ENDMDL
MODEL 2
REMARK VINA RESULT:      -7.2      0.128      1.733
REMARK SMILES O=C(O)CCc1ccccc1
REMARK SMILES IDX 4 1 2 2 1 3 3 4 5 6 6 7 7 8 11 9 8 10 10 11 9 12
REMARK H PARENT 3 5
REMARK Flexibility Score: inf
ROOT
ATOM      1  C   UNL     1       8.402  -0.758  -1.937  1.00  0.00     0.127 C 
ENDROOT
BRANCH   1   2
ATOM      2  C   UNL     1       8.356  -1.933  -2.838  1.00  0.00     0.303 C 
ATOM      3  O   UNL     1       7.264  -2.390  -3.258  1.00  0.00    -0.252 OA
BRANCH   2   4
ATOM      4  O   UNL     1       9.522  -2.563  -3.244  1.00  0.00    -0.481 OA
ATOM      5  H   UNL     1       9.764  -2.578  -4.238  1.00  0.00     0.296 HD
ENDBRANCH   2   4
ENDBRANCH   1   2
BRANCH   1   6
ATOM      6  C   UNL     1       7.073  -0.068  -1.996  1.00  0.00     0.047 C 
BRANCH   6   7
ATOM      7  C   UNL     1       6.429   0.093  -0.693  1.00  0.00    -0.047 A 
ATOM      8  C   UNL     1       5.771   1.258  -0.373  1.00  0.00     0.004 A 
ATOM      9  C   UNL     1       6.486  -0.937   0.216  1.00  0.00     0.004 A 
ATOM     10  C   UNL     1       5.178   1.342   0.889  1.00  0.00     0.000 A 
ATOM     11  C   UNL     1       5.900  -0.852   1.464  1.00  0.00     0.000 A 
ATOM     12  C   UNL     1       5.239   0.311   1.792  1.00  0.00     0.000 A 
ENDBRANCH   6   7
ENDBRANCH   1   6
TORSDOF 4
ENDMDL
MODEL 3
REMARK VINA RESULT:      -6.8      3.332      5.054
REMARK SMILES O=C(O)CCc1ccccc1
REMARK SMILES IDX 4 1 2 2 1 3 3 4 5 6 6 7 7 8 11 9 8 10 10 11 9 12
REMARK H PARENT 3 5
REMARK Flexibility Score: inf
ROOT
ATOM      1  C   UNL     1       5.031   1.628   0.665  1.00  0.00     0.127 C 
ENDROOT
BRANCH   1   2
ATOM      2  C   UNL     1       4.566   0.992   1.921  1.00  0.00     0.303 C 
ATOM      3  O   UNL     1       5.263   0.128   2.509  1.00  0.00    -0.252 OA
BRANCH   2   4
ATOM      4  O   UNL     1       3.347   1.336   2.482  1.00  0.00    -0.481 OA
ATOM      5  H   UNL     1       3.301   2.119   3.139  1.00  0.00     0.296 HD
ENDBRANCH   2   4
ENDBRANCH   1   2
BRANCH   1   6
ATOM      6  C   UNL     1       6.527   1.695   0.696  1.00  0.00     0.047 C 
BRANCH   6   7
ATOM      7  C   UNL     1       7.178   0.944  -0.376  1.00  0.00    -0.047 A 
ATOM      8  C   UNL     1       8.491   1.187  -0.708  1.00  0.00     0.004 A 
ATOM      9  C   UNL     1       6.463  -0.016  -1.054  1.00  0.00     0.004 A 
ATOM     10  C   UNL     1       9.049   0.432  -1.742  1.00  0.00     0.000 A 
ATOM     11  C   UNL     1       7.016  -0.761  -2.076  1.00  0.00     0.000 A 
ATOM     12  C   UNL     1       8.330  -0.523  -2.415  1.00  0.00     0.000 A 
ENDBRANCH   6   7
ENDBRANCH   1   6
TORSDOF 4
ENDMDL
MODEL 4
REMARK VINA RESULT:      -6.8      1.002      1.570
REMARK SMILES O=C(O)CCc1ccccc1
REMARK SMILES IDX 4 1 2 2 1 3 3 4 5 6 6 7 7 8 11 9 8 10 10 11 9 12
REMARK H PARENT 3 5
REMARK Flexibility Score: inf
ROOT
ATOM      1  C   UNL     1       7.309  -1.444  -2.138  1.00  0.00     0.127 C 
ENDROOT
BRANCH   1   2
ATOM      2  C   UNL     1       8.752  -1.419  -2.472  1.00  0.00     0.303 C 
ATOM      3  O   UNL     1       9.278  -2.334  -3.152  1.00  0.00    -0.252 OA
BRANCH   2   4
ATOM      4  O   UNL     1       9.563  -0.382  -2.040  1.00  0.00    -0.481 OA
ATOM      5  H   UNL     1      10.464  -0.225  -2.500  1.00  0.00     0.296 HD
ENDBRANCH   2   4
ENDBRANCH   1   2
BRANCH   1   6
ATOM      6  C   UNL     1       7.171  -1.519  -0.648  1.00  0.00     0.047 C 
BRANCH   6   7
ATOM      7  C   UNL     1       6.401  -0.421  -0.065  1.00  0.00    -0.047 A 
ATOM      8  C   UNL     1       5.882  -0.522   1.205  1.00  0.00     0.004 A 
ATOM      9  C   UNL     1       6.200   0.723  -0.802  1.00  0.00     0.004 A 
ATOM     10  C   UNL     1       5.158   0.566   1.697  1.00  0.00     0.000 A 
ATOM     11  C   UNL     1       5.484   1.797  -0.314  1.00  0.00     0.000 A 
ATOM     12  C   UNL     1       4.960   1.704   0.957  1.00  0.00     0.000 A 
ENDBRANCH   6   7
ENDBRANCH   1   6
TORSDOF 4
ENDMDL
MODEL 5
REMARK VINA RESULT:      -6.6      3.814      4.903
REMARK SMILES O=C(O)CCc1ccccc1
REMARK SMILES IDX 4 1 2 2 1 3 3 4 5 6 6 7 7 8 11 9 8 10 10 11 9 12
REMARK H PARENT 3 5
REMARK Flexibility Score: inf
ROOT
ATOM      1  C   UNL     1       5.477   2.774  -0.014  1.00  0.00     0.127 C 
ENDROOT
BRANCH   1   2
ATOM      2  C   UNL     1       6.213   3.749   0.825  1.00  0.00     0.303 C 
ATOM      3  O   UNL     1       6.194   3.674   2.078  1.00  0.00    -0.252 OA
BRANCH   2   4
ATOM      4  O   UNL     1       6.944   4.774   0.246  1.00  0.00    -0.481 OA
ATOM      5  H   UNL     1       6.838   5.728   0.602  1.00  0.00     0.296 HD
ENDBRANCH   2   4
ENDBRANCH   1   2
BRANCH   1   6
ATOM      6  C   UNL     1       4.886   1.732   0.885  1.00  0.00     0.047 C 
BRANCH   6   7
ATOM      7  C   UNL     1       5.662   0.494   0.951  1.00  0.00    -0.047 A 
ATOM      8  C   UNL     1       5.764  -0.209   2.128  1.00  0.00     0.004 A 
ATOM      9  C   UNL     1       6.291   0.035  -0.183  1.00  0.00     0.004 A 
ATOM     10  C   UNL     1       6.521  -1.384   2.118  1.00  0.00     0.000 A 
ATOM     11  C   UNL     1       7.039  -1.126  -0.191  1.00  0.00     0.000 A 
ATOM     12  C   UNL     1       7.147  -1.836   0.984  1.00  0.00     0.000 A 
ENDBRANCH   6   7
ENDBRANCH   1   6
TORSDOF 4
ENDMDL
