@<TRIPOS>MOLECULE
/home/cewinharhar/GITHUB/reincatalyze/data/processed/docking_pred/2023-Apr-26-1657_maxeplen10_maxtrainstep1000_exh32_gamma099_lrac9e-4_lrcr1e-3/bef029ec7f2d3d0301694813bb63cef4e6663bb8_ligand_2.pdbqt
 12 12 0 0 0
SMALL
GASTEIGER

@<TRIPOS>ATOM
      1  C          8.4270   -0.6310   -2.0890 C.3     1  UNL1        0.1270
      2  C          8.4670   -1.8820   -2.8830 C.2     1  UNL1        0.3030
      3  O          9.5490   -2.4810   -3.1010 O.2     1  UNL1       -0.2520
      4  O          7.3060   -2.4270   -3.4080 O.3     1  UNL1       -0.4810
      5  H          6.4110   -2.2360   -2.9490 H       1  UNL1        0.2960
      6  C          7.0200   -0.1170   -2.0900 C.3     1  UNL1        0.0470
      7  C          6.4380    0.0270   -0.7570 C.2     1  UNL1       -0.0470
      8  C          6.5260   -0.9930    0.1630 C.2     1  UNL1        0.0040
      9  C          5.8000    1.2000   -0.4260 C.2     1  UNL1        0.0040
     10  C          5.9490   -0.7860    1.4170 C.2     1  UNL1        0.0000
     11  C          5.2300    1.4030    0.8150 C.2     1  UNL1        0.0000
     12  C          5.3120    0.3860    1.7420 C.2     1  UNL1        0.0000
@<TRIPOS>BOND
     1     4     5    1
     2     4     2    1
     3     3     2    2
     4     2     1    1
     5     6     1    1
     6     6     7    1
     7     7     9    2
     8     7     8    1
     9     9    11    1
    10     8    10    2
    11    11    12    2
    12    10    12    1
