@<TRIPOS>MOLECULE
/home/cewinharhar/GITHUB/reincatalyze/data/processed/docking_pred/2023-Apr-26-1657_maxeplen10_maxtrainstep1000_exh32_gamma099_lrac9e-4_lrcr1e-3/bef029ec7f2d3d0301694813bb63cef4e6663bb8_ligand_2.pdbqt
 12 12 0 0 0
SMALL
GASTEIGER

@<TRIPOS>ATOM
      1  C          7.3090   -1.4440   -2.1380 C.3     1  UNL1        0.1270
      2  C          8.7520   -1.4190   -2.4720 C.2     1  UNL1        0.3030
      3  O          9.2780   -2.3340   -3.1520 O.2     1  UNL1       -0.2520
      4  O          9.5630   -0.3820   -2.0400 O.3     1  UNL1       -0.4810
      5  H         10.4640   -0.2250   -2.5000 H       1  UNL1        0.2960
      6  C          7.1710   -1.5190   -0.6480 C.3     1  UNL1        0.0470
      7  C          6.4010   -0.4210   -0.0650 C.2     1  UNL1       -0.0470
      8  C          5.8820   -0.5220    1.2050 C.2     1  UNL1        0.0040
      9  C          6.2000    0.7230   -0.8020 C.2     1  UNL1        0.0040
     10  C          5.1580    0.5660    1.6970 C.2     1  UNL1        0.0000
     11  C          5.4840    1.7970   -0.3140 C.2     1  UNL1        0.0000
     12  C          4.9600    1.7040    0.9570 C.2     1  UNL1        0.0000
@<TRIPOS>BOND
     1     3     2    2
     2     5     4    1
     3     2     1    1
     4     2     4    1
     5     1     6    1
     6     9    11    1
     7     9     7    2
     8     6     7    1
     9    11    12    2
    10     7     8    1
    11    12    10    1
    12     8    10    2
