@<TRIPOS>MOLECULE
/home/cewinharhar/GITHUB/reincatalyze/data/processed/docking_pred/2023-Apr-26-1657_maxeplen10_maxtrainstep1000_exh32_gamma099_lrac9e-4_lrcr1e-3/bef029ec7f2d3d0301694813bb63cef4e6663bb8_ligand_2.pdbqt
 12 12 0 0 0
SMALL
GASTEIGER

@<TRIPOS>ATOM
      1  C          5.4770    2.7740   -0.0140 C.3     1  UNL1        0.1270
      2  C          6.2130    3.7490    0.8250 C.2     1  UNL1        0.3030
      3  O          6.1940    3.6740    2.0780 O.2     1  UNL1       -0.2520
      4  O          6.9440    4.7740    0.2460 O.3     1  UNL1       -0.4810
      5  H          6.8380    5.7280    0.6020 H       1  UNL1        0.2960
      6  C          4.8860    1.7320    0.8850 C.3     1  UNL1        0.0470
      7  C          5.6620    0.4940    0.9510 C.2     1  UNL1       -0.0470
      8  C          5.7640   -0.2090    2.1280 C.2     1  UNL1        0.0040
      9  C          6.2910    0.0350   -0.1830 C.2     1  UNL1        0.0040
     10  C          6.5210   -1.3840    2.1180 C.2     1  UNL1        0.0000
     11  C          7.0390   -1.1260   -0.1910 C.2     1  UNL1        0.0000
     12  C          7.1470   -1.8360    0.9840 C.2     1  UNL1        0.0000
@<TRIPOS>BOND
     1    11     9    1
     2    11    12    2
     3     9     7    2
     4     1     2    1
     5     1     6    1
     6     4     5    1
     7     4     2    1
     8     2     3    2
     9     6     7    1
    10     7     8    1
    11    12    10    1
    12    10     8    2
