@<TRIPOS>MOLECULE
/home/cewinharhar/GITHUB/reincatalyze/data/processed/docking_pred/2023-Apr-26-1657_maxeplen10_maxtrainstep1000_exh32_gamma099_lrac9e-4_lrcr1e-3/bef029ec7f2d3d0301694813bb63cef4e6663bb8_ligand_2.pdbqt
 12 12 0 0 0
SMALL
GASTEIGER

@<TRIPOS>ATOM
      1  C          5.0310    1.6280    0.6650 C.3     1  UNL1        0.1270
      2  C          4.5660    0.9920    1.9210 C.2     1  UNL1        0.3030
      3  O          5.2630    0.1280    2.5090 O.2     1  UNL1       -0.2520
      4  O          3.3470    1.3360    2.4820 O.3     1  UNL1       -0.4810
      5  H          3.3010    2.1190    3.1390 H       1  UNL1        0.2960
      6  C          6.5270    1.6950    0.6960 C.3     1  UNL1        0.0470
      7  C          7.1780    0.9440   -0.3760 C.2     1  UNL1       -0.0470
      8  C          8.4910    1.1870   -0.7080 C.2     1  UNL1        0.0040
      9  C          6.4630   -0.0160   -1.0540 C.2     1  UNL1        0.0040
     10  C          9.0490    0.4320   -1.7420 C.2     1  UNL1        0.0000
     11  C          7.0160   -0.7610   -2.0760 C.2     1  UNL1        0.0000
     12  C          8.3300   -0.5230   -2.4150 C.2     1  UNL1        0.0000
@<TRIPOS>BOND
     1    12    11    2
     2    12    10    1
     3    11     9    1
     4    10     8    2
     5     9     7    2
     6     8     7    1
     7     7     6    1
     8     1     6    1
     9     1     2    1
    10     2     4    1
    11     2     3    2
    12     4     5    1
