@<TRIPOS>MOLECULE
/home/cewinharhar/GITHUB/reincatalyze/data/processed/docking_pred/2023-Apr-26-1657_maxeplen10_maxtrainstep1000_exh32_gamma099_lrac9e-4_lrcr1e-3/bf1bd72bf83e0bbc7f208f1f88a3802cf16c22f1_ligand_2.pdbqt
 12 12 0 0 0
SMALL
GASTEIGER

@<TRIPOS>ATOM
      1  C          8.4090   -0.6920   -2.0300 C.3     1  UNL1        0.1270
      2  C          8.3770   -1.9120   -2.8710 C.2     1  UNL1        0.3030
      3  O          7.2890   -2.4140   -3.2470 O.2     1  UNL1       -0.2520
      4  O          9.5510   -2.5340   -3.2650 O.3     1  UNL1       -0.4810
      5  H          9.5340   -3.5280   -3.5080 H       1  UNL1        0.2960
      6  C          7.0450   -0.0720   -2.0470 C.3     1  UNL1        0.0470
      7  C          6.4600    0.1120   -0.7200 C.2     1  UNL1       -0.0470
      8  C          5.8010    1.2760   -0.3980 C.2     1  UNL1        0.0040
      9  C          6.5720   -0.8960    0.2090 C.2     1  UNL1        0.0040
     10  C          5.2650    1.3830    0.8870 C.2     1  UNL1        0.0000
     11  C          6.0420   -0.7880    1.4790 C.2     1  UNL1        0.0000
     12  C          5.3810    0.3750    1.8110 C.2     1  UNL1        0.0000
@<TRIPOS>BOND
     1     5     4    1
     2     4     2    1
     3     3     2    2
     4     2     1    1
     5     6     1    1
     6     6     7    1
     7     7     8    2
     8     7     9    1
     9     8    10    1
    10     9    11    2
    11    10    12    2
    12    11    12    1
