MODEL 1
REMARK VINA RESULT:      -7.4      0.000      0.000
REMARK SMILES O=C(O)CCc1ccccc1
REMARK SMILES IDX 4 1 2 2 1 3 3 4 5 6 6 7 7 8 11 9 8 10 10 11 9 12
REMARK H PARENT 3 5
REMARK Flexibility Score: inf
ROOT
ATOM      1  C   UNL     1       8.443  -0.609  -2.181  1.00  0.00     0.127 C 
ENDROOT
BRANCH   1   2
ATOM      2  C   UNL     1       8.487  -1.893  -2.919  1.00  0.00     0.303 C 
ATOM      3  O   UNL     1       9.568  -2.507  -3.094  1.00  0.00    -0.252 OA
BRANCH   2   4
ATOM      4  O   UNL     1       7.330  -2.454  -3.436  1.00  0.00    -0.481 OA
ATOM      5  H   UNL     1       7.110  -3.432  -3.226  1.00  0.00     0.296 HD
ENDBRANCH   2   4
ENDBRANCH   1   2
BRANCH   1   6
ATOM      6  C   UNL     1       7.022  -0.135  -2.144  1.00  0.00     0.047 C 
BRANCH   6   7
ATOM      7  C   UNL     1       6.484   0.026  -0.794  1.00  0.00    -0.047 A 
ATOM      8  C   UNL     1       6.612  -0.978   0.138  1.00  0.00     0.004 A 
ATOM      9  C   UNL     1       5.847   1.198  -0.460  1.00  0.00     0.004 A 
ATOM     10  C   UNL     1       6.075  -0.755   1.408  1.00  0.00     0.000 A 
ATOM     11  C   UNL     1       5.317   1.417   0.796  1.00  0.00     0.000 A 
ATOM     12  C   UNL     1       5.440   0.416   1.735  1.00  0.00     0.000 A 
ENDBRANCH   6   7
ENDBRANCH   1   6
TORSDOF 4
ENDMDL
MODEL 2
REMARK VINA RESULT:      -7.3      0.134      1.732
REMARK SMILES O=C(O)CCc1ccccc1
REMARK SMILES IDX 4 1 2 2 1 3 3 4 5 6 6 7 7 8 11 9 8 10 10 11 9 12
REMARK H PARENT 3 5
REMARK Flexibility Score: inf
ROOT
ATOM      1  C   UNL     1       8.409  -0.692  -2.030  1.00  0.00     0.127 C 
ENDROOT
BRANCH   1   2
ATOM      2  C   UNL     1       8.377  -1.912  -2.871  1.00  0.00     0.303 C 
ATOM      3  O   UNL     1       7.289  -2.414  -3.247  1.00  0.00    -0.252 OA
BRANCH   2   4
ATOM      4  O   UNL     1       9.551  -2.534  -3.265  1.00  0.00    -0.481 OA
ATOM      5  H   UNL     1       9.534  -3.528  -3.508  1.00  0.00     0.296 HD
ENDBRANCH   2   4
ENDBRANCH   1   2
BRANCH   1   6
ATOM      6  C   UNL     1       7.045  -0.072  -2.047  1.00  0.00     0.047 C 
BRANCH   6   7
ATOM      7  C   UNL     1       6.460   0.112  -0.720  1.00  0.00    -0.047 A 
ATOM      8  C   UNL     1       5.801   1.276  -0.398  1.00  0.00     0.004 A 
ATOM      9  C   UNL     1       6.572  -0.896   0.209  1.00  0.00     0.004 A 
ATOM     10  C   UNL     1       5.265   1.383   0.887  1.00  0.00     0.000 A 
ATOM     11  C   UNL     1       6.042  -0.788   1.479  1.00  0.00     0.000 A 
ATOM     12  C   UNL     1       5.381   0.375   1.811  1.00  0.00     0.000 A 
ENDBRANCH   6   7
ENDBRANCH   1   6
TORSDOF 4
ENDMDL
MODEL 3
REMARK VINA RESULT:      -6.8      3.384      5.069
REMARK SMILES O=C(O)CCc1ccccc1
REMARK SMILES IDX 4 1 2 2 1 3 3 4 5 6 6 7 7 8 11 9 8 10 10 11 9 12
REMARK H PARENT 3 5
REMARK Flexibility Score: inf
ROOT
ATOM      1  C   UNL     1       4.983   1.773   0.698  1.00  0.00     0.127 C 
ENDROOT
BRANCH   1   2
ATOM      2  C   UNL     1       4.476   1.097   1.915  1.00  0.00     0.303 C 
ATOM      3  O   UNL     1       5.137   0.190   2.479  1.00  0.00    -0.252 OA
BRANCH   2   4
ATOM      4  O   UNL     1       3.254   1.448   2.466  1.00  0.00    -0.481 OA
ATOM      5  H   UNL     1       2.594   1.999   1.910  1.00  0.00     0.296 HD
ENDBRANCH   2   4
ENDBRANCH   1   2
BRANCH   1   6
ATOM      6  C   UNL     1       6.481   1.768   0.746  1.00  0.00     0.047 C 
BRANCH   6   7
ATOM      7  C   UNL     1       7.108   1.015  -0.339  1.00  0.00    -0.047 A 
ATOM      8  C   UNL     1       6.380   0.114  -1.082  1.00  0.00     0.004 A 
ATOM      9  C   UNL     1       8.440   1.219  -0.616  1.00  0.00     0.004 A 
ATOM     10  C   UNL     1       7.044  -0.569  -2.104  1.00  0.00     0.000 A 
ATOM     11  C   UNL     1       9.094   0.543  -1.626  1.00  0.00     0.000 A 
ATOM     12  C   UNL     1       8.373  -0.362  -2.374  1.00  0.00     0.000 A 
ENDBRANCH   6   7
ENDBRANCH   1   6
TORSDOF 4
ENDMDL
MODEL 4
REMARK VINA RESULT:      -6.7      1.932      2.302
REMARK SMILES O=C(O)CCc1ccccc1
REMARK SMILES IDX 4 1 2 2 1 3 3 4 5 6 6 7 7 8 11 9 8 10 10 11 9 12
REMARK H PARENT 3 5
REMARK Flexibility Score: inf
ROOT
ATOM      1  C   UNL     1       8.230   0.214  -2.192  1.00  0.00     0.127 C 
ENDROOT
BRANCH   1   2
ATOM      2  C   UNL     1       9.364   0.342  -1.246  1.00  0.00     0.303 C 
ATOM      3  O   UNL     1       9.457  -0.400  -0.238  1.00  0.00    -0.252 OA
BRANCH   2   4
ATOM      4  O   UNL     1      10.355   1.288  -1.451  1.00  0.00    -0.481 OA
ATOM      5  H   UNL     1      10.967   1.548  -0.673  1.00  0.00     0.296 HD
ENDBRANCH   2   4
ENDBRANCH   1   2
BRANCH   1   6
ATOM      6  C   UNL     1       7.131  -0.542  -1.509  1.00  0.00     0.047 C 
BRANCH   6   7
ATOM      7  C   UNL     1       6.345   0.264  -0.576  1.00  0.00    -0.047 A 
ATOM      8  C   UNL     1       6.122  -0.168   0.711  1.00  0.00     0.004 A 
ATOM      9  C   UNL     1       5.830   1.468  -0.998  1.00  0.00     0.004 A 
ATOM     10  C   UNL     1       5.363   0.654   1.548  1.00  0.00     0.000 A 
ATOM     11  C   UNL     1       5.081   2.279  -0.169  1.00  0.00     0.000 A 
ATOM     12  C   UNL     1       4.851   1.853   1.121  1.00  0.00     0.000 A 
ENDBRANCH   6   7
ENDBRANCH   1   6
TORSDOF 4
ENDMDL
MODEL 5
REMARK VINA RESULT:      -6.5      1.993      2.753
REMARK SMILES O=C(O)CCc1ccccc1
REMARK SMILES IDX 4 1 2 2 1 3 3 4 5 6 6 7 7 8 11 9 8 10 10 11 9 12
REMARK H PARENT 3 5
REMARK Flexibility Score: inf
ROOT
ATOM      1  C   UNL     1       7.804  -2.334   0.822  1.00  0.00     0.127 C 
ENDROOT
BRANCH   1   2
ATOM      2  C   UNL     1       8.717  -3.390   0.325  1.00  0.00     0.303 C 
ATOM      3  O   UNL     1       9.630  -3.857   1.050  1.00  0.00    -0.252 OA
BRANCH   2   4
ATOM      4  O   UNL     1       8.587  -3.893  -0.960  1.00  0.00    -0.481 OA
ATOM      5  H   UNL     1       8.386  -4.888  -1.091  1.00  0.00     0.296 HD
ENDBRANCH   2   4
ENDBRANCH   1   2
BRANCH   1   6
ATOM      6  C   UNL     1       7.497  -1.405  -0.312  1.00  0.00     0.047 C 
BRANCH   6   7
ATOM      7  C   UNL     1       6.616  -0.295   0.050  1.00  0.00    -0.047 A 
ATOM      8  C   UNL     1       6.331   0.701  -0.854  1.00  0.00     0.004 A 
ATOM      9  C   UNL     1       6.069  -0.257   1.312  1.00  0.00     0.004 A 
ATOM     10  C   UNL     1       5.482   1.729  -0.440  1.00  0.00     0.000 A 
ATOM     11  C   UNL     1       5.229   0.760   1.720  1.00  0.00     0.000 A 
ATOM     12  C   UNL     1       4.940   1.763   0.820  1.00  0.00     0.000 A 
ENDBRANCH   6   7
ENDBRANCH   1   6
TORSDOF 4
ENDMDL
