@<TRIPOS>MOLECULE
/home/cewinharhar/GITHUB/reincatalyze/data/processed/docking_pred/2023-Apr-26-1657_maxeplen10_maxtrainstep1000_exh32_gamma099_lrac9e-4_lrcr1e-3/bf1bd72bf83e0bbc7f208f1f88a3802cf16c22f1_ligand_2.pdbqt
 12 12 0 0 0
SMALL
GASTEIGER

@<TRIPOS>ATOM
      1  C          4.9830    1.7730    0.6980 C.3     1  UNL1        0.1270
      2  C          4.4760    1.0970    1.9150 C.2     1  UNL1        0.3030
      3  O          5.1370    0.1900    2.4790 O.2     1  UNL1       -0.2520
      4  O          3.2540    1.4480    2.4660 O.3     1  UNL1       -0.4810
      5  H          2.5940    1.9990    1.9100 H       1  UNL1        0.2960
      6  C          6.4810    1.7680    0.7460 C.3     1  UNL1        0.0470
      7  C          7.1080    1.0150   -0.3390 C.2     1  UNL1       -0.0470
      8  C          6.3800    0.1140   -1.0820 C.2     1  UNL1        0.0040
      9  C          8.4400    1.2190   -0.6160 C.2     1  UNL1        0.0040
     10  C          7.0440   -0.5690   -2.1040 C.2     1  UNL1        0.0000
     11  C          9.0940    0.5430   -1.6260 C.2     1  UNL1        0.0000
     12  C          8.3730   -0.3620   -2.3740 C.2     1  UNL1        0.0000
@<TRIPOS>BOND
     1    12    10    2
     2    12    11    1
     3    10     8    1
     4    11     9    2
     5     8     7    2
     6     9     7    1
     7     7     6    1
     8     1     6    1
     9     1     2    1
    10     5     4    1
    11     2     4    1
    12     2     3    2
