@<TRIPOS>MOLECULE
/home/cewinharhar/GITHUB/reincatalyze/data/processed/docking_pred/2023-Apr-26-1657_maxeplen10_maxtrainstep1000_exh32_gamma099_lrac9e-4_lrcr1e-3/bf1bd72bf83e0bbc7f208f1f88a3802cf16c22f1_ligand_2.pdbqt
 12 12 0 0 0
SMALL
GASTEIGER

@<TRIPOS>ATOM
      1  C          8.4430   -0.6090   -2.1810 C.3     1  UNL1        0.1270
      2  C          8.4870   -1.8930   -2.9190 C.2     1  UNL1        0.3030
      3  O          9.5680   -2.5070   -3.0940 O.2     1  UNL1       -0.2520
      4  O          7.3300   -2.4540   -3.4360 O.3     1  UNL1       -0.4810
      5  H          7.1100   -3.4320   -3.2260 H       1  UNL1        0.2960
      6  C          7.0220   -0.1350   -2.1440 C.3     1  UNL1        0.0470
      7  C          6.4840    0.0260   -0.7940 C.2     1  UNL1       -0.0470
      8  C          6.6120   -0.9780    0.1380 C.2     1  UNL1        0.0040
      9  C          5.8470    1.1980   -0.4600 C.2     1  UNL1        0.0040
     10  C          6.0750   -0.7550    1.4080 C.2     1  UNL1        0.0000
     11  C          5.3170    1.4170    0.7960 C.2     1  UNL1        0.0000
     12  C          5.4400    0.4160    1.7350 C.2     1  UNL1        0.0000
@<TRIPOS>BOND
     1     4     5    1
     2     4     2    1
     3     3     2    2
     4     2     1    1
     5     1     6    1
     6     6     7    1
     7     7     9    2
     8     7     8    1
     9     9    11    1
    10     8    10    2
    11    11    12    2
    12    10    12    1
