@<TRIPOS>MOLECULE
/home/cewinharhar/GITHUB/reincatalyze/data/processed/docking_pred/2023-Apr-26-1657_maxeplen10_maxtrainstep1000_exh32_gamma099_lrac9e-4_lrcr1e-3/bf1bd72bf83e0bbc7f208f1f88a3802cf16c22f1_ligand_2.pdbqt
 12 12 0 0 0
SMALL
GASTEIGER

@<TRIPOS>ATOM
      1  C          7.8040   -2.3340    0.8220 C.3     1  UNL1        0.1270
      2  C          8.7170   -3.3900    0.3250 C.2     1  UNL1        0.3030
      3  O          9.6300   -3.8570    1.0500 O.2     1  UNL1       -0.2520
      4  O          8.5870   -3.8930   -0.9600 O.3     1  UNL1       -0.4810
      5  H          8.3860   -4.8880   -1.0910 H       1  UNL1        0.2960
      6  C          7.4970   -1.4050   -0.3120 C.3     1  UNL1        0.0470
      7  C          6.6160   -0.2950    0.0500 C.2     1  UNL1       -0.0470
      8  C          6.3310    0.7010   -0.8540 C.2     1  UNL1        0.0040
      9  C          6.0690   -0.2570    1.3120 C.2     1  UNL1        0.0040
     10  C          5.4820    1.7290   -0.4400 C.2     1  UNL1        0.0000
     11  C          5.2290    0.7600    1.7200 C.2     1  UNL1        0.0000
     12  C          4.9400    1.7630    0.8200 C.2     1  UNL1        0.0000
@<TRIPOS>BOND
     1     5     4    1
     2     4     2    1
     3     8    10    1
     4     8     7    2
     5    10    12    2
     6     6     7    1
     7     6     1    1
     8     7     9    1
     9     2     1    1
    10     2     3    2
    11    12    11    1
    12     9    11    2
