@<TRIPOS>MOLECULE
/home/cewinharhar/GITHUB/reincatalyze/data/processed/docking_pred/2023-Apr-26-1657_maxeplen10_maxtrainstep1000_exh32_gamma099_lrac9e-4_lrcr1e-3/bf1bd72bf83e0bbc7f208f1f88a3802cf16c22f1_ligand_2.pdbqt
 12 12 0 0 0
SMALL
GASTEIGER

@<TRIPOS>ATOM
      1  C          8.2300    0.2140   -2.1920 C.3     1  UNL1        0.1270
      2  C          9.3640    0.3420   -1.2460 C.2     1  UNL1        0.3030
      3  O          9.4570   -0.4000   -0.2380 O.2     1  UNL1       -0.2520
      4  O         10.3550    1.2880   -1.4510 O.3     1  UNL1       -0.4810
      5  H         10.9670    1.5480   -0.6730 H       1  UNL1        0.2960
      6  C          7.1310   -0.5420   -1.5090 C.3     1  UNL1        0.0470
      7  C          6.3450    0.2640   -0.5760 C.2     1  UNL1       -0.0470
      8  C          6.1220   -0.1680    0.7110 C.2     1  UNL1        0.0040
      9  C          5.8300    1.4680   -0.9980 C.2     1  UNL1        0.0040
     10  C          5.3630    0.6540    1.5480 C.2     1  UNL1        0.0000
     11  C          5.0810    2.2790   -0.1690 C.2     1  UNL1        0.0000
     12  C          4.8510    1.8530    1.1210 C.2     1  UNL1        0.0000
@<TRIPOS>BOND
     1     1     6    1
     2     1     2    1
     3     6     7    1
     4     4     2    1
     5     4     5    1
     6     2     3    2
     7     9     7    2
     8     9    11    1
     9     7     8    1
    10    11    12    2
    11     8    10    2
    12    12    10    1
