MODEL 1
REMARK VINA RESULT:      -7.3      0.000      0.000
REMARK SMILES O=C(O)CCc1ccccc1
REMARK SMILES IDX 4 1 2 2 1 3 3 4 5 6 6 7 7 8 11 9 8 10 10 11 9 12
REMARK H PARENT 3 5
REMARK Flexibility Score: inf
ROOT
ATOM      1  C   UNL     1       8.425  -0.695  -2.052  1.00  0.00     0.127 C 
ENDROOT
BRANCH   1   2
ATOM      2  C   UNL     1       8.465  -1.928  -2.873  1.00  0.00     0.303 C 
ATOM      3  O   UNL     1       9.545  -2.532  -3.087  1.00  0.00    -0.252 OA
BRANCH   2   4
ATOM      4  O   UNL     1       7.307  -2.450  -3.427  1.00  0.00    -0.481 OA
ATOM      5  H   UNL     1       7.378  -3.199  -4.121  1.00  0.00     0.296 HD
ENDBRANCH   2   4
ENDBRANCH   1   2
BRANCH   1   6
ATOM      6  C   UNL     1       7.025  -0.160  -2.075  1.00  0.00     0.047 C 
BRANCH   6   7
ATOM      7  C   UNL     1       6.455   0.069  -0.748  1.00  0.00    -0.047 A 
ATOM      8  C   UNL     1       5.819   1.252  -0.451  1.00  0.00     0.004 A 
ATOM      9  C   UNL     1       6.559  -0.916   0.206  1.00  0.00     0.004 A 
ATOM     10  C   UNL     1       5.297   1.402   0.836  1.00  0.00     0.000 A 
ATOM     11  C   UNL     1       6.043  -0.766   1.478  1.00  0.00     0.000 A 
ATOM     12  C   UNL     1       5.405   0.416   1.785  1.00  0.00     0.000 A 
ENDBRANCH   6   7
ENDBRANCH   1   6
TORSDOF 4
ENDMDL
MODEL 2
REMARK VINA RESULT:      -7.3      0.095      1.439
REMARK SMILES O=C(O)CCc1ccccc1
REMARK SMILES IDX 4 1 2 2 1 3 3 4 5 6 6 7 7 8 11 9 8 10 10 11 9 12
REMARK H PARENT 3 5
REMARK Flexibility Score: inf
ROOT
ATOM      1  C   UNL     1       8.444  -0.585  -2.212  1.00  0.00     0.127 C 
ENDROOT
BRANCH   1   2
ATOM      2  C   UNL     1       8.478  -1.899  -2.896  1.00  0.00     0.303 C 
ATOM      3  O   UNL     1       9.552  -2.537  -3.027  1.00  0.00    -0.252 OA
BRANCH   2   4
ATOM      4  O   UNL     1       7.321  -2.462  -3.411  1.00  0.00    -0.481 OA
ATOM      5  H   UNL     1       6.417  -2.214  -2.999  1.00  0.00     0.296 HD
ENDBRANCH   2   4
ENDBRANCH   1   2
BRANCH   1   6
ATOM      6  C   UNL     1       7.022  -0.117  -2.163  1.00  0.00     0.047 C 
BRANCH   6   7
ATOM      7  C   UNL     1       6.492   0.035  -0.808  1.00  0.00    -0.047 A 
ATOM      8  C   UNL     1       6.617  -0.979   0.113  1.00  0.00     0.004 A 
ATOM      9  C   UNL     1       5.865   1.208  -0.460  1.00  0.00     0.004 A 
ATOM     10  C   UNL     1       6.089  -0.765   1.388  1.00  0.00     0.000 A 
ATOM     11  C   UNL     1       5.343   1.418   0.801  1.00  0.00     0.000 A 
ATOM     12  C   UNL     1       5.464   0.407   1.730  1.00  0.00     0.000 A 
ENDBRANCH   6   7
ENDBRANCH   1   6
TORSDOF 4
ENDMDL
MODEL 3
REMARK VINA RESULT:      -7.3      0.610      1.595
REMARK SMILES O=C(O)CCc1ccccc1
REMARK SMILES IDX 4 1 2 2 1 3 3 4 5 6 6 7 7 8 11 9 8 10 10 11 9 12
REMARK H PARENT 3 5
REMARK Flexibility Score: inf
ROOT
ATOM      1  C   UNL     1       8.258  -0.896  -1.862  1.00  0.00     0.127 C 
ENDROOT
BRANCH   1   2
ATOM      2  C   UNL     1       8.409  -1.992  -2.848  1.00  0.00     0.303 C 
ATOM      3  O   UNL     1       9.536  -2.480  -3.111  1.00  0.00    -0.252 OA
BRANCH   2   4
ATOM      4  O   UNL     1       7.307  -2.511  -3.508  1.00  0.00    -0.481 OA
ATOM      5  H   UNL     1       6.922  -2.007  -4.312  1.00  0.00     0.296 HD
ENDBRANCH   2   4
ENDBRANCH   1   2
BRANCH   1   6
ATOM      6  C   UNL     1       7.378  -1.382  -0.750  1.00  0.00     0.047 C 
BRANCH   6   7
ATOM      7  C   UNL     1       6.561  -0.335  -0.139  1.00  0.00    -0.047 A 
ATOM      8  C   UNL     1       6.122  -0.454   1.160  1.00  0.00     0.004 A 
ATOM      9  C   UNL     1       6.234   0.779  -0.877  1.00  0.00     0.004 A 
ATOM     10  C   UNL     1       5.346   0.585   1.679  1.00  0.00     0.000 A 
ATOM     11  C   UNL     1       5.466   1.804  -0.362  1.00  0.00     0.000 A 
ATOM     12  C   UNL     1       5.022   1.693   0.937  1.00  0.00     0.000 A 
ENDBRANCH   6   7
ENDBRANCH   1   6
TORSDOF 4
ENDMDL
MODEL 4
REMARK VINA RESULT:      -6.8      3.382      5.093
REMARK SMILES O=C(O)CCc1ccccc1
REMARK SMILES IDX 4 1 2 2 1 3 3 4 5 6 6 7 7 8 11 9 8 10 10 11 9 12
REMARK H PARENT 3 5
REMARK Flexibility Score: inf
ROOT
ATOM      1  C   UNL     1       4.996   1.808   0.703  1.00  0.00     0.127 C 
ENDROOT
BRANCH   1   2
ATOM      2  C   UNL     1       4.480   1.121   1.911  1.00  0.00     0.303 C 
ATOM      3  O   UNL     1       5.136   0.208   2.470  1.00  0.00    -0.252 OA
BRANCH   2   4
ATOM      4  O   UNL     1       3.254   1.469   2.456  1.00  0.00    -0.481 OA
ATOM      5  H   UNL     1       2.948   2.445   2.417  1.00  0.00     0.296 HD
ENDBRANCH   2   4
ENDBRANCH   1   2
BRANCH   1   6
ATOM      6  C   UNL     1       6.493   1.786   0.753  1.00  0.00     0.047 C 
BRANCH   6   7
ATOM      7  C   UNL     1       7.113   1.040  -0.341  1.00  0.00    -0.047 A 
ATOM      8  C   UNL     1       6.377   0.156  -1.095  1.00  0.00     0.004 A 
ATOM      9  C   UNL     1       8.448   1.233  -0.613  1.00  0.00     0.004 A 
ATOM     10  C   UNL     1       7.035  -0.522  -2.125  1.00  0.00     0.000 A 
ATOM     11  C   UNL     1       9.096   0.563  -1.632  1.00  0.00     0.000 A 
ATOM     12  C   UNL     1       8.366  -0.326  -2.391  1.00  0.00     0.000 A 
ENDBRANCH   6   7
ENDBRANCH   1   6
TORSDOF 4
ENDMDL
MODEL 5
REMARK VINA RESULT:      -6.7      3.829      4.927
REMARK SMILES O=C(O)CCc1ccccc1
REMARK SMILES IDX 4 1 2 2 1 3 3 4 5 6 6 7 7 8 11 9 8 10 10 11 9 12
REMARK H PARENT 3 5
REMARK Flexibility Score: inf
ROOT
ATOM      1  C   UNL     1       5.445   2.888  -0.003  1.00  0.00     0.127 C 
ENDROOT
BRANCH   1   2
ATOM      2  C   UNL     1       6.234   3.852   0.799  1.00  0.00     0.303 C 
ATOM      3  O   UNL     1       6.886   4.775   0.251  1.00  0.00    -0.252 OA
BRANCH   2   4
ATOM      4  O   UNL     1       6.273   3.762   2.181  1.00  0.00    -0.481 OA
ATOM      5  H   UNL     1       6.382   4.615   2.736  1.00  0.00     0.296 HD
ENDBRANCH   2   4
ENDBRANCH   1   2
BRANCH   1   6
ATOM      6  C   UNL     1       4.916   1.831   0.918  1.00  0.00     0.047 C 
BRANCH   6   7
ATOM      7  C   UNL     1       5.703   0.599   0.925  1.00  0.00    -0.047 A 
ATOM      8  C   UNL     1       6.356   0.176  -0.210  1.00  0.00     0.004 A 
ATOM      9  C   UNL     1       5.788  -0.138   2.083  1.00  0.00     0.004 A 
ATOM     10  C   UNL     1       7.091  -1.009  -0.131  1.00  0.00     0.000 A 
ATOM     11  C   UNL     1       6.514  -1.310   2.160  1.00  0.00     0.000 A 
ATOM     12  C   UNL     1       7.170  -1.741   1.028  1.00  0.00     0.000 A 
ENDBRANCH   6   7
ENDBRANCH   1   6
TORSDOF 4
ENDMDL
