@<TRIPOS>MOLECULE
/home/cewinharhar/GITHUB/reincatalyze/data/processed/docking_pred/2023-Apr-26-1657_maxeplen10_maxtrainstep1000_exh32_gamma099_lrac9e-4_lrcr1e-3/bfaa3bc067c86e8b5ef89a85d12e30cfe25fe09e_ligand_2.pdbqt
 12 12 0 0 0
SMALL
GASTEIGER

@<TRIPOS>ATOM
      1  C          8.2580   -0.8960   -1.8620 C.3     1  UNL1        0.1270
      2  C          8.4090   -1.9920   -2.8480 C.2     1  UNL1        0.3030
      3  O          9.5360   -2.4800   -3.1110 O.2     1  UNL1       -0.2520
      4  O          7.3070   -2.5110   -3.5080 O.3     1  UNL1       -0.4810
      5  H          6.9220   -2.0070   -4.3120 H       1  UNL1        0.2960
      6  C          7.3780   -1.3820   -0.7500 C.3     1  UNL1        0.0470
      7  C          6.5610   -0.3350   -0.1390 C.2     1  UNL1       -0.0470
      8  C          6.1220   -0.4540    1.1600 C.2     1  UNL1        0.0040
      9  C          6.2340    0.7790   -0.8770 C.2     1  UNL1        0.0040
     10  C          5.3460    0.5850    1.6790 C.2     1  UNL1        0.0000
     11  C          5.4660    1.8040   -0.3620 C.2     1  UNL1        0.0000
     12  C          5.0220    1.6930    0.9370 C.2     1  UNL1        0.0000
@<TRIPOS>BOND
     1     5     4    1
     2     4     2    1
     3     3     2    2
     4     2     1    1
     5     1     6    1
     6     9    11    1
     7     9     7    2
     8     6     7    1
     9    11    12    2
    10     7     8    1
    11    12    10    1
    12     8    10    2
