@<TRIPOS>MOLECULE
/home/cewinharhar/GITHUB/reincatalyze/data/processed/docking_pred/2023-Apr-26-1657_maxeplen10_maxtrainstep1000_exh32_gamma099_lrac9e-4_lrcr1e-3/bfaa3bc067c86e8b5ef89a85d12e30cfe25fe09e_ligand_2.pdbqt
 12 12 0 0 0
SMALL
GASTEIGER

@<TRIPOS>ATOM
      1  C          8.4440   -0.5850   -2.2120 C.3     1  UNL1        0.1270
      2  C          8.4780   -1.8990   -2.8960 C.2     1  UNL1        0.3030
      3  O          9.5520   -2.5370   -3.0270 O.2     1  UNL1       -0.2520
      4  O          7.3210   -2.4620   -3.4110 O.3     1  UNL1       -0.4810
      5  H          6.4170   -2.2140   -2.9990 H       1  UNL1        0.2960
      6  C          7.0220   -0.1170   -2.1630 C.3     1  UNL1        0.0470
      7  C          6.4920    0.0350   -0.8080 C.2     1  UNL1       -0.0470
      8  C          6.6170   -0.9790    0.1130 C.2     1  UNL1        0.0040
      9  C          5.8650    1.2080   -0.4600 C.2     1  UNL1        0.0040
     10  C          6.0890   -0.7650    1.3880 C.2     1  UNL1        0.0000
     11  C          5.3430    1.4180    0.8010 C.2     1  UNL1        0.0000
     12  C          5.4640    0.4070    1.7300 C.2     1  UNL1        0.0000
@<TRIPOS>BOND
     1     4     5    1
     2     4     2    1
     3     3     2    2
     4     2     1    1
     5     1     6    1
     6     6     7    1
     7     7     9    2
     8     7     8    1
     9     9    11    1
    10     8    10    2
    11    11    12    2
    12    10    12    1
