@<TRIPOS>MOLECULE
/home/cewinharhar/GITHUB/reincatalyze/data/processed/docking_pred/2023-Apr-26-1657_maxeplen10_maxtrainstep1000_exh32_gamma099_lrac9e-4_lrcr1e-3/bfaa3bc067c86e8b5ef89a85d12e30cfe25fe09e_ligand_2.pdbqt
 12 12 0 0 0
SMALL
GASTEIGER

@<TRIPOS>ATOM
      1  C          8.4250   -0.6950   -2.0520 C.3     1  UNL1        0.1270
      2  C          8.4650   -1.9280   -2.8730 C.2     1  UNL1        0.3030
      3  O          9.5450   -2.5320   -3.0870 O.2     1  UNL1       -0.2520
      4  O          7.3070   -2.4500   -3.4270 O.3     1  UNL1       -0.4810
      5  H          7.3780   -3.1990   -4.1210 H       1  UNL1        0.2960
      6  C          7.0250   -0.1600   -2.0750 C.3     1  UNL1        0.0470
      7  C          6.4550    0.0690   -0.7480 C.2     1  UNL1       -0.0470
      8  C          5.8190    1.2520   -0.4510 C.2     1  UNL1        0.0040
      9  C          6.5590   -0.9160    0.2060 C.2     1  UNL1        0.0040
     10  C          5.2970    1.4020    0.8360 C.2     1  UNL1        0.0000
     11  C          6.0430   -0.7660    1.4780 C.2     1  UNL1        0.0000
     12  C          5.4050    0.4160    1.7850 C.2     1  UNL1        0.0000
@<TRIPOS>BOND
     1     5     4    1
     2     4     2    1
     3     3     2    2
     4     2     1    1
     5     6     1    1
     6     6     7    1
     7     7     8    2
     8     7     9    1
     9     8    10    1
    10     9    11    2
    11    10    12    2
    12    11    12    1
