@<TRIPOS>MOLECULE
/home/cewinharhar/GITHUB/reincatalyze/data/processed/docking_pred/2023-Apr-26-1657_maxeplen10_maxtrainstep1000_exh32_gamma099_lrac9e-4_lrcr1e-3/c00c8b20774af87dd702fd508d588995eeb45aaa_ligand_2.pdbqt
 12 12 0 0 0
SMALL
GASTEIGER

@<TRIPOS>ATOM
      1  C          5.0170    1.8060    0.7310 C.3     1  UNL1        0.1270
      2  C          4.4790    1.1120    1.9240 C.2     1  UNL1        0.3030
      3  O          5.1200    0.1890    2.4840 O.2     1  UNL1       -0.2520
      4  O          3.2490    1.4640    2.4550 O.3     1  UNL1       -0.4810
      5  H          2.8430    0.8920    3.2010 H       1  UNL1        0.2960
      6  C          6.5130    1.7420    0.7840 C.3     1  UNL1        0.0470
      7  C          7.1160    0.9990   -0.3220 C.2     1  UNL1       -0.0470
      8  C          6.3820    0.0790   -1.0340 C.2     1  UNL1        0.0040
      9  C          8.4320    1.2310   -0.6480 C.2     1  UNL1        0.0040
     10  C          7.0220   -0.5930   -2.0780 C.2     1  UNL1        0.0000
     11  C          9.0640    0.5660   -1.6800 C.2     1  UNL1        0.0000
     12  C          8.3360   -0.3580   -2.3980 C.2     1  UNL1        0.0000
@<TRIPOS>BOND
     1    12    10    2
     2    12    11    1
     3    10     8    1
     4    11     9    2
     5     8     7    2
     6     9     7    1
     7     7     6    1
     8     1     6    1
     9     1     2    1
    10     2     4    1
    11     2     3    2
    12     4     5    1
