@<TRIPOS>MOLECULE
/home/cewinharhar/GITHUB/reincatalyze/data/processed/docking_pred/2023-Apr-26-1657_maxeplen10_maxtrainstep1000_exh32_gamma099_lrac9e-4_lrcr1e-3/c00c8b20774af87dd702fd508d588995eeb45aaa_ligand_2.pdbqt
 12 12 0 0 0
SMALL
GASTEIGER

@<TRIPOS>ATOM
      1  C          5.5070    2.8940   -0.0340 C.3     1  UNL1        0.1270
      2  C          6.2390    3.9020    0.7690 C.2     1  UNL1        0.3030
      3  O          6.9560    4.7750    0.2210 O.2     1  UNL1       -0.2520
      4  O          6.1510    3.9080    2.1520 O.3     1  UNL1       -0.4810
      5  H          6.6070    4.6580    2.6790 H       1  UNL1        0.2960
      6  C          4.9730    1.8480    0.8970 C.3     1  UNL1        0.0470
      7  C          5.7700    0.6230    0.9350 C.2     1  UNL1       -0.0470
      8  C          6.5460    0.2550   -0.1390 C.2     1  UNL1        0.0040
      9  C          5.7390   -0.1640    2.0630 C.2     1  UNL1        0.0040
     10  C          7.2820   -0.9270   -0.0330 C.2     1  UNL1        0.0000
     11  C          6.4670   -1.3330    2.1660 C.2     1  UNL1        0.0000
     12  C          7.2460   -1.7080    1.0940 C.2     1  UNL1        0.0000
@<TRIPOS>BOND
     1     8    10    1
     2     8     7    2
     3     1     2    1
     4     1     6    1
     5    10    12    2
     6     3     2    2
     7     2     4    1
     8     6     7    1
     9     7     9    1
    10    12    11    1
    11     9    11    2
    12     4     5    1
