@<TRIPOS>MOLECULE
/home/cewinharhar/GITHUB/reincatalyze/data/processed/docking_pred/2023-Apr-26-1657_maxeplen10_maxtrainstep1000_exh32_gamma099_lrac9e-4_lrcr1e-3/c00c8b20774af87dd702fd508d588995eeb45aaa_ligand_2.pdbqt
 12 12 0 0 0
SMALL
GASTEIGER

@<TRIPOS>ATOM
      1  C          8.1640   -0.7610   -2.0700 C.3     1  UNL1        0.1270
      2  C          8.3440   -1.9690   -2.9090 C.2     1  UNL1        0.3030
      3  O          9.4770   -2.4860   -3.0700 O.2     1  UNL1       -0.2520
      4  O          7.2630   -2.5620   -3.5420 O.3     1  UNL1       -0.4810
      5  H          7.2930   -3.5640   -3.7500 H       1  UNL1        0.2960
      6  C          7.6450   -1.1910   -0.7310 C.3     1  UNL1        0.0470
      7  C          6.7200   -0.2390   -0.1180 C.2     1  UNL1       -0.0470
      8  C          6.2610   -0.4320    1.1640 C.2     1  UNL1        0.0040
      9  C          6.3120    0.8590   -0.8390 C.2     1  UNL1        0.0040
     10  C          5.3800    0.5190    1.6860 C.2     1  UNL1        0.0000
     11  C          5.4410    1.7970   -0.3210 C.2     1  UNL1        0.0000
     12  C          4.9760    1.6120    0.9630 C.2     1  UNL1        0.0000
@<TRIPOS>BOND
     1     5     4    1
     2     4     2    1
     3     3     2    2
     4     2     1    1
     5     1     6    1
     6     9    11    1
     7     9     7    2
     8     6     7    1
     9    11    12    2
    10     7     8    1
    11    12    10    1
    12     8    10    2
