@<TRIPOS>MOLECULE
/home/cewinharhar/GITHUB/reincatalyze/data/processed/docking_pred/2023-Apr-26-1657_maxeplen10_maxtrainstep1000_exh32_gamma099_lrac9e-4_lrcr1e-3/c00c8b20774af87dd702fd508d588995eeb45aaa_ligand_2.pdbqt
 12 12 0 0 0
SMALL
GASTEIGER

@<TRIPOS>ATOM
      1  C          8.4180   -0.5730   -2.2270 C.3     1  UNL1        0.1270
      2  C          8.4720   -1.8790   -2.9260 C.2     1  UNL1        0.3030
      3  O          9.5560   -2.4960   -3.0680 O.2     1  UNL1       -0.2520
      4  O          7.3230   -2.4560   -3.4420 O.3     1  UNL1       -0.4810
      5  H          7.3880   -3.0370   -4.2820 H       1  UNL1        0.2960
      6  C          6.9870   -0.1310   -2.1650 C.3     1  UNL1        0.0470
      7  C          6.4720    0.0280   -0.8060 C.2     1  UNL1       -0.0470
      8  C          6.6040   -0.9820    0.1180 C.2     1  UNL1        0.0040
      9  C          5.8520    1.2060   -0.4570 C.2     1  UNL1        0.0040
     10  C          6.0900   -0.7600    1.3980 C.2     1  UNL1        0.0000
     11  C          5.3440    1.4230    0.8080 C.2     1  UNL1        0.0000
     12  C          5.4710    0.4160    1.7400 C.2     1  UNL1        0.0000
@<TRIPOS>BOND
     1     5     4    1
     2     4     2    1
     3     3     2    2
     4     2     1    1
     5     1     6    1
     6     6     7    1
     7     7     9    2
     8     7     8    1
     9     9    11    1
    10     8    10    2
    11    11    12    2
    12    10    12    1
