MODEL 1
REMARK VINA RESULT:      -7.3      0.000      0.000
REMARK SMILES O=C(O)CCc1ccccc1
REMARK SMILES IDX 4 1 2 2 1 3 3 4 5 6 6 7 7 8 11 9 8 10 10 11 9 12
REMARK H PARENT 3 5
REMARK Flexibility Score: inf
ROOT
ATOM      1  C   UNL     1       8.418  -0.573  -2.227  1.00  0.00     0.127 C 
ENDROOT
BRANCH   1   2
ATOM      2  C   UNL     1       8.472  -1.879  -2.926  1.00  0.00     0.303 C 
ATOM      3  O   UNL     1       9.556  -2.496  -3.068  1.00  0.00    -0.252 OA
BRANCH   2   4
ATOM      4  O   UNL     1       7.323  -2.456  -3.442  1.00  0.00    -0.481 OA
ATOM      5  H   UNL     1       7.388  -3.037  -4.282  1.00  0.00     0.296 HD
ENDBRANCH   2   4
ENDBRANCH   1   2
BRANCH   1   6
ATOM      6  C   UNL     1       6.987  -0.131  -2.165  1.00  0.00     0.047 C 
BRANCH   6   7
ATOM      7  C   UNL     1       6.472   0.028  -0.806  1.00  0.00    -0.047 A 
ATOM      8  C   UNL     1       6.604  -0.982   0.118  1.00  0.00     0.004 A 
ATOM      9  C   UNL     1       5.852   1.206  -0.457  1.00  0.00     0.004 A 
ATOM     10  C   UNL     1       6.090  -0.760   1.398  1.00  0.00     0.000 A 
ATOM     11  C   UNL     1       5.344   1.423   0.808  1.00  0.00     0.000 A 
ATOM     12  C   UNL     1       5.471   0.416   1.740  1.00  0.00     0.000 A 
ENDBRANCH   6   7
ENDBRANCH   1   6
TORSDOF 4
ENDMDL
MODEL 2
REMARK VINA RESULT:      -7.3      0.164      1.733
REMARK SMILES O=C(O)CCc1ccccc1
REMARK SMILES IDX 4 1 2 2 1 3 3 4 5 6 6 7 7 8 11 9 8 10 10 11 9 12
REMARK H PARENT 3 5
REMARK Flexibility Score: inf
ROOT
ATOM      1  C   UNL     1       8.442  -0.680  -2.014  1.00  0.00     0.127 C 
ENDROOT
BRANCH   1   2
ATOM      2  C   UNL     1       8.387  -1.900  -2.854  1.00  0.00     0.303 C 
ATOM      3  O   UNL     1       7.290  -2.393  -3.215  1.00  0.00    -0.252 OA
BRANCH   2   4
ATOM      4  O   UNL     1       9.550  -2.531  -3.266  1.00  0.00    -0.481 OA
ATOM      5  H   UNL     1      10.454  -2.094  -3.068  1.00  0.00     0.296 HD
ENDBRANCH   2   4
ENDBRANCH   1   2
BRANCH   1   6
ATOM      6  C   UNL     1       7.094  -0.026  -2.045  1.00  0.00     0.047 C 
BRANCH   6   7
ATOM      7  C   UNL     1       6.486   0.147  -0.727  1.00  0.00    -0.047 A 
ATOM      8  C   UNL     1       5.800   1.297  -0.414  1.00  0.00     0.004 A 
ATOM      9  C   UNL     1       6.605  -0.859   0.204  1.00  0.00     0.004 A 
ATOM     10  C   UNL     1       5.244   1.393   0.863  1.00  0.00     0.000 A 
ATOM     11  C   UNL     1       6.054  -0.763   1.466  1.00  0.00     0.000 A 
ATOM     12  C   UNL     1       5.366   0.387   1.788  1.00  0.00     0.000 A 
ENDBRANCH   6   7
ENDBRANCH   1   6
TORSDOF 4
ENDMDL
MODEL 3
REMARK VINA RESULT:      -7.1      0.609      1.058
REMARK SMILES O=C(O)CCc1ccccc1
REMARK SMILES IDX 4 1 2 2 1 3 3 4 5 6 6 7 7 8 11 9 8 10 10 11 9 12
REMARK H PARENT 3 5
REMARK Flexibility Score: inf
ROOT
ATOM      1  C   UNL     1       8.164  -0.761  -2.070  1.00  0.00     0.127 C 
ENDROOT
BRANCH   1   2
ATOM      2  C   UNL     1       8.344  -1.969  -2.909  1.00  0.00     0.303 C 
ATOM      3  O   UNL     1       9.477  -2.486  -3.070  1.00  0.00    -0.252 OA
BRANCH   2   4
ATOM      4  O   UNL     1       7.263  -2.562  -3.542  1.00  0.00    -0.481 OA
ATOM      5  H   UNL     1       7.293  -3.564  -3.750  1.00  0.00     0.296 HD
ENDBRANCH   2   4
ENDBRANCH   1   2
BRANCH   1   6
ATOM      6  C   UNL     1       7.645  -1.191  -0.731  1.00  0.00     0.047 C 
BRANCH   6   7
ATOM      7  C   UNL     1       6.720  -0.239  -0.118  1.00  0.00    -0.047 A 
ATOM      8  C   UNL     1       6.261  -0.432   1.164  1.00  0.00     0.004 A 
ATOM      9  C   UNL     1       6.312   0.859  -0.839  1.00  0.00     0.004 A 
ATOM     10  C   UNL     1       5.380   0.519   1.686  1.00  0.00     0.000 A 
ATOM     11  C   UNL     1       5.441   1.797  -0.321  1.00  0.00     0.000 A 
ATOM     12  C   UNL     1       4.976   1.612   0.963  1.00  0.00     0.000 A 
ENDBRANCH   6   7
ENDBRANCH   1   6
TORSDOF 4
ENDMDL
MODEL 4
REMARK VINA RESULT:      -6.8      3.388      5.061
REMARK SMILES O=C(O)CCc1ccccc1
REMARK SMILES IDX 4 1 2 2 1 3 3 4 5 6 6 7 7 8 11 9 8 10 10 11 9 12
REMARK H PARENT 3 5
REMARK Flexibility Score: inf
ROOT
ATOM      1  C   UNL     1       5.017   1.806   0.731  1.00  0.00     0.127 C 
ENDROOT
BRANCH   1   2
ATOM      2  C   UNL     1       4.479   1.112   1.924  1.00  0.00     0.303 C 
ATOM      3  O   UNL     1       5.120   0.189   2.484  1.00  0.00    -0.252 OA
BRANCH   2   4
ATOM      4  O   UNL     1       3.249   1.464   2.455  1.00  0.00    -0.481 OA
ATOM      5  H   UNL     1       2.843   0.892   3.201  1.00  0.00     0.296 HD
ENDBRANCH   2   4
ENDBRANCH   1   2
BRANCH   1   6
ATOM      6  C   UNL     1       6.513   1.742   0.784  1.00  0.00     0.047 C 
BRANCH   6   7
ATOM      7  C   UNL     1       7.116   0.999  -0.322  1.00  0.00    -0.047 A 
ATOM      8  C   UNL     1       6.382   0.079  -1.034  1.00  0.00     0.004 A 
ATOM      9  C   UNL     1       8.432   1.231  -0.648  1.00  0.00     0.004 A 
ATOM     10  C   UNL     1       7.022  -0.593  -2.078  1.00  0.00     0.000 A 
ATOM     11  C   UNL     1       9.064   0.566  -1.680  1.00  0.00     0.000 A 
ATOM     12  C   UNL     1       8.336  -0.358  -2.398  1.00  0.00     0.000 A 
ENDBRANCH   6   7
ENDBRANCH   1   6
TORSDOF 4
ENDMDL
MODEL 5
REMARK VINA RESULT:      -6.7      3.836      4.994
REMARK SMILES O=C(O)CCc1ccccc1
REMARK SMILES IDX 4 1 2 2 1 3 3 4 5 6 6 7 7 8 11 9 8 10 10 11 9 12
REMARK H PARENT 3 5
REMARK Flexibility Score: inf
ROOT
ATOM      1  C   UNL     1       5.507   2.894  -0.034  1.00  0.00     0.127 C 
ENDROOT
BRANCH   1   2
ATOM      2  C   UNL     1       6.239   3.902   0.769  1.00  0.00     0.303 C 
ATOM      3  O   UNL     1       6.956   4.775   0.221  1.00  0.00    -0.252 OA
BRANCH   2   4
ATOM      4  O   UNL     1       6.151   3.908   2.152  1.00  0.00    -0.481 OA
ATOM      5  H   UNL     1       6.607   4.658   2.679  1.00  0.00     0.296 HD
ENDBRANCH   2   4
ENDBRANCH   1   2
BRANCH   1   6
ATOM      6  C   UNL     1       4.973   1.848   0.897  1.00  0.00     0.047 C 
BRANCH   6   7
ATOM      7  C   UNL     1       5.770   0.623   0.935  1.00  0.00    -0.047 A 
ATOM      8  C   UNL     1       6.546   0.255  -0.139  1.00  0.00     0.004 A 
ATOM      9  C   UNL     1       5.739  -0.164   2.063  1.00  0.00     0.004 A 
ATOM     10  C   UNL     1       7.282  -0.927  -0.033  1.00  0.00     0.000 A 
ATOM     11  C   UNL     1       6.467  -1.333   2.166  1.00  0.00     0.000 A 
ATOM     12  C   UNL     1       7.246  -1.708   1.094  1.00  0.00     0.000 A 
ENDBRANCH   6   7
ENDBRANCH   1   6
TORSDOF 4
ENDMDL
