@<TRIPOS>MOLECULE
/home/cewinharhar/GITHUB/reincatalyze/data/processed/docking_pred/2023-Apr-26-1657_maxeplen10_maxtrainstep1000_exh32_gamma099_lrac9e-4_lrcr1e-3/c054a7f490e8e5c171bc57af56a9ae5cb4d717f8_ligand_2.pdbqt
 12 12 0 0 0
SMALL
GASTEIGER

@<TRIPOS>ATOM
      1  C          8.2090    0.3000   -2.0440 C.3     1  UNL1        0.1270
      2  C          9.3980    0.3860   -1.1630 C.2     1  UNL1        0.3030
      3  O          9.5220   -0.3610   -0.1620 O.2     1  UNL1       -0.2520
      4  O         10.4090    1.2980   -1.4220 O.3     1  UNL1       -0.4810
      5  H         11.2950    0.9660   -1.8120 H       1  UNL1        0.2960
      6  C          7.1870   -0.5650   -1.3710 C.3     1  UNL1        0.0470
      7  C          6.3760    0.1360   -0.3770 C.2     1  UNL1       -0.0470
      8  C          5.8200    1.3620   -0.6610 C.2     1  UNL1        0.0040
      9  C          6.1700   -0.4460    0.8520 C.2     1  UNL1        0.0040
     10  C          5.0560    1.9730    0.3350 C.2     1  UNL1        0.0000
     11  C          5.4140    0.1600    1.8360 C.2     1  UNL1        0.0000
     12  C          4.8540    1.3890    1.5600 C.2     1  UNL1        0.0000
@<TRIPOS>BOND
     1     1     6    1
     2     1     2    1
     3     5     4    1
     4     4     2    1
     5     6     7    1
     6     2     3    2
     7     8     7    2
     8     8    10    1
     9     7     9    1
    10    10    12    2
    11     9    11    2
    12    12    11    1
