@<TRIPOS>MOLECULE
/home/cewinharhar/GITHUB/reincatalyze/data/processed/docking_pred/2023-Apr-26-1657_maxeplen10_maxtrainstep1000_exh32_gamma099_lrac9e-4_lrcr1e-3/c054a7f490e8e5c171bc57af56a9ae5cb4d717f8_ligand_2.pdbqt
 12 12 0 0 0
SMALL
GASTEIGER

@<TRIPOS>ATOM
      1  C          5.3840    2.9140    0.0650 C.3     1  UNL1        0.1270
      2  C          6.2100    3.8830    0.8220 C.2     1  UNL1        0.3030
      3  O          6.8750    4.7710    0.2330 O.2     1  UNL1       -0.2520
      4  O          6.2710    3.8370    2.2050 O.3     1  UNL1       -0.4810
      5  H          6.2840    2.9270    2.6760 H       1  UNL1        0.2960
      6  C          4.9130    1.8540    1.0140 C.3     1  UNL1        0.0470
      7  C          5.6950    0.6210    0.9640 C.2     1  UNL1       -0.0470
      8  C          5.8370   -0.1690    2.0810 C.2     1  UNL1        0.0040
      9  C          6.2920    0.2520   -0.2200 C.2     1  UNL1        0.0040
     10  C          6.5970   -1.3340    1.9600 C.2     1  UNL1        0.0000
     11  C          7.0440   -0.9000   -0.3380 C.2     1  UNL1        0.0000
     12  C          7.1910   -1.6960    0.7770 C.2     1  UNL1        0.0000
@<TRIPOS>BOND
     1    11     9    1
     2    11    12    2
     3     9     7    2
     4     1     2    1
     5     1     6    1
     6     3     2    2
     7    12    10    1
     8     2     4    1
     9     7     6    1
    10     7     8    1
    11    10     8    2
    12     4     5    1
