@<TRIPOS>MOLECULE
/home/cewinharhar/GITHUB/reincatalyze/data/processed/docking_pred/2023-Apr-26-1657_maxeplen10_maxtrainstep1000_exh32_gamma099_lrac9e-4_lrcr1e-3/c054a7f490e8e5c171bc57af56a9ae5cb4d717f8_ligand_2.pdbqt
 12 12 0 0 0
SMALL
GASTEIGER

@<TRIPOS>ATOM
      1  C          5.0450    1.7770    0.7040 C.3     1  UNL1        0.1270
      2  C          4.5030    1.1060    1.9090 C.2     1  UNL1        0.3030
      3  O          5.1420    0.1920    2.4870 O.2     1  UNL1       -0.2520
      4  O          3.2730    1.4700    2.4320 O.3     1  UNL1       -0.4810
      5  H          3.0350    2.4620    2.5080 H       1  UNL1        0.2960
      6  C          6.5410    1.7370    0.7740 C.3     1  UNL1        0.0470
      7  C          7.1680    1.0040   -0.3250 C.2     1  UNL1       -0.0470
      8  C          8.4800    1.2370   -0.6670 C.2     1  UNL1        0.0040
      9  C          6.4310    0.0720   -1.0170 C.2     1  UNL1        0.0040
     10  C          9.0140    0.5000   -1.7260 C.2     1  UNL1        0.0000
     11  C          6.9600   -0.6560   -2.0640 C.2     1  UNL1        0.0000
     12  C          8.2730   -0.4280   -2.4140 C.2     1  UNL1        0.0000
@<TRIPOS>BOND
     1    12    11    2
     2    12    10    1
     3    11     9    1
     4    10     8    2
     5     9     7    2
     6     8     7    1
     7     7     6    1
     8     1     6    1
     9     1     2    1
    10     2     4    1
    11     2     3    2
    12     4     5    1
