MODEL 1
REMARK VINA RESULT:      -7.4      0.000      0.000
REMARK SMILES O=C(O)CCc1ccccc1
REMARK SMILES IDX 4 1 2 2 1 3 3 4 5 6 6 7 7 8 11 9 8 10 10 11 9 12
REMARK H PARENT 3 5
REMARK Flexibility Score: inf
ROOT
ATOM      1  C   UNL     1       8.447  -0.638  -2.136  1.00  0.00     0.127 C 
ENDROOT
BRANCH   1   2
ATOM      2  C   UNL     1       8.485  -1.906  -2.901  1.00  0.00     0.303 C 
ATOM      3  O   UNL     1       9.566  -2.512  -3.104  1.00  0.00    -0.252 OA
BRANCH   2   4
ATOM      4  O   UNL     1       7.323  -2.459  -3.416  1.00  0.00    -0.481 OA
ATOM      5  H   UNL     1       6.419  -2.048  -3.167  1.00  0.00     0.296 HD
ENDBRANCH   2   4
ENDBRANCH   1   2
BRANCH   1   6
ATOM      6  C   UNL     1       7.033  -0.142  -2.114  1.00  0.00     0.047 C 
BRANCH   6   7
ATOM      7  C   UNL     1       6.483   0.029  -0.771  1.00  0.00    -0.047 A 
ATOM      8  C   UNL     1       6.602  -0.968   0.170  1.00  0.00     0.004 A 
ATOM      9  C   UNL     1       5.844   1.204  -0.452  1.00  0.00     0.004 A 
ATOM     10  C   UNL     1       6.054  -0.736   1.433  1.00  0.00     0.000 A 
ATOM     11  C   UNL     1       5.302   1.432   0.798  1.00  0.00     0.000 A 
ATOM     12  C   UNL     1       5.416   0.438   1.746  1.00  0.00     0.000 A 
ENDBRANCH   6   7
ENDBRANCH   1   6
TORSDOF 4
ENDMDL
MODEL 2
REMARK VINA RESULT:      -7.3      0.128      1.732
REMARK SMILES O=C(O)CCc1ccccc1
REMARK SMILES IDX 4 1 2 2 1 3 3 4 5 6 6 7 7 8 11 9 8 10 10 11 9 12
REMARK H PARENT 3 5
REMARK Flexibility Score: inf
ROOT
ATOM      1  C   UNL     1       8.402  -0.618  -2.118  1.00  0.00     0.127 C 
ENDROOT
BRANCH   1   2
ATOM      2  C   UNL     1       8.377  -1.882  -2.890  1.00  0.00     0.303 C 
ATOM      3  O   UNL     1       7.293  -2.411  -3.238  1.00  0.00    -0.252 OA
BRANCH   2   4
ATOM      4  O   UNL     1       9.555  -2.518  -3.251  1.00  0.00    -0.481 OA
ATOM      5  H   UNL     1       9.725  -3.476  -2.933  1.00  0.00     0.296 HD
ENDBRANCH   2   4
ENDBRANCH   1   2
BRANCH   1   6
ATOM      6  C   UNL     1       7.013  -0.058  -2.087  1.00  0.00     0.047 C 
BRANCH   6   7
ATOM      7  C   UNL     1       6.461   0.090  -0.742  1.00  0.00    -0.047 A 
ATOM      8  C   UNL     1       5.814   1.245  -0.369  1.00  0.00     0.004 A 
ATOM      9  C   UNL     1       6.592  -0.946   0.155  1.00  0.00     0.004 A 
ATOM     10  C   UNL     1       5.310   1.316   0.931  1.00  0.00     0.000 A 
ATOM     11  C   UNL     1       6.094  -0.874   1.441  1.00  0.00     0.000 A 
ATOM     12  C   UNL     1       5.446   0.281   1.822  1.00  0.00     0.000 A 
ENDBRANCH   6   7
ENDBRANCH   1   6
TORSDOF 4
ENDMDL
MODEL 3
REMARK VINA RESULT:      -6.8      3.373      5.084
REMARK SMILES O=C(O)CCc1ccccc1
REMARK SMILES IDX 4 1 2 2 1 3 3 4 5 6 6 7 7 8 11 9 8 10 10 11 9 12
REMARK H PARENT 3 5
REMARK Flexibility Score: inf
ROOT
ATOM      1  C   UNL     1       5.045   1.777   0.704  1.00  0.00     0.127 C 
ENDROOT
BRANCH   1   2
ATOM      2  C   UNL     1       4.503   1.106   1.909  1.00  0.00     0.303 C 
ATOM      3  O   UNL     1       5.142   0.192   2.487  1.00  0.00    -0.252 OA
BRANCH   2   4
ATOM      4  O   UNL     1       3.273   1.470   2.432  1.00  0.00    -0.481 OA
ATOM      5  H   UNL     1       3.035   2.462   2.508  1.00  0.00     0.296 HD
ENDBRANCH   2   4
ENDBRANCH   1   2
BRANCH   1   6
ATOM      6  C   UNL     1       6.541   1.737   0.774  1.00  0.00     0.047 C 
BRANCH   6   7
ATOM      7  C   UNL     1       7.168   1.004  -0.325  1.00  0.00    -0.047 A 
ATOM      8  C   UNL     1       8.480   1.237  -0.667  1.00  0.00     0.004 A 
ATOM      9  C   UNL     1       6.431   0.072  -1.017  1.00  0.00     0.004 A 
ATOM     10  C   UNL     1       9.014   0.500  -1.726  1.00  0.00     0.000 A 
ATOM     11  C   UNL     1       6.960  -0.656  -2.064  1.00  0.00     0.000 A 
ATOM     12  C   UNL     1       8.273  -0.428  -2.414  1.00  0.00     0.000 A 
ENDBRANCH   6   7
ENDBRANCH   1   6
TORSDOF 4
ENDMDL
MODEL 4
REMARK VINA RESULT:      -6.7      3.810      4.962
REMARK SMILES O=C(O)CCc1ccccc1
REMARK SMILES IDX 4 1 2 2 1 3 3 4 5 6 6 7 7 8 11 9 8 10 10 11 9 12
REMARK H PARENT 3 5
REMARK Flexibility Score: inf
ROOT
ATOM      1  C   UNL     1       5.384   2.914   0.065  1.00  0.00     0.127 C 
ENDROOT
BRANCH   1   2
ATOM      2  C   UNL     1       6.210   3.883   0.822  1.00  0.00     0.303 C 
ATOM      3  O   UNL     1       6.875   4.771   0.233  1.00  0.00    -0.252 OA
BRANCH   2   4
ATOM      4  O   UNL     1       6.271   3.837   2.205  1.00  0.00    -0.481 OA
ATOM      5  H   UNL     1       6.284   2.927   2.676  1.00  0.00     0.296 HD
ENDBRANCH   2   4
ENDBRANCH   1   2
BRANCH   1   6
ATOM      6  C   UNL     1       4.913   1.854   1.014  1.00  0.00     0.047 C 
BRANCH   6   7
ATOM      7  C   UNL     1       5.695   0.621   0.964  1.00  0.00    -0.047 A 
ATOM      8  C   UNL     1       5.837  -0.169   2.081  1.00  0.00     0.004 A 
ATOM      9  C   UNL     1       6.292   0.252  -0.220  1.00  0.00     0.004 A 
ATOM     10  C   UNL     1       6.597  -1.334   1.960  1.00  0.00     0.000 A 
ATOM     11  C   UNL     1       7.044  -0.900  -0.338  1.00  0.00     0.000 A 
ATOM     12  C   UNL     1       7.191  -1.696   0.777  1.00  0.00     0.000 A 
ENDBRANCH   6   7
ENDBRANCH   1   6
TORSDOF 4
ENDMDL
MODEL 5
REMARK VINA RESULT:      -6.6      1.971      2.640
REMARK SMILES O=C(O)CCc1ccccc1
REMARK SMILES IDX 4 1 2 2 1 3 3 4 5 6 6 7 7 8 11 9 8 10 10 11 9 12
REMARK H PARENT 3 5
REMARK Flexibility Score: inf
ROOT
ATOM      1  C   UNL     1       8.209   0.300  -2.044  1.00  0.00     0.127 C 
ENDROOT
BRANCH   1   2
ATOM      2  C   UNL     1       9.398   0.386  -1.163  1.00  0.00     0.303 C 
ATOM      3  O   UNL     1       9.522  -0.361  -0.162  1.00  0.00    -0.252 OA
BRANCH   2   4
ATOM      4  O   UNL     1      10.409   1.298  -1.422  1.00  0.00    -0.481 OA
ATOM      5  H   UNL     1      11.295   0.966  -1.812  1.00  0.00     0.296 HD
ENDBRANCH   2   4
ENDBRANCH   1   2
BRANCH   1   6
ATOM      6  C   UNL     1       7.187  -0.565  -1.371  1.00  0.00     0.047 C 
BRANCH   6   7
ATOM      7  C   UNL     1       6.376   0.136  -0.377  1.00  0.00    -0.047 A 
ATOM      8  C   UNL     1       5.820   1.362  -0.661  1.00  0.00     0.004 A 
ATOM      9  C   UNL     1       6.170  -0.446   0.852  1.00  0.00     0.004 A 
ATOM     10  C   UNL     1       5.056   1.973   0.335  1.00  0.00     0.000 A 
ATOM     11  C   UNL     1       5.414   0.160   1.836  1.00  0.00     0.000 A 
ATOM     12  C   UNL     1       4.854   1.389   1.560  1.00  0.00     0.000 A 
ENDBRANCH   6   7
ENDBRANCH   1   6
TORSDOF 4
ENDMDL
