@<TRIPOS>MOLECULE
/home/cewinharhar/GITHUB/reincatalyze/data/processed/docking_pred/2023-Apr-26-1657_maxeplen10_maxtrainstep1000_exh32_gamma099_lrac9e-4_lrcr1e-3/c054a7f490e8e5c171bc57af56a9ae5cb4d717f8_ligand_2.pdbqt
 12 12 0 0 0
SMALL
GASTEIGER

@<TRIPOS>ATOM
      1  C          8.4470   -0.6380   -2.1360 C.3     1  UNL1        0.1270
      2  C          8.4850   -1.9060   -2.9010 C.2     1  UNL1        0.3030
      3  O          9.5660   -2.5120   -3.1040 O.2     1  UNL1       -0.2520
      4  O          7.3230   -2.4590   -3.4160 O.3     1  UNL1       -0.4810
      5  H          6.4190   -2.0480   -3.1670 H       1  UNL1        0.2960
      6  C          7.0330   -0.1420   -2.1140 C.3     1  UNL1        0.0470
      7  C          6.4830    0.0290   -0.7710 C.2     1  UNL1       -0.0470
      8  C          6.6020   -0.9680    0.1700 C.2     1  UNL1        0.0040
      9  C          5.8440    1.2040   -0.4520 C.2     1  UNL1        0.0040
     10  C          6.0540   -0.7360    1.4330 C.2     1  UNL1        0.0000
     11  C          5.3020    1.4320    0.7980 C.2     1  UNL1        0.0000
     12  C          5.4160    0.4380    1.7460 C.2     1  UNL1        0.0000
@<TRIPOS>BOND
     1     4     5    1
     2     4     2    1
     3     3     2    2
     4     2     1    1
     5     1     6    1
     6     6     7    1
     7     7     9    2
     8     7     8    1
     9     9    11    1
    10     8    10    2
    11    11    12    2
    12    10    12    1
