@<TRIPOS>MOLECULE
/home/cewinharhar/GITHUB/reincatalyze/data/processed/docking_pred/2023-Apr-26-1657_maxeplen10_maxtrainstep1000_exh32_gamma099_lrac9e-4_lrcr1e-3/c2b16f598521213e119e3a09a49f7e8c9c89cc3b_ligand_2.pdbqt
 12 12 0 0 0
SMALL
GASTEIGER

@<TRIPOS>ATOM
      1  C          5.4730    2.8940    0.0190 C.3     1  UNL1        0.1270
      2  C          6.2740    3.8430    0.8280 C.2     1  UNL1        0.3030
      3  O          6.9200    4.7750    0.2880 O.2     1  UNL1       -0.2520
      4  O          6.3330    3.7260    2.2070 O.3     1  UNL1       -0.4810
      5  H          7.2460    3.6740    2.6670 H       1  UNL1        0.2960
      6  C          4.9490    1.8260    0.9290 C.3     1  UNL1        0.0470
      7  C          5.7320    0.5920    0.9110 C.2     1  UNL1       -0.0470
      8  C          6.3960    0.1970   -0.2270 C.2     1  UNL1        0.0040
      9  C          5.8030   -0.1760    2.0510 C.2     1  UNL1        0.0040
     10  C          7.1260   -0.9930   -0.1720 C.2     1  UNL1        0.0000
     11  C          6.5250   -1.3510    2.1040 C.2     1  UNL1        0.0000
     12  C          7.1920   -1.7550    0.9680 C.2     1  UNL1        0.0000
@<TRIPOS>BOND
     1     8    10    1
     2     8     7    2
     3    10    12    2
     4     1     2    1
     5     1     6    1
     6     3     2    2
     7     2     4    1
     8     7     6    1
     9     7     9    1
    10    12    11    1
    11     9    11    2
    12     4     5    1
