MODEL 1
REMARK VINA RESULT:      -7.4      0.000      0.000
REMARK SMILES O=C(O)CCc1ccccc1
REMARK SMILES IDX 4 1 2 2 1 3 3 4 5 6 6 7 7 8 11 9 8 10 10 11 9 12
REMARK H PARENT 3 5
REMARK Flexibility Score: inf
ROOT
ATOM      1  C   UNL     1       8.463  -0.668  -2.076  1.00  0.00     0.127 C 
ENDROOT
BRANCH   1   2
ATOM      2  C   UNL     1       8.486  -1.903  -2.894  1.00  0.00     0.303 C 
ATOM      3  O   UNL     1       9.560  -2.512  -3.123  1.00  0.00    -0.252 OA
BRANCH   2   4
ATOM      4  O   UNL     1       7.318  -2.421  -3.431  1.00  0.00    -0.481 OA
ATOM      5  H   UNL     1       6.540  -1.790  -3.639  1.00  0.00     0.296 HD
ENDBRANCH   2   4
ENDBRANCH   1   2
BRANCH   1   6
ATOM      6  C   UNL     1       7.070  -0.116  -2.095  1.00  0.00     0.047 C 
BRANCH   6   7
ATOM      7  C   UNL     1       6.488   0.077  -0.768  1.00  0.00    -0.047 A 
ATOM      8  C   UNL     1       6.604  -0.895   0.199  1.00  0.00     0.004 A 
ATOM      9  C   UNL     1       5.821   1.247  -0.491  1.00  0.00     0.004 A 
ATOM     10  C   UNL     1       6.025  -0.642   1.445  1.00  0.00     0.000 A 
ATOM     11  C   UNL     1       5.249   1.495   0.741  1.00  0.00     0.000 A 
ATOM     12  C   UNL     1       5.360   0.527   1.715  1.00  0.00     0.000 A 
ENDBRANCH   6   7
ENDBRANCH   1   6
TORSDOF 4
ENDMDL
MODEL 2
REMARK VINA RESULT:      -7.3      0.138      1.442
REMARK SMILES O=C(O)CCc1ccccc1
REMARK SMILES IDX 4 1 2 2 1 3 3 4 5 6 6 7 7 8 11 9 8 10 10 11 9 12
REMARK H PARENT 3 5
REMARK Flexibility Score: inf
ROOT
ATOM      1  C   UNL     1       8.425  -0.582  -2.186  1.00  0.00     0.127 C 
ENDROOT
BRANCH   1   2
ATOM      2  C   UNL     1       8.481  -1.872  -2.914  1.00  0.00     0.303 C 
ATOM      3  O   UNL     1       9.569  -2.472  -3.091  1.00  0.00    -0.252 OA
BRANCH   2   4
ATOM      4  O   UNL     1       7.329  -2.452  -3.420  1.00  0.00    -0.481 OA
ATOM      5  H   UNL     1       6.421  -2.030  -3.207  1.00  0.00     0.296 HD
ENDBRANCH   2   4
ENDBRANCH   1   2
BRANCH   1   6
ATOM      6  C   UNL     1       6.998  -0.124  -2.148  1.00  0.00     0.047 C 
BRANCH   6   7
ATOM      7  C   UNL     1       6.469   0.063  -0.799  1.00  0.00    -0.047 A 
ATOM      8  C   UNL     1       5.844   1.236  -0.445  1.00  0.00     0.004 A 
ATOM      9  C   UNL     1       6.601  -0.952   0.121  1.00  0.00     0.004 A 
ATOM     10  C   UNL     1       5.362   1.345   0.861  1.00  0.00     0.000 A 
ATOM     11  C   UNL     1       6.124  -0.842   1.412  1.00  0.00     0.000 A 
ATOM     12  C   UNL     1       5.497   0.330   1.775  1.00  0.00     0.000 A 
ENDBRANCH   6   7
ENDBRANCH   1   6
TORSDOF 4
ENDMDL
MODEL 3
REMARK VINA RESULT:      -6.8      3.371      5.066
REMARK SMILES O=C(O)CCc1ccccc1
REMARK SMILES IDX 4 1 2 2 1 3 3 4 5 6 6 7 7 8 11 9 8 10 10 11 9 12
REMARK H PARENT 3 5
REMARK Flexibility Score: inf
ROOT
ATOM      1  C   UNL     1       5.005   1.784   0.727  1.00  0.00     0.127 C 
ENDROOT
BRANCH   1   2
ATOM      2  C   UNL     1       4.474   1.099   1.929  1.00  0.00     0.303 C 
ATOM      3  O   UNL     1       5.117   0.178   2.491  1.00  0.00    -0.252 OA
BRANCH   2   4
ATOM      4  O   UNL     1       3.248   1.457   2.467  1.00  0.00    -0.481 OA
ATOM      5  H   UNL     1       2.691   0.751   2.956  1.00  0.00     0.296 HD
ENDBRANCH   2   4
ENDBRANCH   1   2
BRANCH   1   6
ATOM      6  C   UNL     1       6.502   1.733   0.779  1.00  0.00     0.047 C 
BRANCH   6   7
ATOM      7  C   UNL     1       7.109   0.978  -0.316  1.00  0.00    -0.047 A 
ATOM      8  C   UNL     1       6.389   0.022  -0.994  1.00  0.00     0.004 A 
ATOM      9  C   UNL     1       8.414   1.235  -0.666  1.00  0.00     0.004 A 
ATOM     10  C   UNL     1       7.032  -0.660  -2.030  1.00  0.00     0.000 A 
ATOM     11  C   UNL     1       9.048   0.560  -1.690  1.00  0.00     0.000 A 
ATOM     12  C   UNL     1       8.335  -0.400  -2.374  1.00  0.00     0.000 A 
ENDBRANCH   6   7
ENDBRANCH   1   6
TORSDOF 4
ENDMDL
MODEL 4
REMARK VINA RESULT:      -6.7      3.826      5.006
REMARK SMILES O=C(O)CCc1ccccc1
REMARK SMILES IDX 4 1 2 2 1 3 3 4 5 6 6 7 7 8 11 9 8 10 10 11 9 12
REMARK H PARENT 3 5
REMARK Flexibility Score: inf
ROOT
ATOM      1  C   UNL     1       5.473   2.894   0.019  1.00  0.00     0.127 C 
ENDROOT
BRANCH   1   2
ATOM      2  C   UNL     1       6.274   3.843   0.828  1.00  0.00     0.303 C 
ATOM      3  O   UNL     1       6.920   4.775   0.288  1.00  0.00    -0.252 OA
BRANCH   2   4
ATOM      4  O   UNL     1       6.333   3.726   2.207  1.00  0.00    -0.481 OA
ATOM      5  H   UNL     1       7.246   3.674   2.667  1.00  0.00     0.296 HD
ENDBRANCH   2   4
ENDBRANCH   1   2
BRANCH   1   6
ATOM      6  C   UNL     1       4.949   1.826   0.929  1.00  0.00     0.047 C 
BRANCH   6   7
ATOM      7  C   UNL     1       5.732   0.592   0.911  1.00  0.00    -0.047 A 
ATOM      8  C   UNL     1       6.396   0.197  -0.227  1.00  0.00     0.004 A 
ATOM      9  C   UNL     1       5.803  -0.176   2.051  1.00  0.00     0.004 A 
ATOM     10  C   UNL     1       7.126  -0.993  -0.172  1.00  0.00     0.000 A 
ATOM     11  C   UNL     1       6.525  -1.351   2.104  1.00  0.00     0.000 A 
ATOM     12  C   UNL     1       7.192  -1.755   0.968  1.00  0.00     0.000 A 
ENDBRANCH   6   7
ENDBRANCH   1   6
TORSDOF 4
ENDMDL
MODEL 5
REMARK VINA RESULT:      -6.7      1.942      2.281
REMARK SMILES O=C(O)CCc1ccccc1
REMARK SMILES IDX 4 1 2 2 1 3 3 4 5 6 6 7 7 8 11 9 8 10 10 11 9 12
REMARK H PARENT 3 5
REMARK Flexibility Score: inf
ROOT
ATOM      1  C   UNL     1       8.257   0.211  -2.149  1.00  0.00     0.127 C 
ENDROOT
BRANCH   1   2
ATOM      2  C   UNL     1       9.395   0.351  -1.210  1.00  0.00     0.303 C 
ATOM      3  O   UNL     1       9.492  -0.377  -0.191  1.00  0.00    -0.252 OA
BRANCH   2   4
ATOM      4  O   UNL     1      10.386   1.294  -1.431  1.00  0.00    -0.481 OA
ATOM      5  H   UNL     1      10.317   2.209  -0.979  1.00  0.00     0.296 HD
ENDBRANCH   2   4
ENDBRANCH   1   2
BRANCH   1   6
ATOM      6  C   UNL     1       7.175  -0.567  -1.464  1.00  0.00     0.047 C 
BRANCH   6   7
ATOM      7  C   UNL     1       6.374   0.223  -0.530  1.00  0.00    -0.047 A 
ATOM      8  C   UNL     1       6.146  -0.222   0.751  1.00  0.00     0.004 A 
ATOM      9  C   UNL     1       5.850   1.425  -0.946  1.00  0.00     0.004 A 
ATOM     10  C   UNL     1       5.373   0.585   1.589  1.00  0.00     0.000 A 
ATOM     11  C   UNL     1       5.085   2.221  -0.116  1.00  0.00     0.000 A 
ATOM     12  C   UNL     1       4.851   1.783   1.169  1.00  0.00     0.000 A 
ENDBRANCH   6   7
ENDBRANCH   1   6
TORSDOF 4
ENDMDL
