@<TRIPOS>MOLECULE
/home/cewinharhar/GITHUB/reincatalyze/data/processed/docking_pred/2023-Apr-26-1657_maxeplen10_maxtrainstep1000_exh32_gamma099_lrac9e-4_lrcr1e-3/c2b16f598521213e119e3a09a49f7e8c9c89cc3b_ligand_2.pdbqt
 12 12 0 0 0
SMALL
GASTEIGER

@<TRIPOS>ATOM
      1  C          8.2570    0.2110   -2.1490 C.3     1  UNL1        0.1270
      2  C          9.3950    0.3510   -1.2100 C.2     1  UNL1        0.3030
      3  O          9.4920   -0.3770   -0.1910 O.2     1  UNL1       -0.2520
      4  O         10.3860    1.2940   -1.4310 O.3     1  UNL1       -0.4810
      5  H         10.3170    2.2090   -0.9790 H       1  UNL1        0.2960
      6  C          7.1750   -0.5670   -1.4640 C.3     1  UNL1        0.0470
      7  C          6.3740    0.2230   -0.5300 C.2     1  UNL1       -0.0470
      8  C          6.1460   -0.2220    0.7510 C.2     1  UNL1        0.0040
      9  C          5.8500    1.4250   -0.9460 C.2     1  UNL1        0.0040
     10  C          5.3730    0.5850    1.5890 C.2     1  UNL1        0.0000
     11  C          5.0850    2.2210   -0.1160 C.2     1  UNL1        0.0000
     12  C          4.8510    1.7830    1.1690 C.2     1  UNL1        0.0000
@<TRIPOS>BOND
     1     1     6    1
     2     1     2    1
     3     6     7    1
     4     4     2    1
     5     4     5    1
     6     2     3    2
     7     9     7    2
     8     9    11    1
     9     7     8    1
    10    11    12    2
    11     8    10    2
    12    12    10    1
