@<TRIPOS>MOLECULE
/home/cewinharhar/GITHUB/reincatalyze/data/processed/docking_pred/2023-Apr-26-1657_maxeplen10_maxtrainstep1000_exh32_gamma099_lrac9e-4_lrcr1e-3/c2b16f598521213e119e3a09a49f7e8c9c89cc3b_ligand_2.pdbqt
 12 12 0 0 0
SMALL
GASTEIGER

@<TRIPOS>ATOM
      1  C          8.4250   -0.5820   -2.1860 C.3     1  UNL1        0.1270
      2  C          8.4810   -1.8720   -2.9140 C.2     1  UNL1        0.3030
      3  O          9.5690   -2.4720   -3.0910 O.2     1  UNL1       -0.2520
      4  O          7.3290   -2.4520   -3.4200 O.3     1  UNL1       -0.4810
      5  H          6.4210   -2.0300   -3.2070 H       1  UNL1        0.2960
      6  C          6.9980   -0.1240   -2.1480 C.3     1  UNL1        0.0470
      7  C          6.4690    0.0630   -0.7990 C.2     1  UNL1       -0.0470
      8  C          5.8440    1.2360   -0.4450 C.2     1  UNL1        0.0040
      9  C          6.6010   -0.9520    0.1210 C.2     1  UNL1        0.0040
     10  C          5.3620    1.3450    0.8610 C.2     1  UNL1        0.0000
     11  C          6.1240   -0.8420    1.4120 C.2     1  UNL1        0.0000
     12  C          5.4970    0.3300    1.7750 C.2     1  UNL1        0.0000
@<TRIPOS>BOND
     1     4     5    1
     2     4     2    1
     3     3     2    2
     4     2     1    1
     5     1     6    1
     6     6     7    1
     7     7     8    2
     8     7     9    1
     9     8    10    1
    10     9    11    2
    11    10    12    2
    12    11    12    1
