@<TRIPOS>MOLECULE
/home/cewinharhar/GITHUB/reincatalyze/data/processed/docking_pred/2023-Apr-26-1657_maxeplen10_maxtrainstep1000_exh32_gamma099_lrac9e-4_lrcr1e-3/c2b16f598521213e119e3a09a49f7e8c9c89cc3b_ligand_2.pdbqt
 12 12 0 0 0
SMALL
GASTEIGER

@<TRIPOS>ATOM
      1  C          8.4630   -0.6680   -2.0760 C.3     1  UNL1        0.1270
      2  C          8.4860   -1.9030   -2.8940 C.2     1  UNL1        0.3030
      3  O          9.5600   -2.5120   -3.1230 O.2     1  UNL1       -0.2520
      4  O          7.3180   -2.4210   -3.4310 O.3     1  UNL1       -0.4810
      5  H          6.5400   -1.7900   -3.6390 H       1  UNL1        0.2960
      6  C          7.0700   -0.1160   -2.0950 C.3     1  UNL1        0.0470
      7  C          6.4880    0.0770   -0.7680 C.2     1  UNL1       -0.0470
      8  C          6.6040   -0.8950    0.1990 C.2     1  UNL1        0.0040
      9  C          5.8210    1.2470   -0.4910 C.2     1  UNL1        0.0040
     10  C          6.0250   -0.6420    1.4450 C.2     1  UNL1        0.0000
     11  C          5.2490    1.4950    0.7410 C.2     1  UNL1        0.0000
     12  C          5.3600    0.5270    1.7150 C.2     1  UNL1        0.0000
@<TRIPOS>BOND
     1     5     4    1
     2     4     2    1
     3     3     2    2
     4     2     1    1
     5     6     1    1
     6     6     7    1
     7     7     9    2
     8     7     8    1
     9     9    11    1
    10     8    10    2
    11    11    12    2
    12    10    12    1
