MODEL 1
REMARK VINA RESULT:      -7.4      0.000      0.000
REMARK SMILES O=C(O)CCc1ccccc1
REMARK SMILES IDX 4 1 2 2 1 3 3 4 5 6 6 7 7 8 11 9 8 10 10 11 9 12
REMARK H PARENT 3 5
REMARK Flexibility Score: inf
ROOT
ATOM      1  C   UNL     1       8.462  -0.622  -2.157  1.00  0.00     0.127 C 
ENDROOT
BRANCH   1   2
ATOM      2  C   UNL     1       8.494  -1.899  -2.908  1.00  0.00     0.303 C 
ATOM      3  O   UNL     1       9.571  -2.517  -3.095  1.00  0.00    -0.252 OA
BRANCH   2   4
ATOM      4  O   UNL     1       7.332  -2.447  -3.427  1.00  0.00    -0.481 OA
ATOM      5  H   UNL     1       6.557  -2.668  -2.796  1.00  0.00     0.296 HD
ENDBRANCH   2   4
ENDBRANCH   1   2
BRANCH   1   6
ATOM      6  C   UNL     1       7.048  -0.127  -2.130  1.00  0.00     0.047 C 
BRANCH   6   7
ATOM      7  C   UNL     1       6.499   0.030  -0.784  1.00  0.00    -0.047 A 
ATOM      8  C   UNL     1       6.622  -0.976   0.147  1.00  0.00     0.004 A 
ATOM      9  C   UNL     1       5.856   1.200  -0.453  1.00  0.00     0.004 A 
ATOM     10  C   UNL     1       6.074  -0.757   1.413  1.00  0.00     0.000 A 
ATOM     11  C   UNL     1       5.315   1.414   0.799  1.00  0.00     0.000 A 
ATOM     12  C   UNL     1       5.433   0.412   1.737  1.00  0.00     0.000 A 
ENDBRANCH   6   7
ENDBRANCH   1   6
TORSDOF 4
ENDMDL
MODEL 2
REMARK VINA RESULT:      -7.3      0.091      1.439
REMARK SMILES O=C(O)CCc1ccccc1
REMARK SMILES IDX 4 1 2 2 1 3 3 4 5 6 6 7 7 8 11 9 8 10 10 11 9 12
REMARK H PARENT 3 5
REMARK Flexibility Score: inf
ROOT
ATOM      1  C   UNL     1       8.415  -0.604  -2.154  1.00  0.00     0.127 C 
ENDROOT
BRANCH   1   2
ATOM      2  C   UNL     1       8.459  -1.882  -2.903  1.00  0.00     0.303 C 
ATOM      3  O   UNL     1       9.541  -2.495  -3.080  1.00  0.00    -0.252 OA
BRANCH   2   4
ATOM      4  O   UNL     1       7.304  -2.436  -3.431  1.00  0.00    -0.481 OA
ATOM      5  H   UNL     1       7.081  -3.415  -3.231  1.00  0.00     0.296 HD
ENDBRANCH   2   4
ENDBRANCH   1   2
BRANCH   1   6
ATOM      6  C   UNL     1       6.993  -0.132  -2.113  1.00  0.00     0.047 C 
BRANCH   6   7
ATOM      7  C   UNL     1       6.464   0.041  -0.761  1.00  0.00    -0.047 A 
ATOM      8  C   UNL     1       5.849   1.215  -0.391  1.00  0.00     0.004 A 
ATOM      9  C   UNL     1       6.583  -0.989   0.144  1.00  0.00     0.004 A 
ATOM     10  C   UNL     1       5.366   1.310   0.916  1.00  0.00     0.000 A 
ATOM     11  C   UNL     1       6.105  -0.893   1.435  1.00  0.00     0.000 A 
ATOM     12  C   UNL     1       5.489   0.280   1.814  1.00  0.00     0.000 A 
ENDBRANCH   6   7
ENDBRANCH   1   6
TORSDOF 4
ENDMDL
MODEL 3
REMARK VINA RESULT:      -6.7      3.342      5.044
REMARK SMILES O=C(O)CCc1ccccc1
REMARK SMILES IDX 4 1 2 2 1 3 3 4 5 6 6 7 7 8 11 9 8 10 10 11 9 12
REMARK H PARENT 3 5
REMARK Flexibility Score: inf
ROOT
ATOM      1  C   UNL     1       5.050   1.718   0.680  1.00  0.00     0.127 C 
ENDROOT
BRANCH   1   2
ATOM      2  C   UNL     1       4.596   1.034   1.914  1.00  0.00     0.303 C 
ATOM      3  O   UNL     1       5.312   0.171   2.481  1.00  0.00    -0.252 OA
BRANCH   2   4
ATOM      4  O   UNL     1       3.365   1.328   2.477  1.00  0.00    -0.481 OA
ATOM      5  H   UNL     1       3.117   2.305   2.656  1.00  0.00     0.296 HD
ENDBRANCH   2   4
ENDBRANCH   1   2
BRANCH   1   6
ATOM      6  C   UNL     1       6.547   1.778   0.699  1.00  0.00     0.047 C 
BRANCH   6   7
ATOM      7  C   UNL     1       7.186   1.018  -0.374  1.00  0.00    -0.047 A 
ATOM      8  C   UNL     1       8.517   1.199  -0.668  1.00  0.00     0.004 A 
ATOM      9  C   UNL     1       6.440   0.111  -1.091  1.00  0.00     0.004 A 
ATOM     10  C   UNL     1       9.062   0.437  -1.704  1.00  0.00     0.000 A 
ATOM     11  C   UNL     1       6.979  -0.640  -2.116  1.00  0.00     0.000 A 
ATOM     12  C   UNL     1       8.313  -0.465  -2.417  1.00  0.00     0.000 A 
ENDBRANCH   6   7
ENDBRANCH   1   6
TORSDOF 4
ENDMDL
MODEL 4
REMARK VINA RESULT:      -6.7      3.800      5.009
REMARK SMILES O=C(O)CCc1ccccc1
REMARK SMILES IDX 4 1 2 2 1 3 3 4 5 6 6 7 7 8 11 9 8 10 10 11 9 12
REMARK H PARENT 3 5
REMARK Flexibility Score: inf
ROOT
ATOM      1  C   UNL     1       5.422   2.899  -0.038  1.00  0.00     0.127 C 
ENDROOT
BRANCH   1   2
ATOM      2  C   UNL     1       6.183   3.894   0.754  1.00  0.00     0.303 C 
ATOM      3  O   UNL     1       6.884   4.772   0.194  1.00  0.00    -0.252 OA
BRANCH   2   4
ATOM      4  O   UNL     1       6.140   3.882   2.139  1.00  0.00    -0.481 OA
ATOM      5  H   UNL     1       5.884   4.737   2.640  1.00  0.00     0.296 HD
ENDBRANCH   2   4
ENDBRANCH   1   2
BRANCH   1   6
ATOM      6  C   UNL     1       4.952   1.820   0.890  1.00  0.00     0.047 C 
BRANCH   6   7
ATOM      7  C   UNL     1       5.756   0.600   0.839  1.00  0.00    -0.047 A 
ATOM      8  C   UNL     1       6.454   0.264  -0.298  1.00  0.00     0.004 A 
ATOM      9  C   UNL     1       5.813  -0.213   1.947  1.00  0.00     0.004 A 
ATOM     10  C   UNL     1       7.202  -0.915  -0.275  1.00  0.00     0.000 A 
ATOM     11  C   UNL     1       6.553  -1.378   1.968  1.00  0.00     0.000 A 
ATOM     12  C   UNL     1       7.254  -1.723   0.833  1.00  0.00     0.000 A 
ENDBRANCH   6   7
ENDBRANCH   1   6
TORSDOF 4
ENDMDL
MODEL 5
REMARK VINA RESULT:      -6.7      1.944      2.313
REMARK SMILES O=C(O)CCc1ccccc1
REMARK SMILES IDX 4 1 2 2 1 3 3 4 5 6 6 7 7 8 11 9 8 10 10 11 9 12
REMARK H PARENT 3 5
REMARK Flexibility Score: inf
ROOT
ATOM      1  C   UNL     1       8.255   0.165  -2.161  1.00  0.00     0.127 C 
ENDROOT
BRANCH   1   2
ATOM      2  C   UNL     1       9.373   0.344  -1.205  1.00  0.00     0.303 C 
ATOM      3  O   UNL     1       9.486  -0.387  -0.190  1.00  0.00    -0.252 OA
BRANCH   2   4
ATOM      4  O   UNL     1      10.329   1.327  -1.406  1.00  0.00    -0.481 OA
ATOM      5  H   UNL     1      10.310   1.874  -2.271  1.00  0.00     0.296 HD
ENDBRANCH   2   4
ENDBRANCH   1   2
BRANCH   1   6
ATOM      6  C   UNL     1       7.159  -0.586  -1.467  1.00  0.00     0.047 C 
BRANCH   6   7
ATOM      7  C   UNL     1       6.369   0.230  -0.548  1.00  0.00    -0.047 A 
ATOM      8  C   UNL     1       6.136  -0.188   0.742  1.00  0.00     0.004 A 
ATOM      9  C   UNL     1       5.857   1.430  -0.986  1.00  0.00     0.004 A 
ATOM     10  C   UNL     1       5.373   0.643   1.565  1.00  0.00     0.000 A 
ATOM     11  C   UNL     1       5.102   2.250  -0.170  1.00  0.00     0.000 A 
ATOM     12  C   UNL     1       4.864   1.838   1.123  1.00  0.00     0.000 A 
ENDBRANCH   6   7
ENDBRANCH   1   6
TORSDOF 4
ENDMDL
