@<TRIPOS>MOLECULE
/home/cewinharhar/GITHUB/reincatalyze/data/processed/docking_pred/2023-Apr-26-1657_maxeplen10_maxtrainstep1000_exh32_gamma099_lrac9e-4_lrcr1e-3/c2bbe2b0b698b4c34a14c6b9d782c5d04fb4e97c_ligand_2.pdbqt
 12 12 0 0 0
SMALL
GASTEIGER

@<TRIPOS>ATOM
      1  C          8.4620   -0.6220   -2.1570 C.3     1  UNL1        0.1270
      2  C          8.4940   -1.8990   -2.9080 C.2     1  UNL1        0.3030
      3  O          9.5710   -2.5170   -3.0950 O.2     1  UNL1       -0.2520
      4  O          7.3320   -2.4470   -3.4270 O.3     1  UNL1       -0.4810
      5  H          6.5570   -2.6680   -2.7960 H       1  UNL1        0.2960
      6  C          7.0480   -0.1270   -2.1300 C.3     1  UNL1        0.0470
      7  C          6.4990    0.0300   -0.7840 C.2     1  UNL1       -0.0470
      8  C          6.6220   -0.9760    0.1470 C.2     1  UNL1        0.0040
      9  C          5.8560    1.2000   -0.4530 C.2     1  UNL1        0.0040
     10  C          6.0740   -0.7570    1.4130 C.2     1  UNL1        0.0000
     11  C          5.3150    1.4140    0.7990 C.2     1  UNL1        0.0000
     12  C          5.4330    0.4120    1.7370 C.2     1  UNL1        0.0000
@<TRIPOS>BOND
     1     4     2    1
     2     4     5    1
     3     3     2    2
     4     2     1    1
     5     1     6    1
     6     6     7    1
     7     7     9    2
     8     7     8    1
     9     9    11    1
    10     8    10    2
    11    11    12    2
    12    10    12    1
