@<TRIPOS>MOLECULE
/home/cewinharhar/GITHUB/reincatalyze/data/processed/docking_pred/2023-Apr-26-1657_maxeplen10_maxtrainstep1000_exh32_gamma099_lrac9e-4_lrcr1e-3/c2bbe2b0b698b4c34a14c6b9d782c5d04fb4e97c_ligand_2.pdbqt
 12 12 0 0 0
SMALL
GASTEIGER

@<TRIPOS>ATOM
      1  C          8.4150   -0.6040   -2.1540 C.3     1  UNL1        0.1270
      2  C          8.4590   -1.8820   -2.9030 C.2     1  UNL1        0.3030
      3  O          9.5410   -2.4950   -3.0800 O.2     1  UNL1       -0.2520
      4  O          7.3040   -2.4360   -3.4310 O.3     1  UNL1       -0.4810
      5  H          7.0810   -3.4150   -3.2310 H       1  UNL1        0.2960
      6  C          6.9930   -0.1320   -2.1130 C.3     1  UNL1        0.0470
      7  C          6.4640    0.0410   -0.7610 C.2     1  UNL1       -0.0470
      8  C          5.8490    1.2150   -0.3910 C.2     1  UNL1        0.0040
      9  C          6.5830   -0.9890    0.1440 C.2     1  UNL1        0.0040
     10  C          5.3660    1.3100    0.9160 C.2     1  UNL1        0.0000
     11  C          6.1050   -0.8930    1.4350 C.2     1  UNL1        0.0000
     12  C          5.4890    0.2800    1.8140 C.2     1  UNL1        0.0000
@<TRIPOS>BOND
     1     4     5    1
     2     4     2    1
     3     3     2    2
     4     2     1    1
     5     1     6    1
     6     6     7    1
     7     7     8    2
     8     7     9    1
     9     8    10    1
    10     9    11    2
    11    10    12    2
    12    11    12    1
