@<TRIPOS>MOLECULE
/home/cewinharhar/GITHUB/reincatalyze/data/processed/docking_pred/2023-Apr-26-1657_maxeplen10_maxtrainstep1000_exh32_gamma099_lrac9e-4_lrcr1e-3/c2bbe2b0b698b4c34a14c6b9d782c5d04fb4e97c_ligand_2.pdbqt
 12 12 0 0 0
SMALL
GASTEIGER

@<TRIPOS>ATOM
      1  C          5.4220    2.8990   -0.0380 C.3     1  UNL1        0.1270
      2  C          6.1830    3.8940    0.7540 C.2     1  UNL1        0.3030
      3  O          6.8840    4.7720    0.1940 O.2     1  UNL1       -0.2520
      4  O          6.1400    3.8820    2.1390 O.3     1  UNL1       -0.4810
      5  H          5.8840    4.7370    2.6400 H       1  UNL1        0.2960
      6  C          4.9520    1.8200    0.8900 C.3     1  UNL1        0.0470
      7  C          5.7560    0.6000    0.8390 C.2     1  UNL1       -0.0470
      8  C          6.4540    0.2640   -0.2980 C.2     1  UNL1        0.0040
      9  C          5.8130   -0.2130    1.9470 C.2     1  UNL1        0.0040
     10  C          7.2020   -0.9150   -0.2750 C.2     1  UNL1        0.0000
     11  C          6.5530   -1.3780    1.9680 C.2     1  UNL1        0.0000
     12  C          7.2540   -1.7230    0.8330 C.2     1  UNL1        0.0000
@<TRIPOS>BOND
     1     8    10    1
     2     8     7    2
     3    10    12    2
     4     1     2    1
     5     1     6    1
     6     3     2    2
     7     2     4    1
     8    12    11    1
     9     7     6    1
    10     7     9    1
    11     9    11    2
    12     4     5    1
