@<TRIPOS>MOLECULE
/home/cewinharhar/GITHUB/reincatalyze/data/processed/docking_pred/2023-Apr-26-1657_maxeplen10_maxtrainstep1000_exh32_gamma099_lrac9e-4_lrcr1e-3/c2bbe2b0b698b4c34a14c6b9d782c5d04fb4e97c_ligand_2.pdbqt
 12 12 0 0 0
SMALL
GASTEIGER

@<TRIPOS>ATOM
      1  C          8.2550    0.1650   -2.1610 C.3     1  UNL1        0.1270
      2  C          9.3730    0.3440   -1.2050 C.2     1  UNL1        0.3030
      3  O          9.4860   -0.3870   -0.1900 O.2     1  UNL1       -0.2520
      4  O         10.3290    1.3270   -1.4060 O.3     1  UNL1       -0.4810
      5  H         10.3100    1.8740   -2.2710 H       1  UNL1        0.2960
      6  C          7.1590   -0.5860   -1.4670 C.3     1  UNL1        0.0470
      7  C          6.3690    0.2300   -0.5480 C.2     1  UNL1       -0.0470
      8  C          6.1360   -0.1880    0.7420 C.2     1  UNL1        0.0040
      9  C          5.8570    1.4300   -0.9860 C.2     1  UNL1        0.0040
     10  C          5.3730    0.6430    1.5650 C.2     1  UNL1        0.0000
     11  C          5.1020    2.2500   -0.1700 C.2     1  UNL1        0.0000
     12  C          4.8640    1.8380    1.1230 C.2     1  UNL1        0.0000
@<TRIPOS>BOND
     1     5     4    1
     2     1     6    1
     3     1     2    1
     4     6     7    1
     5     4     2    1
     6     2     3    2
     7     9     7    2
     8     9    11    1
     9     7     8    1
    10    11    12    2
    11     8    10    2
    12    12    10    1
