@<TRIPOS>MOLECULE
/home/cewinharhar/GITHUB/reincatalyze/data/processed/docking_pred/2023-Apr-26-1657_maxeplen10_maxtrainstep1000_exh32_gamma099_lrac9e-4_lrcr1e-3/c2bbe2b0b698b4c34a14c6b9d782c5d04fb4e97c_ligand_2.pdbqt
 12 12 0 0 0
SMALL
GASTEIGER

@<TRIPOS>ATOM
      1  C          5.0500    1.7180    0.6800 C.3     1  UNL1        0.1270
      2  C          4.5960    1.0340    1.9140 C.2     1  UNL1        0.3030
      3  O          5.3120    0.1710    2.4810 O.2     1  UNL1       -0.2520
      4  O          3.3650    1.3280    2.4770 O.3     1  UNL1       -0.4810
      5  H          3.1170    2.3050    2.6560 H       1  UNL1        0.2960
      6  C          6.5470    1.7780    0.6990 C.3     1  UNL1        0.0470
      7  C          7.1860    1.0180   -0.3740 C.2     1  UNL1       -0.0470
      8  C          8.5170    1.1990   -0.6680 C.2     1  UNL1        0.0040
      9  C          6.4400    0.1110   -1.0910 C.2     1  UNL1        0.0040
     10  C          9.0620    0.4370   -1.7040 C.2     1  UNL1        0.0000
     11  C          6.9790   -0.6400   -2.1160 C.2     1  UNL1        0.0000
     12  C          8.3130   -0.4650   -2.4170 C.2     1  UNL1        0.0000
@<TRIPOS>BOND
     1    12    11    2
     2    12    10    1
     3    11     9    1
     4    10     8    2
     5     9     7    2
     6     8     7    1
     7     7     6    1
     8     1     6    1
     9     1     2    1
    10     2     4    1
    11     2     3    2
    12     4     5    1
