@<TRIPOS>MOLECULE
/home/cewinharhar/GITHUB/reincatalyze/data/processed/docking_pred/2023-Apr-26-1657_maxeplen10_maxtrainstep1000_exh32_gamma099_lrac9e-4_lrcr1e-3/c41b095924a444a7b197c2c75a7a2c7ef1aa4cd1_ligand_2.pdbqt
 12 12 0 0 0
SMALL
GASTEIGER

@<TRIPOS>ATOM
      1  C          8.4580   -0.5980   -2.1760 C.3     1  UNL1        0.1270
      2  C          8.4920   -1.8840   -2.9100 C.2     1  UNL1        0.3030
      3  O          9.5700   -2.5040   -3.0870 O.2     1  UNL1       -0.2520
      4  O          7.3320   -2.4400   -3.4230 O.3     1  UNL1       -0.4810
      5  H          6.4310   -2.0010   -3.2140 H       1  UNL1        0.2960
      6  C          7.0420   -0.1080   -2.1490 C.3     1  UNL1        0.0470
      7  C          6.4970    0.0620   -0.8030 C.2     1  UNL1       -0.0470
      8  C          5.8600    1.2270   -0.4450 C.2     1  UNL1        0.0040
      9  C          6.6270   -0.9600    0.1080 C.2     1  UNL1        0.0040
     10  C          5.3630    1.3200    0.8570 C.2     1  UNL1        0.0000
     11  C          6.1350   -0.8660    1.3950 C.2     1  UNL1        0.0000
     12  C          5.4960    0.2980    1.7620 C.2     1  UNL1        0.0000
@<TRIPOS>BOND
     1     4     5    1
     2     4     2    1
     3     3     2    2
     4     2     1    1
     5     1     6    1
     6     6     7    1
     7     7     8    2
     8     7     9    1
     9     8    10    1
    10     9    11    2
    11    10    12    2
    12    11    12    1
