@<TRIPOS>MOLECULE
/home/cewinharhar/GITHUB/reincatalyze/data/processed/docking_pred/2023-Apr-26-1657_maxeplen10_maxtrainstep1000_exh32_gamma099_lrac9e-4_lrcr1e-3/c41b095924a444a7b197c2c75a7a2c7ef1aa4cd1_ligand_2.pdbqt
 12 12 0 0 0
SMALL
GASTEIGER

@<TRIPOS>ATOM
      1  C          8.4580   -0.6050   -2.1660 C.3     1  UNL1        0.1270
      2  C          8.4770   -1.8950   -2.8940 C.2     1  UNL1        0.3030
      3  O          9.5480   -2.5270   -3.0720 O.2     1  UNL1       -0.2520
      4  O          7.3080   -2.4420   -3.3990 O.3     1  UNL1       -0.4810
      5  H          6.8120   -3.1540   -2.8550 H       1  UNL1        0.2960
      6  C          7.0460   -0.1040   -2.1300 C.3     1  UNL1        0.0470
      7  C          6.4990    0.0370   -0.7820 C.2     1  UNL1       -0.0470
      8  C          6.6190   -0.9810    0.1360 C.2     1  UNL1        0.0040
      9  C          5.8610    1.2050   -0.4360 C.2     1  UNL1        0.0040
     10  C          6.0740   -0.7760    1.4050 C.2     1  UNL1        0.0000
     11  C          5.3220    1.4050    0.8200 C.2     1  UNL1        0.0000
     12  C          5.4370    0.3910    1.7450 C.2     1  UNL1        0.0000
@<TRIPOS>BOND
     1     4     2    1
     2     4     5    1
     3     3     2    2
     4     2     1    1
     5     1     6    1
     6     6     7    1
     7     7     9    2
     8     7     8    1
     9     9    11    1
    10     8    10    2
    11    11    12    2
    12    10    12    1
