@<TRIPOS>MOLECULE
/home/cewinharhar/GITHUB/reincatalyze/data/processed/docking_pred/2023-Apr-26-1657_maxeplen10_maxtrainstep1000_exh32_gamma099_lrac9e-4_lrcr1e-3/c41b095924a444a7b197c2c75a7a2c7ef1aa4cd1_ligand_2.pdbqt
 12 12 0 0 0
SMALL
GASTEIGER

@<TRIPOS>ATOM
      1  C          5.4660    2.8460    0.0240 C.3     1  UNL1        0.1270
      2  C          6.2560    3.8220    0.8120 C.2     1  UNL1        0.3030
      3  O          6.8550    4.7750    0.2560 O.2     1  UNL1       -0.2520
      4  O          6.3550    3.7080    2.1900 O.3     1  UNL1       -0.4810
      5  H          7.2800    3.7030    2.6270 H       1  UNL1        0.2960
      6  C          4.9500    1.7940    0.9580 C.3     1  UNL1        0.0470
      7  C          5.7430    0.5660    0.9660 C.2     1  UNL1       -0.0470
      8  C          5.7970   -0.2300    2.0870 C.2     1  UNL1        0.0040
      9  C          6.4370    0.2080   -0.1670 C.2     1  UNL1        0.0040
     10  C          6.5730   -1.3890    2.0220 C.2     1  UNL1        0.0000
     11  C          7.2040   -0.9390   -0.2290 C.2     1  UNL1        0.0000
     12  C          7.2640   -1.7410    0.8900 C.2     1  UNL1        0.0000
@<TRIPOS>BOND
     1    11     9    1
     2    11    12    2
     3     9     7    2
     4     1     2    1
     5     1     6    1
     6     3     2    2
     7     2     4    1
     8    12    10    1
     9     6     7    1
    10     7     8    1
    11    10     8    2
    12     4     5    1
