@<TRIPOS>MOLECULE
/home/cewinharhar/GITHUB/reincatalyze/data/processed/docking_pred/2023-Apr-26-1657_maxeplen10_maxtrainstep1000_exh32_gamma099_lrac9e-4_lrcr1e-3/c41b095924a444a7b197c2c75a7a2c7ef1aa4cd1_ligand_2.pdbqt
 12 12 0 0 0
SMALL
GASTEIGER

@<TRIPOS>ATOM
      1  C          5.0490    1.7390    0.6700 C.3     1  UNL1        0.1270
      2  C          4.6030    1.0510    1.9050 C.2     1  UNL1        0.3030
      3  O          5.3310    0.1990    2.4730 O.2     1  UNL1       -0.2520
      4  O          3.3680    1.3290    2.4660 O.3     1  UNL1       -0.4810
      5  H          2.5970    1.6260    1.8610 H       1  UNL1        0.2960
      6  C          6.5450    1.8060    0.6820 C.3     1  UNL1        0.0470
      7  C          7.1830    1.0370   -0.3850 C.2     1  UNL1       -0.0470
      8  C          8.5170    1.2080   -0.6740 C.2     1  UNL1        0.0040
      9  C          6.4340    0.1330   -1.1010 C.2     1  UNL1        0.0040
     10  C          9.0610    0.4390   -1.7050 C.2     1  UNL1        0.0000
     11  C          6.9720   -0.6260   -2.1210 C.2     1  UNL1        0.0000
     12  C          8.3080   -0.4600   -2.4180 C.2     1  UNL1        0.0000
@<TRIPOS>BOND
     1    12    11    2
     2    12    10    1
     3    11     9    1
     4    10     8    2
     5     9     7    2
     6     8     7    1
     7     7     6    1
     8     1     6    1
     9     1     2    1
    10     5     4    1
    11     2     4    1
    12     2     3    2
