MODEL 1
REMARK VINA RESULT:      -7.4      0.000      0.000
REMARK SMILES O=C(O)CCc1ccccc1
REMARK SMILES IDX 4 1 2 2 1 3 3 4 5 6 6 7 7 8 11 9 8 10 10 11 9 12
REMARK H PARENT 3 5
REMARK Flexibility Score: inf
ROOT
ATOM      1  C   UNL     1       8.458  -0.605  -2.166  1.00  0.00     0.127 C 
ENDROOT
BRANCH   1   2
ATOM      2  C   UNL     1       8.477  -1.895  -2.894  1.00  0.00     0.303 C 
ATOM      3  O   UNL     1       9.548  -2.527  -3.072  1.00  0.00    -0.252 OA
BRANCH   2   4
ATOM      4  O   UNL     1       7.308  -2.442  -3.399  1.00  0.00    -0.481 OA
ATOM      5  H   UNL     1       6.812  -3.154  -2.855  1.00  0.00     0.296 HD
ENDBRANCH   2   4
ENDBRANCH   1   2
BRANCH   1   6
ATOM      6  C   UNL     1       7.046  -0.104  -2.130  1.00  0.00     0.047 C 
BRANCH   6   7
ATOM      7  C   UNL     1       6.499   0.037  -0.782  1.00  0.00    -0.047 A 
ATOM      8  C   UNL     1       6.619  -0.981   0.136  1.00  0.00     0.004 A 
ATOM      9  C   UNL     1       5.861   1.205  -0.436  1.00  0.00     0.004 A 
ATOM     10  C   UNL     1       6.074  -0.776   1.405  1.00  0.00     0.000 A 
ATOM     11  C   UNL     1       5.322   1.405   0.820  1.00  0.00     0.000 A 
ATOM     12  C   UNL     1       5.437   0.391   1.745  1.00  0.00     0.000 A 
ENDBRANCH   6   7
ENDBRANCH   1   6
TORSDOF 4
ENDMDL
MODEL 2
REMARK VINA RESULT:      -7.3      0.061      1.438
REMARK SMILES O=C(O)CCc1ccccc1
REMARK SMILES IDX 4 1 2 2 1 3 3 4 5 6 6 7 7 8 11 9 8 10 10 11 9 12
REMARK H PARENT 3 5
REMARK Flexibility Score: inf
ROOT
ATOM      1  C   UNL     1       8.458  -0.598  -2.176  1.00  0.00     0.127 C 
ENDROOT
BRANCH   1   2
ATOM      2  C   UNL     1       8.492  -1.884  -2.910  1.00  0.00     0.303 C 
ATOM      3  O   UNL     1       9.570  -2.504  -3.087  1.00  0.00    -0.252 OA
BRANCH   2   4
ATOM      4  O   UNL     1       7.332  -2.440  -3.423  1.00  0.00    -0.481 OA
ATOM      5  H   UNL     1       6.431  -2.001  -3.214  1.00  0.00     0.296 HD
ENDBRANCH   2   4
ENDBRANCH   1   2
BRANCH   1   6
ATOM      6  C   UNL     1       7.042  -0.108  -2.149  1.00  0.00     0.047 C 
BRANCH   6   7
ATOM      7  C   UNL     1       6.497   0.062  -0.803  1.00  0.00    -0.047 A 
ATOM      8  C   UNL     1       5.860   1.227  -0.445  1.00  0.00     0.004 A 
ATOM      9  C   UNL     1       6.627  -0.960   0.108  1.00  0.00     0.004 A 
ATOM     10  C   UNL     1       5.363   1.320   0.857  1.00  0.00     0.000 A 
ATOM     11  C   UNL     1       6.135  -0.866   1.395  1.00  0.00     0.000 A 
ATOM     12  C   UNL     1       5.496   0.298   1.762  1.00  0.00     0.000 A 
ENDBRANCH   6   7
ENDBRANCH   1   6
TORSDOF 4
ENDMDL
MODEL 3
REMARK VINA RESULT:      -7.1      0.618      1.459
REMARK SMILES O=C(O)CCc1ccccc1
REMARK SMILES IDX 4 1 2 2 1 3 3 4 5 6 6 7 7 8 11 9 8 10 10 11 9 12
REMARK H PARENT 3 5
REMARK Flexibility Score: inf
ROOT
ATOM      1  C   UNL     1       8.208  -0.795  -1.968  1.00  0.00     0.127 C 
ENDROOT
BRANCH   1   2
ATOM      2  C   UNL     1       8.288  -1.948  -2.895  1.00  0.00     0.303 C 
ATOM      3  O   UNL     1       7.252  -2.457  -3.391  1.00  0.00    -0.252 OA
BRANCH   2   4
ATOM      4  O   UNL     1       9.511  -2.499  -3.240  1.00  0.00    -0.481 OA
ATOM      5  H   UNL     1       9.588  -3.051  -4.099  1.00  0.00     0.296 HD
ENDBRANCH   2   4
ENDBRANCH   1   2
BRANCH   1   6
ATOM      6  C   UNL     1       7.529  -1.248  -0.711  1.00  0.00     0.047 C 
BRANCH   6   7
ATOM      7  C   UNL     1       6.637  -0.248  -0.124  1.00  0.00    -0.047 A 
ATOM      8  C   UNL     1       6.181  -0.384   1.166  1.00  0.00     0.004 A 
ATOM      9  C   UNL     1       6.258   0.838  -0.878  1.00  0.00     0.004 A 
ATOM     10  C   UNL     1       5.333   0.609   1.662  1.00  0.00     0.000 A 
ATOM     11  C   UNL     1       5.420   1.819  -0.386  1.00  0.00     0.000 A 
ATOM     12  C   UNL     1       4.957   1.690   0.905  1.00  0.00     0.000 A 
ENDBRANCH   6   7
ENDBRANCH   1   6
TORSDOF 4
ENDMDL
MODEL 4
REMARK VINA RESULT:      -6.7      3.328      5.030
REMARK SMILES O=C(O)CCc1ccccc1
REMARK SMILES IDX 4 1 2 2 1 3 3 4 5 6 6 7 7 8 11 9 8 10 10 11 9 12
REMARK H PARENT 3 5
REMARK Flexibility Score: inf
ROOT
ATOM      1  C   UNL     1       5.049   1.739   0.670  1.00  0.00     0.127 C 
ENDROOT
BRANCH   1   2
ATOM      2  C   UNL     1       4.603   1.051   1.905  1.00  0.00     0.303 C 
ATOM      3  O   UNL     1       5.331   0.199   2.473  1.00  0.00    -0.252 OA
BRANCH   2   4
ATOM      4  O   UNL     1       3.368   1.329   2.466  1.00  0.00    -0.481 OA
ATOM      5  H   UNL     1       2.597   1.626   1.861  1.00  0.00     0.296 HD
ENDBRANCH   2   4
ENDBRANCH   1   2
BRANCH   1   6
ATOM      6  C   UNL     1       6.545   1.806   0.682  1.00  0.00     0.047 C 
BRANCH   6   7
ATOM      7  C   UNL     1       7.183   1.037  -0.385  1.00  0.00    -0.047 A 
ATOM      8  C   UNL     1       8.517   1.208  -0.674  1.00  0.00     0.004 A 
ATOM      9  C   UNL     1       6.434   0.133  -1.101  1.00  0.00     0.004 A 
ATOM     10  C   UNL     1       9.061   0.439  -1.705  1.00  0.00     0.000 A 
ATOM     11  C   UNL     1       6.972  -0.626  -2.121  1.00  0.00     0.000 A 
ATOM     12  C   UNL     1       8.308  -0.460  -2.418  1.00  0.00     0.000 A 
ENDBRANCH   6   7
ENDBRANCH   1   6
TORSDOF 4
ENDMDL
MODEL 5
REMARK VINA RESULT:      -6.7      3.823      4.920
REMARK SMILES O=C(O)CCc1ccccc1
REMARK SMILES IDX 4 1 2 2 1 3 3 4 5 6 6 7 7 8 11 9 8 10 10 11 9 12
REMARK H PARENT 3 5
REMARK Flexibility Score: inf
ROOT
ATOM      1  C   UNL     1       5.466   2.846   0.024  1.00  0.00     0.127 C 
ENDROOT
BRANCH   1   2
ATOM      2  C   UNL     1       6.256   3.822   0.812  1.00  0.00     0.303 C 
ATOM      3  O   UNL     1       6.855   4.775   0.256  1.00  0.00    -0.252 OA
BRANCH   2   4
ATOM      4  O   UNL     1       6.355   3.708   2.190  1.00  0.00    -0.481 OA
ATOM      5  H   UNL     1       7.280   3.703   2.627  1.00  0.00     0.296 HD
ENDBRANCH   2   4
ENDBRANCH   1   2
BRANCH   1   6
ATOM      6  C   UNL     1       4.950   1.794   0.958  1.00  0.00     0.047 C 
BRANCH   6   7
ATOM      7  C   UNL     1       5.743   0.566   0.966  1.00  0.00    -0.047 A 
ATOM      8  C   UNL     1       5.797  -0.230   2.087  1.00  0.00     0.004 A 
ATOM      9  C   UNL     1       6.437   0.208  -0.167  1.00  0.00     0.004 A 
ATOM     10  C   UNL     1       6.573  -1.389   2.022  1.00  0.00     0.000 A 
ATOM     11  C   UNL     1       7.204  -0.939  -0.229  1.00  0.00     0.000 A 
ATOM     12  C   UNL     1       7.264  -1.741   0.890  1.00  0.00     0.000 A 
ENDBRANCH   6   7
ENDBRANCH   1   6
TORSDOF 4
ENDMDL
