@<TRIPOS>MOLECULE
/home/cewinharhar/GITHUB/reincatalyze/data/processed/docking_pred/2023-Apr-26-1657_maxeplen10_maxtrainstep1000_exh32_gamma099_lrac9e-4_lrcr1e-3/c41b095924a444a7b197c2c75a7a2c7ef1aa4cd1_ligand_2.pdbqt
 12 12 0 0 0
SMALL
GASTEIGER

@<TRIPOS>ATOM
      1  C          8.2080   -0.7950   -1.9680 C.3     1  UNL1        0.1270
      2  C          8.2880   -1.9480   -2.8950 C.2     1  UNL1        0.3030
      3  O          7.2520   -2.4570   -3.3910 O.2     1  UNL1       -0.2520
      4  O          9.5110   -2.4990   -3.2400 O.3     1  UNL1       -0.4810
      5  H          9.5880   -3.0510   -4.0990 H       1  UNL1        0.2960
      6  C          7.5290   -1.2480   -0.7110 C.3     1  UNL1        0.0470
      7  C          6.6370   -0.2480   -0.1240 C.2     1  UNL1       -0.0470
      8  C          6.1810   -0.3840    1.1660 C.2     1  UNL1        0.0040
      9  C          6.2580    0.8380   -0.8780 C.2     1  UNL1        0.0040
     10  C          5.3330    0.6090    1.6620 C.2     1  UNL1        0.0000
     11  C          5.4200    1.8190   -0.3860 C.2     1  UNL1        0.0000
     12  C          4.9570    1.6900    0.9050 C.2     1  UNL1        0.0000
@<TRIPOS>BOND
     1     5     4    1
     2     3     2    2
     3     4     2    1
     4     2     1    1
     5     1     6    1
     6     9    11    1
     7     9     7    2
     8     6     7    1
     9    11    12    2
    10     7     8    1
    11    12    10    1
    12     8    10    2
