@<TRIPOS>MOLECULE
/home/cewinharhar/GITHUB/reincatalyze/data/processed/docking_pred/2023-Apr-26-1657_maxeplen10_maxtrainstep1000_exh32_gamma099_lrac9e-4_lrcr1e-3/c584487daa348165e33ca71579c90fd99cb4babd_ligand_2.pdbqt
 12 12 0 0 0
SMALL
GASTEIGER

@<TRIPOS>ATOM
      1  C          8.4330   -0.6280   -2.1330 C.3     1  UNL1        0.1270
      2  C          8.3910   -1.8970   -2.8970 C.2     1  UNL1        0.3030
      3  O          7.3000   -2.4140   -3.2420 O.2     1  UNL1       -0.2520
      4  O          9.5600   -2.5510   -3.2510 O.3     1  UNL1       -0.4810
      5  H         10.0720   -2.2470   -4.0830 H       1  UNL1        0.2960
      6  C          7.0500   -0.0510   -2.1040 C.3     1  UNL1        0.0470
      7  C          6.4890    0.0820   -0.7610 C.2     1  UNL1       -0.0470
      8  C          6.6180   -0.9340    0.1580 C.2     1  UNL1        0.0040
      9  C          5.8290    1.2390   -0.4200 C.2     1  UNL1        0.0040
     10  C          6.0580   -0.7380    1.4230 C.2     1  UNL1        0.0000
     11  C          5.2760    1.4310    0.8300 C.2     1  UNL1        0.0000
     12  C          5.3990    0.4180    1.7570 C.2     1  UNL1        0.0000
@<TRIPOS>BOND
     1     5     4    1
     2     4     2    1
     3     3     2    2
     4     2     1    1
     5     1     6    1
     6     6     7    1
     7     7     9    2
     8     7     8    1
     9     9    11    1
    10     8    10    2
    11    11    12    2
    12    10    12    1
