MODEL 1
REMARK VINA RESULT:      -7.3      0.000      0.000
REMARK SMILES O=C(O)CCc1ccccc1
REMARK SMILES IDX 4 1 2 2 1 3 3 4 5 6 6 7 7 8 11 9 8 10 10 11 9 12
REMARK H PARENT 3 5
REMARK Flexibility Score: inf
ROOT
ATOM      1  C   UNL     1       8.442  -0.602  -2.168  1.00  0.00     0.127 C 
ENDROOT
BRANCH   1   2
ATOM      2  C   UNL     1       8.486  -1.886  -2.907  1.00  0.00     0.303 C 
ATOM      3  O   UNL     1       9.569  -2.495  -3.088  1.00  0.00    -0.252 OA
BRANCH   2   4
ATOM      4  O   UNL     1       7.329  -2.451  -3.419  1.00  0.00    -0.481 OA
ATOM      5  H   UNL     1       7.357  -3.407  -3.784  1.00  0.00     0.296 HD
ENDBRANCH   2   4
ENDBRANCH   1   2
BRANCH   1   6
ATOM      6  C   UNL     1       7.022  -0.123  -2.141  1.00  0.00     0.047 C 
BRANCH   6   7
ATOM      7  C   UNL     1       6.481   0.055  -0.794  1.00  0.00    -0.047 A 
ATOM      8  C   UNL     1       5.843   1.221  -0.441  1.00  0.00     0.004 A 
ATOM      9  C   UNL     1       6.615  -0.962   0.123  1.00  0.00     0.004 A 
ATOM     10  C   UNL     1       5.350   1.321   0.862  1.00  0.00     0.000 A 
ATOM     11  C   UNL     1       6.127  -0.861   1.410  1.00  0.00     0.000 A 
ATOM     12  C   UNL     1       5.487   0.304   1.772  1.00  0.00     0.000 A 
ENDBRANCH   6   7
ENDBRANCH   1   6
TORSDOF 4
ENDMDL
MODEL 2
REMARK VINA RESULT:      -7.2      0.115      1.731
REMARK SMILES O=C(O)CCc1ccccc1
REMARK SMILES IDX 4 1 2 2 1 3 3 4 5 6 6 7 7 8 11 9 8 10 10 11 9 12
REMARK H PARENT 3 5
REMARK Flexibility Score: inf
ROOT
ATOM      1  C   UNL     1       8.433  -0.628  -2.133  1.00  0.00     0.127 C 
ENDROOT
BRANCH   1   2
ATOM      2  C   UNL     1       8.391  -1.897  -2.897  1.00  0.00     0.303 C 
ATOM      3  O   UNL     1       7.300  -2.414  -3.242  1.00  0.00    -0.252 OA
BRANCH   2   4
ATOM      4  O   UNL     1       9.560  -2.551  -3.251  1.00  0.00    -0.481 OA
ATOM      5  H   UNL     1      10.072  -2.247  -4.083  1.00  0.00     0.296 HD
ENDBRANCH   2   4
ENDBRANCH   1   2
BRANCH   1   6
ATOM      6  C   UNL     1       7.050  -0.051  -2.104  1.00  0.00     0.047 C 
BRANCH   6   7
ATOM      7  C   UNL     1       6.489   0.082  -0.761  1.00  0.00    -0.047 A 
ATOM      8  C   UNL     1       6.618  -0.934   0.158  1.00  0.00     0.004 A 
ATOM      9  C   UNL     1       5.829   1.239  -0.420  1.00  0.00     0.004 A 
ATOM     10  C   UNL     1       6.058  -0.738   1.423  1.00  0.00     0.000 A 
ATOM     11  C   UNL     1       5.276   1.431   0.830  1.00  0.00     0.000 A 
ATOM     12  C   UNL     1       5.399   0.418   1.757  1.00  0.00     0.000 A 
ENDBRANCH   6   7
ENDBRANCH   1   6
TORSDOF 4
ENDMDL
MODEL 3
REMARK VINA RESULT:      -7.2      0.618      1.613
REMARK SMILES O=C(O)CCc1ccccc1
REMARK SMILES IDX 4 1 2 2 1 3 3 4 5 6 6 7 7 8 11 9 8 10 10 11 9 12
REMARK H PARENT 3 5
REMARK Flexibility Score: inf
ROOT
ATOM      1  C   UNL     1       8.223  -0.865  -1.925  1.00  0.00     0.127 C 
ENDROOT
BRANCH   1   2
ATOM      2  C   UNL     1       8.379  -2.001  -2.864  1.00  0.00     0.303 C 
ATOM      3  O   UNL     1       9.506  -2.507  -3.091  1.00  0.00    -0.252 OA
BRANCH   2   4
ATOM      4  O   UNL     1       7.283  -2.537  -3.519  1.00  0.00    -0.481 OA
ATOM      5  H   UNL     1       7.288  -3.527  -3.778  1.00  0.00     0.296 HD
ENDBRANCH   2   4
ENDBRANCH   1   2
BRANCH   1   6
ATOM      6  C   UNL     1       7.478  -1.351  -0.719  1.00  0.00     0.047 C 
BRANCH   6   7
ATOM      7  C   UNL     1       6.618  -0.341  -0.105  1.00  0.00    -0.047 A 
ATOM      8  C   UNL     1       6.163  -0.495   1.184  1.00  0.00     0.004 A 
ATOM      9  C   UNL     1       6.268   0.774  -0.831  1.00  0.00     0.004 A 
ATOM     10  C   UNL     1       5.346   0.510   1.707  1.00  0.00     0.000 A 
ATOM     11  C   UNL     1       5.460   1.766  -0.312  1.00  0.00     0.000 A 
ATOM     12  C   UNL     1       4.999   1.620   0.978  1.00  0.00     0.000 A 
ENDBRANCH   6   7
ENDBRANCH   1   6
TORSDOF 4
ENDMDL
MODEL 4
REMARK VINA RESULT:      -6.8      3.384      5.083
REMARK SMILES O=C(O)CCc1ccccc1
REMARK SMILES IDX 4 1 2 2 1 3 3 4 5 6 6 7 7 8 11 9 8 10 10 11 9 12
REMARK H PARENT 3 5
REMARK Flexibility Score: inf
ROOT
ATOM      1  C   UNL     1       4.993   1.791   0.703  1.00  0.00     0.127 C 
ENDROOT
BRANCH   1   2
ATOM      2  C   UNL     1       4.476   1.112   1.915  1.00  0.00     0.303 C 
ATOM      3  O   UNL     1       5.131   0.203   2.482  1.00  0.00    -0.252 OA
BRANCH   2   4
ATOM      4  O   UNL     1       3.250   1.464   2.457  1.00  0.00    -0.481 OA
ATOM      5  H   UNL     1       2.927   0.998   3.309  1.00  0.00     0.296 HD
ENDBRANCH   2   4
ENDBRANCH   1   2
BRANCH   1   6
ATOM      6  C   UNL     1       6.490   1.770   0.755  1.00  0.00     0.047 C 
BRANCH   6   7
ATOM      7  C   UNL     1       7.112   1.016  -0.332  1.00  0.00    -0.047 A 
ATOM      8  C   UNL     1       6.386   0.101  -1.058  1.00  0.00     0.004 A 
ATOM      9  C   UNL     1       8.439   1.232  -0.626  1.00  0.00     0.004 A 
ATOM     10  C   UNL     1       7.045  -0.583  -2.083  1.00  0.00     0.000 A 
ATOM     11  C   UNL     1       9.088   0.555  -1.639  1.00  0.00     0.000 A 
ATOM     12  C   UNL     1       8.368  -0.364  -2.371  1.00  0.00     0.000 A 
ENDBRANCH   6   7
ENDBRANCH   1   6
TORSDOF 4
ENDMDL
MODEL 5
REMARK VINA RESULT:      -6.7      3.824      4.918
REMARK SMILES O=C(O)CCc1ccccc1
REMARK SMILES IDX 4 1 2 2 1 3 3 4 5 6 6 7 7 8 11 9 8 10 10 11 9 12
REMARK H PARENT 3 5
REMARK Flexibility Score: inf
ROOT
ATOM      1  C   UNL     1       5.408   2.900  -0.018  1.00  0.00     0.127 C 
ENDROOT
BRANCH   1   2
ATOM      2  C   UNL     1       6.203   3.868   0.774  1.00  0.00     0.303 C 
ATOM      3  O   UNL     1       6.869   4.775   0.215  1.00  0.00    -0.252 OA
BRANCH   2   4
ATOM      4  O   UNL     1       6.233   3.799   2.157  1.00  0.00    -0.481 OA
ATOM      5  H   UNL     1       5.526   4.302   2.700  1.00  0.00     0.296 HD
ENDBRANCH   2   4
ENDBRANCH   1   2
BRANCH   1   6
ATOM      6  C   UNL     1       4.900   1.838   0.909  1.00  0.00     0.047 C 
BRANCH   6   7
ATOM      7  C   UNL     1       5.701   0.616   0.909  1.00  0.00    -0.047 A 
ATOM      8  C   UNL     1       6.379   0.219  -0.221  1.00  0.00     0.004 A 
ATOM      9  C   UNL     1       5.774  -0.139   2.056  1.00  0.00     0.004 A 
ATOM     10  C   UNL     1       7.125  -0.959  -0.149  1.00  0.00     0.000 A 
ATOM     11  C   UNL     1       6.513  -1.304   2.126  1.00  0.00     0.000 A 
ATOM     12  C   UNL     1       7.194  -1.709   0.998  1.00  0.00     0.000 A 
ENDBRANCH   6   7
ENDBRANCH   1   6
TORSDOF 4
ENDMDL
