@<TRIPOS>MOLECULE
/home/cewinharhar/GITHUB/reincatalyze/data/processed/docking_pred/2023-Apr-26-1657_maxeplen10_maxtrainstep1000_exh32_gamma099_lrac9e-4_lrcr1e-3/c584487daa348165e33ca71579c90fd99cb4babd_ligand_2.pdbqt
 12 12 0 0 0
SMALL
GASTEIGER

@<TRIPOS>ATOM
      1  C          4.9930    1.7910    0.7030 C.3     1  UNL1        0.1270
      2  C          4.4760    1.1120    1.9150 C.2     1  UNL1        0.3030
      3  O          5.1310    0.2030    2.4820 O.2     1  UNL1       -0.2520
      4  O          3.2500    1.4640    2.4570 O.3     1  UNL1       -0.4810
      5  H          2.9270    0.9980    3.3090 H       1  UNL1        0.2960
      6  C          6.4900    1.7700    0.7550 C.3     1  UNL1        0.0470
      7  C          7.1120    1.0160   -0.3320 C.2     1  UNL1       -0.0470
      8  C          6.3860    0.1010   -1.0580 C.2     1  UNL1        0.0040
      9  C          8.4390    1.2320   -0.6260 C.2     1  UNL1        0.0040
     10  C          7.0450   -0.5830   -2.0830 C.2     1  UNL1        0.0000
     11  C          9.0880    0.5550   -1.6390 C.2     1  UNL1        0.0000
     12  C          8.3680   -0.3640   -2.3710 C.2     1  UNL1        0.0000
@<TRIPOS>BOND
     1    12    10    2
     2    12    11    1
     3    10     8    1
     4    11     9    2
     5     8     7    2
     6     9     7    1
     7     7     6    1
     8     1     6    1
     9     1     2    1
    10     2     4    1
    11     2     3    2
    12     4     5    1
