@<TRIPOS>MOLECULE
/home/cewinharhar/GITHUB/reincatalyze/data/processed/docking_pred/2023-Apr-26-1657_maxeplen10_maxtrainstep1000_exh32_gamma099_lrac9e-4_lrcr1e-3/c584487daa348165e33ca71579c90fd99cb4babd_ligand_2.pdbqt
 12 12 0 0 0
SMALL
GASTEIGER

@<TRIPOS>ATOM
      1  C          5.4080    2.9000   -0.0180 C.3     1  UNL1        0.1270
      2  C          6.2030    3.8680    0.7740 C.2     1  UNL1        0.3030
      3  O          6.8690    4.7750    0.2150 O.2     1  UNL1       -0.2520
      4  O          6.2330    3.7990    2.1570 O.3     1  UNL1       -0.4810
      5  H          5.5260    4.3020    2.7000 H       1  UNL1        0.2960
      6  C          4.9000    1.8380    0.9090 C.3     1  UNL1        0.0470
      7  C          5.7010    0.6160    0.9090 C.2     1  UNL1       -0.0470
      8  C          6.3790    0.2190   -0.2210 C.2     1  UNL1        0.0040
      9  C          5.7740   -0.1390    2.0560 C.2     1  UNL1        0.0040
     10  C          7.1250   -0.9590   -0.1490 C.2     1  UNL1        0.0000
     11  C          6.5130   -1.3040    2.1260 C.2     1  UNL1        0.0000
     12  C          7.1940   -1.7090    0.9980 C.2     1  UNL1        0.0000
@<TRIPOS>BOND
     1     8    10    1
     2     8     7    2
     3    10    12    2
     4     1     2    1
     5     1     6    1
     6     3     2    2
     7     2     4    1
     8     6     7    1
     9     7     9    1
    10    12    11    1
    11     9    11    2
    12     4     5    1
