@<TRIPOS>MOLECULE
/home/cewinharhar/GITHUB/reincatalyze/data/processed/docking_pred/2023-Apr-26-1657_maxeplen10_maxtrainstep1000_exh32_gamma099_lrac9e-4_lrcr1e-3/c584487daa348165e33ca71579c90fd99cb4babd_ligand_2.pdbqt
 12 12 0 0 0
SMALL
GASTEIGER

@<TRIPOS>ATOM
      1  C          8.2230   -0.8650   -1.9250 C.3     1  UNL1        0.1270
      2  C          8.3790   -2.0010   -2.8640 C.2     1  UNL1        0.3030
      3  O          9.5060   -2.5070   -3.0910 O.2     1  UNL1       -0.2520
      4  O          7.2830   -2.5370   -3.5190 O.3     1  UNL1       -0.4810
      5  H          7.2880   -3.5270   -3.7780 H       1  UNL1        0.2960
      6  C          7.4780   -1.3510   -0.7190 C.3     1  UNL1        0.0470
      7  C          6.6180   -0.3410   -0.1050 C.2     1  UNL1       -0.0470
      8  C          6.1630   -0.4950    1.1840 C.2     1  UNL1        0.0040
      9  C          6.2680    0.7740   -0.8310 C.2     1  UNL1        0.0040
     10  C          5.3460    0.5100    1.7070 C.2     1  UNL1        0.0000
     11  C          5.4600    1.7660   -0.3120 C.2     1  UNL1        0.0000
     12  C          4.9990    1.6200    0.9780 C.2     1  UNL1        0.0000
@<TRIPOS>BOND
     1     5     4    1
     2     4     2    1
     3     3     2    2
     4     2     1    1
     5     1     6    1
     6     9    11    1
     7     9     7    2
     8     6     7    1
     9    11    12    2
    10     7     8    1
    11    12    10    1
    12     8    10    2
