@<TRIPOS>MOLECULE
/home/cewinharhar/GITHUB/reincatalyze/data/processed/docking_pred/2023-Apr-26-1657_maxeplen10_maxtrainstep1000_exh32_gamma099_lrac9e-4_lrcr1e-3/c584487daa348165e33ca71579c90fd99cb4babd_ligand_2.pdbqt
 12 12 0 0 0
SMALL
GASTEIGER

@<TRIPOS>ATOM
      1  C          8.4420   -0.6020   -2.1680 C.3     1  UNL1        0.1270
      2  C          8.4860   -1.8860   -2.9070 C.2     1  UNL1        0.3030
      3  O          9.5690   -2.4950   -3.0880 O.2     1  UNL1       -0.2520
      4  O          7.3290   -2.4510   -3.4190 O.3     1  UNL1       -0.4810
      5  H          7.3570   -3.4070   -3.7840 H       1  UNL1        0.2960
      6  C          7.0220   -0.1230   -2.1410 C.3     1  UNL1        0.0470
      7  C          6.4810    0.0550   -0.7940 C.2     1  UNL1       -0.0470
      8  C          5.8430    1.2210   -0.4410 C.2     1  UNL1        0.0040
      9  C          6.6150   -0.9620    0.1230 C.2     1  UNL1        0.0040
     10  C          5.3500    1.3210    0.8620 C.2     1  UNL1        0.0000
     11  C          6.1270   -0.8610    1.4100 C.2     1  UNL1        0.0000
     12  C          5.4870    0.3040    1.7720 C.2     1  UNL1        0.0000
@<TRIPOS>BOND
     1     5     4    1
     2     4     2    1
     3     3     2    2
     4     2     1    1
     5     1     6    1
     6     6     7    1
     7     7     8    2
     8     7     9    1
     9     8    10    1
    10     9    11    2
    11    10    12    2
    12    11    12    1
