@<TRIPOS>MOLECULE
/home/cewinharhar/GITHUB/reincatalyze/data/processed/docking_pred/2023-Apr-26-1657_maxeplen10_maxtrainstep1000_exh32_gamma099_lrac9e-4_lrcr1e-3/c5f7f675b3df69e676e62d17e40489667b0e6a6f_ligand_2.pdbqt
 12 12 0 0 0
SMALL
GASTEIGER

@<TRIPOS>ATOM
      1  C          8.1680    0.2830   -2.0620 C.3     1  UNL1        0.1270
      2  C          9.3590    0.3670   -1.1850 C.2     1  UNL1        0.3030
      3  O          9.4860   -0.3840   -0.1870 O.2     1  UNL1       -0.2520
      4  O         10.3690    1.2790   -1.4450 O.3     1  UNL1       -0.4810
      5  H         11.3250    0.9420   -1.5850 H       1  UNL1        0.2960
      6  C          7.1470   -0.5830   -1.3890 C.3     1  UNL1        0.0470
      7  C          6.3550    0.1120   -0.3750 C.2     1  UNL1       -0.0470
      8  C          5.8090    1.3480   -0.6330 C.2     1  UNL1        0.0040
      9  C          6.1570   -0.4870    0.8480 C.2     1  UNL1        0.0040
     10  C          5.0630    1.9520    0.3820 C.2     1  UNL1        0.0000
     11  C          5.4190    0.1120    1.8500 C.2     1  UNL1        0.0000
     12  C          4.8700    1.3500    1.6000 C.2     1  UNL1        0.0000
@<TRIPOS>BOND
     1     1     6    1
     2     1     2    1
     3     5     4    1
     4     4     2    1
     5     6     7    1
     6     2     3    2
     7     8     7    2
     8     8    10    1
     9     7     9    1
    10    10    12    2
    11     9    11    2
    12    12    11    1
