@<TRIPOS>MOLECULE
/home/cewinharhar/GITHUB/reincatalyze/data/processed/docking_pred/2023-Apr-26-1657_maxeplen10_maxtrainstep1000_exh32_gamma099_lrac9e-4_lrcr1e-3/c5f7f675b3df69e676e62d17e40489667b0e6a6f_ligand_2.pdbqt
 12 12 0 0 0
SMALL
GASTEIGER

@<TRIPOS>ATOM
      1  C          5.4420    2.9130    0.0000 C.3     1  UNL1        0.1270
      2  C          6.2540    3.8450    0.8170 C.2     1  UNL1        0.3030
      3  O          7.2660    4.4160    0.3390 O.2     1  UNL1       -0.2520
      4  O          5.9190    4.1130    2.1340 O.3     1  UNL1       -0.4810
      5  H          6.0950    3.4030    2.8500 H       1  UNL1        0.2960
      6  C          4.9000    1.8470    0.9030 C.3     1  UNL1        0.0470
      7  C          5.6940    0.6190    0.9160 C.2     1  UNL1       -0.0470
      8  C          6.3440    0.1900   -0.2170 C.2     1  UNL1        0.0040
      9  C          5.7870   -0.1080    2.0810 C.2     1  UNL1        0.0040
     10  C          7.0850   -0.9910   -0.1320 C.2     1  UNL1        0.0000
     11  C          6.5190   -1.2750    2.1630 C.2     1  UNL1        0.0000
     12  C          7.1740   -1.7120    1.0320 C.2     1  UNL1        0.0000
@<TRIPOS>BOND
     1     8    10    1
     2     8     7    2
     3    10    12    2
     4     1     2    1
     5     1     6    1
     6     3     2    2
     7     2     4    1
     8     6     7    1
     9     7     9    1
    10    12    11    1
    11     9    11    2
    12     4     5    1
