@<TRIPOS>MOLECULE
/home/cewinharhar/GITHUB/reincatalyze/data/processed/docking_pred/2023-Apr-26-1657_maxeplen10_maxtrainstep1000_exh32_gamma099_lrac9e-4_lrcr1e-3/c5f7f675b3df69e676e62d17e40489667b0e6a6f_ligand_2.pdbqt
 12 12 0 0 0
SMALL
GASTEIGER

@<TRIPOS>ATOM
      1  C          8.4380   -0.6340   -2.1140 C.3     1  UNL1        0.1270
      2  C          8.4740   -1.8980   -2.8870 C.2     1  UNL1        0.3030
      3  O          9.5520   -2.5100   -3.0850 O.2     1  UNL1       -0.2520
      4  O          7.3130   -2.4390   -3.4160 O.3     1  UNL1       -0.4810
      5  H          7.3540   -3.3460   -3.8890 H       1  UNL1        0.2960
      6  C          7.0290   -0.1250   -2.1080 C.3     1  UNL1        0.0470
      7  C          6.4720    0.0680   -0.7700 C.2     1  UNL1       -0.0470
      8  C          5.8300    1.2390   -0.4380 C.2     1  UNL1        0.0040
      9  C          6.5940   -0.9380    0.1600 C.2     1  UNL1        0.0040
     10  C          5.3220    1.3540    0.8580 C.2     1  UNL1        0.0000
     11  C          6.0910   -0.8220    1.4410 C.2     1  UNL1        0.0000
     12  C          5.4480    0.3480    1.7820 C.2     1  UNL1        0.0000
@<TRIPOS>BOND
     1     5     4    1
     2     4     2    1
     3     3     2    2
     4     2     1    1
     5     1     6    1
     6     6     7    1
     7     7     8    2
     8     7     9    1
     9     8    10    1
    10     9    11    2
    11    10    12    2
    12    11    12    1
