@<TRIPOS>MOLECULE
/home/cewinharhar/GITHUB/reincatalyze/data/processed/docking_pred/2023-Apr-26-1657_maxeplen10_maxtrainstep1000_exh32_gamma099_lrac9e-4_lrcr1e-3/c5f7f675b3df69e676e62d17e40489667b0e6a6f_ligand_2.pdbqt
 12 12 0 0 0
SMALL
GASTEIGER

@<TRIPOS>ATOM
      1  C          8.4080   -0.5370   -2.2390 C.3     1  UNL1        0.1270
      2  C          8.4760   -1.8490   -2.9250 C.2     1  UNL1        0.3030
      3  O          9.5700   -2.4420   -3.0890 O.2     1  UNL1       -0.2520
      4  O          7.3280   -2.4580   -3.4060 O.3     1  UNL1       -0.4810
      5  H          6.4230   -2.2220   -2.9890 H       1  UNL1        0.2960
      6  C          6.9730   -0.1120   -2.1760 C.3     1  UNL1        0.0470
      7  C          6.4610    0.0540   -0.8170 C.2     1  UNL1       -0.0470
      8  C          6.5960   -0.9510    0.1130 C.2     1  UNL1        0.0040
      9  C          5.8400    1.2330   -0.4730 C.2     1  UNL1        0.0040
     10  C          6.0840   -0.7230    1.3920 C.2     1  UNL1        0.0000
     11  C          5.3350    1.4560    0.7930 C.2     1  UNL1        0.0000
     12  C          5.4650    0.4540    1.7300 C.2     1  UNL1        0.0000
@<TRIPOS>BOND
     1     4     5    1
     2     4     2    1
     3     3     2    2
     4     2     1    1
     5     1     6    1
     6     6     7    1
     7     7     9    2
     8     7     8    1
     9     9    11    1
    10     8    10    2
    11    11    12    2
    12    10    12    1
