@<TRIPOS>MOLECULE
/home/cewinharhar/GITHUB/reincatalyze/data/processed/docking_pred/2023-Apr-26-1657_maxeplen10_maxtrainstep1000_exh32_gamma099_lrac9e-4_lrcr1e-3/c5f7f675b3df69e676e62d17e40489667b0e6a6f_ligand_2.pdbqt
 12 12 0 0 0
SMALL
GASTEIGER

@<TRIPOS>ATOM
      1  C          5.0450    1.6610    0.6830 C.3     1  UNL1        0.1270
      2  C          4.5950    1.0020    1.9310 C.2     1  UNL1        0.3030
      3  O          5.3110    0.1490    2.5120 O.2     1  UNL1       -0.2520
      4  O          3.3660    1.3090    2.4930 O.3     1  UNL1       -0.4810
      5  H          3.0430    2.2800    2.4900 H       1  UNL1        0.2960
      6  C          6.5410    1.7370    0.7030 C.3     1  UNL1        0.0470
      7  C          7.1890    0.9900   -0.3730 C.2     1  UNL1       -0.0470
      8  C          8.5160    1.1970   -0.6730 C.2     1  UNL1        0.0040
      9  C          6.4570    0.0690   -1.0870 C.2     1  UNL1        0.0040
     10  C          9.0700    0.4470   -1.7140 C.2     1  UNL1        0.0000
     11  C          7.0060   -0.6710   -2.1150 C.2     1  UNL1        0.0000
     12  C          8.3340   -0.4690   -2.4230 C.2     1  UNL1        0.0000
@<TRIPOS>BOND
     1    12    11    2
     2    12    10    1
     3    11     9    1
     4    10     8    2
     5     9     7    2
     6     8     7    1
     7     7     6    1
     8     1     6    1
     9     1     2    1
    10     2     4    1
    11     2     3    2
    12     5     4    1
