MODEL 1
REMARK VINA RESULT:      -7.3      0.000      0.000
REMARK SMILES O=C(O)CCc1ccccc1
REMARK SMILES IDX 4 1 2 2 1 3 3 4 5 6 6 7 7 8 11 9 8 10 10 11 9 12
REMARK H PARENT 3 5
REMARK Flexibility Score: inf
ROOT
ATOM      1  C   UNL     1       8.438  -0.634  -2.114  1.00  0.00     0.127 C 
ENDROOT
BRANCH   1   2
ATOM      2  C   UNL     1       8.474  -1.898  -2.887  1.00  0.00     0.303 C 
ATOM      3  O   UNL     1       9.552  -2.510  -3.085  1.00  0.00    -0.252 OA
BRANCH   2   4
ATOM      4  O   UNL     1       7.313  -2.439  -3.416  1.00  0.00    -0.481 OA
ATOM      5  H   UNL     1       7.354  -3.346  -3.889  1.00  0.00     0.296 HD
ENDBRANCH   2   4
ENDBRANCH   1   2
BRANCH   1   6
ATOM      6  C   UNL     1       7.029  -0.125  -2.108  1.00  0.00     0.047 C 
BRANCH   6   7
ATOM      7  C   UNL     1       6.472   0.068  -0.770  1.00  0.00    -0.047 A 
ATOM      8  C   UNL     1       5.830   1.239  -0.438  1.00  0.00     0.004 A 
ATOM      9  C   UNL     1       6.594  -0.938   0.160  1.00  0.00     0.004 A 
ATOM     10  C   UNL     1       5.322   1.354   0.858  1.00  0.00     0.000 A 
ATOM     11  C   UNL     1       6.091  -0.822   1.441  1.00  0.00     0.000 A 
ATOM     12  C   UNL     1       5.448   0.348   1.782  1.00  0.00     0.000 A 
ENDBRANCH   6   7
ENDBRANCH   1   6
TORSDOF 4
ENDMDL
MODEL 2
REMARK VINA RESULT:      -7.3      0.091      1.439
REMARK SMILES O=C(O)CCc1ccccc1
REMARK SMILES IDX 4 1 2 2 1 3 3 4 5 6 6 7 7 8 11 9 8 10 10 11 9 12
REMARK H PARENT 3 5
REMARK Flexibility Score: inf
ROOT
ATOM      1  C   UNL     1       8.408  -0.537  -2.239  1.00  0.00     0.127 C 
ENDROOT
BRANCH   1   2
ATOM      2  C   UNL     1       8.476  -1.849  -2.925  1.00  0.00     0.303 C 
ATOM      3  O   UNL     1       9.570  -2.442  -3.089  1.00  0.00    -0.252 OA
BRANCH   2   4
ATOM      4  O   UNL     1       7.328  -2.458  -3.406  1.00  0.00    -0.481 OA
ATOM      5  H   UNL     1       6.423  -2.222  -2.989  1.00  0.00     0.296 HD
ENDBRANCH   2   4
ENDBRANCH   1   2
BRANCH   1   6
ATOM      6  C   UNL     1       6.973  -0.112  -2.176  1.00  0.00     0.047 C 
BRANCH   6   7
ATOM      7  C   UNL     1       6.461   0.054  -0.817  1.00  0.00    -0.047 A 
ATOM      8  C   UNL     1       6.596  -0.951   0.113  1.00  0.00     0.004 A 
ATOM      9  C   UNL     1       5.840   1.233  -0.473  1.00  0.00     0.004 A 
ATOM     10  C   UNL     1       6.084  -0.723   1.392  1.00  0.00     0.000 A 
ATOM     11  C   UNL     1       5.335   1.456   0.793  1.00  0.00     0.000 A 
ATOM     12  C   UNL     1       5.465   0.454   1.730  1.00  0.00     0.000 A 
ENDBRANCH   6   7
ENDBRANCH   1   6
TORSDOF 4
ENDMDL
MODEL 3
REMARK VINA RESULT:      -6.7      3.339      5.017
REMARK SMILES O=C(O)CCc1ccccc1
REMARK SMILES IDX 4 1 2 2 1 3 3 4 5 6 6 7 7 8 11 9 8 10 10 11 9 12
REMARK H PARENT 3 5
REMARK Flexibility Score: inf
ROOT
ATOM      1  C   UNL     1       5.045   1.661   0.683  1.00  0.00     0.127 C 
ENDROOT
BRANCH   1   2
ATOM      2  C   UNL     1       4.595   1.002   1.931  1.00  0.00     0.303 C 
ATOM      3  O   UNL     1       5.311   0.149   2.512  1.00  0.00    -0.252 OA
BRANCH   2   4
ATOM      4  O   UNL     1       3.366   1.309   2.493  1.00  0.00    -0.481 OA
ATOM      5  H   UNL     1       3.043   2.280   2.490  1.00  0.00     0.296 HD
ENDBRANCH   2   4
ENDBRANCH   1   2
BRANCH   1   6
ATOM      6  C   UNL     1       6.541   1.737   0.703  1.00  0.00     0.047 C 
BRANCH   6   7
ATOM      7  C   UNL     1       7.189   0.990  -0.373  1.00  0.00    -0.047 A 
ATOM      8  C   UNL     1       8.516   1.197  -0.673  1.00  0.00     0.004 A 
ATOM      9  C   UNL     1       6.457   0.069  -1.087  1.00  0.00     0.004 A 
ATOM     10  C   UNL     1       9.070   0.447  -1.714  1.00  0.00     0.000 A 
ATOM     11  C   UNL     1       7.006  -0.671  -2.115  1.00  0.00     0.000 A 
ATOM     12  C   UNL     1       8.334  -0.469  -2.423  1.00  0.00     0.000 A 
ENDBRANCH   6   7
ENDBRANCH   1   6
TORSDOF 4
ENDMDL
MODEL 4
REMARK VINA RESULT:      -6.6      1.948      2.237
REMARK SMILES O=C(O)CCc1ccccc1
REMARK SMILES IDX 4 1 2 2 1 3 3 4 5 6 6 7 7 8 11 9 8 10 10 11 9 12
REMARK H PARENT 3 5
REMARK Flexibility Score: inf
ROOT
ATOM      1  C   UNL     1       8.168   0.283  -2.062  1.00  0.00     0.127 C 
ENDROOT
BRANCH   1   2
ATOM      2  C   UNL     1       9.359   0.367  -1.185  1.00  0.00     0.303 C 
ATOM      3  O   UNL     1       9.486  -0.384  -0.187  1.00  0.00    -0.252 OA
BRANCH   2   4
ATOM      4  O   UNL     1      10.369   1.279  -1.445  1.00  0.00    -0.481 OA
ATOM      5  H   UNL     1      11.325   0.942  -1.585  1.00  0.00     0.296 HD
ENDBRANCH   2   4
ENDBRANCH   1   2
BRANCH   1   6
ATOM      6  C   UNL     1       7.147  -0.583  -1.389  1.00  0.00     0.047 C 
BRANCH   6   7
ATOM      7  C   UNL     1       6.355   0.112  -0.375  1.00  0.00    -0.047 A 
ATOM      8  C   UNL     1       5.809   1.348  -0.633  1.00  0.00     0.004 A 
ATOM      9  C   UNL     1       6.157  -0.487   0.848  1.00  0.00     0.004 A 
ATOM     10  C   UNL     1       5.063   1.952   0.382  1.00  0.00     0.000 A 
ATOM     11  C   UNL     1       5.419   0.112   1.850  1.00  0.00     0.000 A 
ATOM     12  C   UNL     1       4.870   1.350   1.600  1.00  0.00     0.000 A 
ENDBRANCH   6   7
ENDBRANCH   1   6
TORSDOF 4
ENDMDL
MODEL 5
REMARK VINA RESULT:      -6.5      3.715      4.901
REMARK SMILES O=C(O)CCc1ccccc1
REMARK SMILES IDX 4 1 2 2 1 3 3 4 5 6 6 7 7 8 11 9 8 10 10 11 9 12
REMARK H PARENT 3 5
REMARK Flexibility Score: inf
ROOT
ATOM      1  C   UNL     1       5.442   2.913   0.000  1.00  0.00     0.127 C 
ENDROOT
BRANCH   1   2
ATOM      2  C   UNL     1       6.254   3.845   0.817  1.00  0.00     0.303 C 
ATOM      3  O   UNL     1       7.266   4.416   0.339  1.00  0.00    -0.252 OA
BRANCH   2   4
ATOM      4  O   UNL     1       5.919   4.113   2.134  1.00  0.00    -0.481 OA
ATOM      5  H   UNL     1       6.095   3.403   2.850  1.00  0.00     0.296 HD
ENDBRANCH   2   4
ENDBRANCH   1   2
BRANCH   1   6
ATOM      6  C   UNL     1       4.900   1.847   0.903  1.00  0.00     0.047 C 
BRANCH   6   7
ATOM      7  C   UNL     1       5.694   0.619   0.916  1.00  0.00    -0.047 A 
ATOM      8  C   UNL     1       6.344   0.190  -0.217  1.00  0.00     0.004 A 
ATOM      9  C   UNL     1       5.787  -0.108   2.081  1.00  0.00     0.004 A 
ATOM     10  C   UNL     1       7.085  -0.991  -0.132  1.00  0.00     0.000 A 
ATOM     11  C   UNL     1       6.519  -1.275   2.163  1.00  0.00     0.000 A 
ATOM     12  C   UNL     1       7.174  -1.712   1.032  1.00  0.00     0.000 A 
ENDBRANCH   6   7
ENDBRANCH   1   6
TORSDOF 4
ENDMDL
