@<TRIPOS>MOLECULE
/home/cewinharhar/GITHUB/reincatalyze/data/processed/docking_pred/2023-Apr-26-1657_maxeplen10_maxtrainstep1000_exh32_gamma099_lrac9e-4_lrcr1e-3/c61eb663c2c3330cf201d691d278f59eb7eebd68_ligand_2.pdbqt
 12 12 0 0 0
SMALL
GASTEIGER

@<TRIPOS>ATOM
      1  C          8.3000   -0.9770   -1.7670 C.3     1  UNL1        0.1270
      2  C          8.4420   -2.0160   -2.8130 C.2     1  UNL1        0.3030
      3  O          9.5630   -2.5030   -3.1000 O.2     1  UNL1       -0.2520
      4  O          7.3360   -2.4810   -3.5070 O.3     1  UNL1       -0.4810
      5  H          6.9150   -1.8930   -4.2310 H       1  UNL1        0.2960
      6  C          7.2760   -1.4420   -0.7770 C.3     1  UNL1        0.0470
      7  C          6.5070   -0.3600   -0.1640 C.2     1  UNL1       -0.0470
      8  C          6.1000   -0.4410    1.1470 C.2     1  UNL1        0.0040
      9  C          6.1930    0.7500   -0.9150 C.2     1  UNL1        0.0040
     10  C          5.3700    0.6300    1.6670 C.2     1  UNL1        0.0000
     11  C          5.4710    1.8070   -0.3990 C.2     1  UNL1        0.0000
     12  C          5.0590    1.7330    0.9130 C.2     1  UNL1        0.0000
@<TRIPOS>BOND
     1     5     4    1
     2     4     2    1
     3     3     2    2
     4     2     1    1
     5     1     6    1
     6     9    11    1
     7     9     7    2
     8     6     7    1
     9    11    12    2
    10     7     8    1
    11    12    10    1
    12     8    10    2
