@<TRIPOS>MOLECULE
/home/cewinharhar/GITHUB/reincatalyze/data/processed/docking_pred/2023-Apr-26-1657_maxeplen10_maxtrainstep1000_exh32_gamma099_lrac9e-4_lrcr1e-3/c61eb663c2c3330cf201d691d278f59eb7eebd68_ligand_2.pdbqt
 12 12 0 0 0
SMALL
GASTEIGER

@<TRIPOS>ATOM
      1  C          4.9920    1.7730    0.6770 C.3     1  UNL1        0.1270
      2  C          4.4930    1.1040    1.9020 C.2     1  UNL1        0.3030
      3  O          5.1640    0.2100    2.4740 O.2     1  UNL1       -0.2520
      4  O          3.2690    1.4490    2.4510 O.3     1  UNL1       -0.4810
      5  H          2.5830    1.9430    1.8740 H       1  UNL1        0.2960
      6  C          6.4890    1.8020    0.7330 C.3     1  UNL1        0.0470
      7  C          7.1390    1.0490   -0.3390 C.2     1  UNL1       -0.0470
      8  C          8.4700    1.2420   -0.6270 C.2     1  UNL1        0.0040
      9  C          6.4030    0.1380   -1.0600 C.2     1  UNL1        0.0040
     10  C          9.0240    0.4870   -1.6630 C.2     1  UNL1        0.0000
     11  C          6.9520   -0.6070   -2.0840 C.2     1  UNL1        0.0000
     12  C          8.2850   -0.4190   -2.3800 C.2     1  UNL1        0.0000
@<TRIPOS>BOND
     1    12    11    2
     2    12    10    1
     3    11     9    1
     4    10     8    2
     5     9     7    2
     6     8     7    1
     7     7     6    1
     8     1     6    1
     9     1     2    1
    10     5     4    1
    11     2     4    1
    12     2     3    2
