@<TRIPOS>MOLECULE
/home/cewinharhar/GITHUB/reincatalyze/data/processed/docking_pred/2023-Apr-26-1657_maxeplen10_maxtrainstep1000_exh32_gamma099_lrac9e-4_lrcr1e-3/c61eb663c2c3330cf201d691d278f59eb7eebd68_ligand_2.pdbqt
 12 12 0 0 0
SMALL
GASTEIGER

@<TRIPOS>ATOM
      1  C          8.2110    0.2340   -2.2320 C.3     1  UNL1        0.1270
      2  C          9.3290    0.3640   -1.2690 C.2     1  UNL1        0.3030
      3  O          9.4360   -0.4110   -0.2870 O.2     1  UNL1       -0.2520
      4  O         10.2910    1.3490   -1.4270 O.3     1  UNL1       -0.4810
      5  H         11.0020    1.4750   -0.7020 H       1  UNL1        0.2960
      6  C          7.0860   -0.4860   -1.5530 C.3     1  UNL1        0.0470
      7  C          6.3140    0.3490   -0.6350 C.2     1  UNL1       -0.0470
      8  C          5.8020    1.5580   -1.0450 C.2     1  UNL1        0.0040
      9  C          6.0990   -0.0890    0.6510 C.2     1  UNL1        0.0040
     10  C          5.0730    2.3030   -0.1150 C.2     1  UNL1        0.0000
     11  C          5.3790    0.6490    1.5700 C.2     1  UNL1        0.0000
     12  C          4.8630    1.8620    1.1670 C.2     1  UNL1        0.0000
@<TRIPOS>BOND
     1     1     6    1
     2     1     2    1
     3     6     7    1
     4     4     2    1
     5     4     5    1
     6     2     3    2
     7     8     7    2
     8     8    10    1
     9     7     9    1
    10    10    12    2
    11     9    11    2
    12    12    11    1
