@<TRIPOS>MOLECULE
/home/cewinharhar/GITHUB/reincatalyze/data/processed/docking_pred/2023-Apr-26-1657_maxeplen10_maxtrainstep1000_exh32_gamma099_lrac9e-4_lrcr1e-3/c61eb663c2c3330cf201d691d278f59eb7eebd68_ligand_2.pdbqt
 12 12 0 0 0
SMALL
GASTEIGER

@<TRIPOS>ATOM
      1  C          8.4080   -0.6110   -2.1250 C.3     1  UNL1        0.1270
      2  C          8.3840   -1.8810   -2.8890 C.2     1  UNL1        0.3030
      3  O          7.2990   -2.4150   -3.2300 O.2     1  UNL1       -0.2520
      4  O          9.5620   -2.5150   -3.2490 O.3     1  UNL1       -0.4810
      5  H         10.1070   -2.1520   -4.0350 H       1  UNL1        0.2960
      6  C          7.0170   -0.0540   -2.0940 C.3     1  UNL1        0.0470
      7  C          6.4670    0.0980   -0.7480 C.2     1  UNL1       -0.0470
      8  C          5.8320    1.2590   -0.3750 C.2     1  UNL1        0.0040
      9  C          6.5890   -0.9390    0.1480 C.2     1  UNL1        0.0040
     10  C          5.3300    1.3340    0.9260 C.2     1  UNL1        0.0000
     11  C          6.0920   -0.8630    1.4340 C.2     1  UNL1        0.0000
     12  C          5.4550    0.2970    1.8160 C.2     1  UNL1        0.0000
@<TRIPOS>BOND
     1     5     4    1
     2     4     2    1
     3     3     2    2
     4     2     1    1
     5     1     6    1
     6     6     7    1
     7     7     8    2
     8     7     9    1
     9     8    10    1
    10     9    11    2
    11    10    12    2
    12    11    12    1
