MODEL 1
REMARK VINA RESULT:      -7.3      0.000      0.000
REMARK SMILES O=C(O)CCc1ccccc1
REMARK SMILES IDX 4 1 2 2 1 3 3 4 5 6 6 7 7 8 11 9 8 10 10 11 9 12
REMARK H PARENT 3 5
REMARK Flexibility Score: inf
ROOT
ATOM      1  C   UNL     1       8.434  -0.562  -2.234  1.00  0.00     0.127 C 
ENDROOT
BRANCH   1   2
ATOM      2  C   UNL     1       8.477  -1.873  -2.924  1.00  0.00     0.303 C 
ATOM      3  O   UNL     1       9.559  -2.489  -3.085  1.00  0.00    -0.252 OA
BRANCH   2   4
ATOM      4  O   UNL     1       7.319  -2.457  -3.412  1.00  0.00    -0.481 OA
ATOM      5  H   UNL     1       6.648  -2.865  -2.755  1.00  0.00     0.296 HD
ENDBRANCH   2   4
ENDBRANCH   1   2
BRANCH   1   6
ATOM      6  C   UNL     1       7.006  -0.113  -2.165  1.00  0.00     0.047 C 
BRANCH   6   7
ATOM      7  C   UNL     1       6.493   0.031  -0.804  1.00  0.00    -0.047 A 
ATOM      8  C   UNL     1       6.643  -0.982   0.115  1.00  0.00     0.004 A 
ATOM      9  C   UNL     1       5.858   1.197  -0.445  1.00  0.00     0.004 A 
ATOM     10  C   UNL     1       6.129  -0.776   1.397  1.00  0.00     0.000 A 
ATOM     11  C   UNL     1       5.350   1.400   0.823  1.00  0.00     0.000 A 
ATOM     12  C   UNL     1       5.495   0.389   1.749  1.00  0.00     0.000 A 
ENDBRANCH   6   7
ENDBRANCH   1   6
TORSDOF 4
ENDMDL
MODEL 2
REMARK VINA RESULT:      -7.3      0.121      1.732
REMARK SMILES O=C(O)CCc1ccccc1
REMARK SMILES IDX 4 1 2 2 1 3 3 4 5 6 6 7 7 8 11 9 8 10 10 11 9 12
REMARK H PARENT 3 5
REMARK Flexibility Score: inf
ROOT
ATOM      1  C   UNL     1       8.408  -0.611  -2.125  1.00  0.00     0.127 C 
ENDROOT
BRANCH   1   2
ATOM      2  C   UNL     1       8.384  -1.881  -2.889  1.00  0.00     0.303 C 
ATOM      3  O   UNL     1       7.299  -2.415  -3.230  1.00  0.00    -0.252 OA
BRANCH   2   4
ATOM      4  O   UNL     1       9.562  -2.515  -3.249  1.00  0.00    -0.481 OA
ATOM      5  H   UNL     1      10.107  -2.152  -4.035  1.00  0.00     0.296 HD
ENDBRANCH   2   4
ENDBRANCH   1   2
BRANCH   1   6
ATOM      6  C   UNL     1       7.017  -0.054  -2.094  1.00  0.00     0.047 C 
BRANCH   6   7
ATOM      7  C   UNL     1       6.467   0.098  -0.748  1.00  0.00    -0.047 A 
ATOM      8  C   UNL     1       5.832   1.259  -0.375  1.00  0.00     0.004 A 
ATOM      9  C   UNL     1       6.589  -0.939   0.148  1.00  0.00     0.004 A 
ATOM     10  C   UNL     1       5.330   1.334   0.926  1.00  0.00     0.000 A 
ATOM     11  C   UNL     1       6.092  -0.863   1.434  1.00  0.00     0.000 A 
ATOM     12  C   UNL     1       5.455   0.297   1.816  1.00  0.00     0.000 A 
ENDBRANCH   6   7
ENDBRANCH   1   6
TORSDOF 4
ENDMDL
MODEL 3
REMARK VINA RESULT:      -7.2      0.678      1.127
REMARK SMILES O=C(O)CCc1ccccc1
REMARK SMILES IDX 4 1 2 2 1 3 3 4 5 6 6 7 7 8 11 9 8 10 10 11 9 12
REMARK H PARENT 3 5
REMARK Flexibility Score: inf
ROOT
ATOM      1  C   UNL     1       8.300  -0.977  -1.767  1.00  0.00     0.127 C 
ENDROOT
BRANCH   1   2
ATOM      2  C   UNL     1       8.442  -2.016  -2.813  1.00  0.00     0.303 C 
ATOM      3  O   UNL     1       9.563  -2.503  -3.100  1.00  0.00    -0.252 OA
BRANCH   2   4
ATOM      4  O   UNL     1       7.336  -2.481  -3.507  1.00  0.00    -0.481 OA
ATOM      5  H   UNL     1       6.915  -1.893  -4.231  1.00  0.00     0.296 HD
ENDBRANCH   2   4
ENDBRANCH   1   2
BRANCH   1   6
ATOM      6  C   UNL     1       7.276  -1.442  -0.777  1.00  0.00     0.047 C 
BRANCH   6   7
ATOM      7  C   UNL     1       6.507  -0.360  -0.164  1.00  0.00    -0.047 A 
ATOM      8  C   UNL     1       6.100  -0.441   1.147  1.00  0.00     0.004 A 
ATOM      9  C   UNL     1       6.193   0.750  -0.915  1.00  0.00     0.004 A 
ATOM     10  C   UNL     1       5.370   0.630   1.667  1.00  0.00     0.000 A 
ATOM     11  C   UNL     1       5.471   1.807  -0.399  1.00  0.00     0.000 A 
ATOM     12  C   UNL     1       5.059   1.733   0.913  1.00  0.00     0.000 A 
ENDBRANCH   6   7
ENDBRANCH   1   6
TORSDOF 4
ENDMDL
MODEL 4
REMARK VINA RESULT:      -6.8      3.371      5.062
REMARK SMILES O=C(O)CCc1ccccc1
REMARK SMILES IDX 4 1 2 2 1 3 3 4 5 6 6 7 7 8 11 9 8 10 10 11 9 12
REMARK H PARENT 3 5
REMARK Flexibility Score: inf
ROOT
ATOM      1  C   UNL     1       4.992   1.773   0.677  1.00  0.00     0.127 C 
ENDROOT
BRANCH   1   2
ATOM      2  C   UNL     1       4.493   1.104   1.902  1.00  0.00     0.303 C 
ATOM      3  O   UNL     1       5.164   0.210   2.474  1.00  0.00    -0.252 OA
BRANCH   2   4
ATOM      4  O   UNL     1       3.269   1.449   2.451  1.00  0.00    -0.481 OA
ATOM      5  H   UNL     1       2.583   1.943   1.874  1.00  0.00     0.296 HD
ENDBRANCH   2   4
ENDBRANCH   1   2
BRANCH   1   6
ATOM      6  C   UNL     1       6.489   1.802   0.733  1.00  0.00     0.047 C 
BRANCH   6   7
ATOM      7  C   UNL     1       7.139   1.049  -0.339  1.00  0.00    -0.047 A 
ATOM      8  C   UNL     1       8.470   1.242  -0.627  1.00  0.00     0.004 A 
ATOM      9  C   UNL     1       6.403   0.138  -1.060  1.00  0.00     0.004 A 
ATOM     10  C   UNL     1       9.024   0.487  -1.663  1.00  0.00     0.000 A 
ATOM     11  C   UNL     1       6.952  -0.607  -2.084  1.00  0.00     0.000 A 
ATOM     12  C   UNL     1       8.285  -0.419  -2.380  1.00  0.00     0.000 A 
ENDBRANCH   6   7
ENDBRANCH   1   6
TORSDOF 4
ENDMDL
MODEL 5
REMARK VINA RESULT:      -6.6      1.920      2.656
REMARK SMILES O=C(O)CCc1ccccc1
REMARK SMILES IDX 4 1 2 2 1 3 3 4 5 6 6 7 7 8 11 9 8 10 10 11 9 12
REMARK H PARENT 3 5
REMARK Flexibility Score: inf
ROOT
ATOM      1  C   UNL     1       8.211   0.234  -2.232  1.00  0.00     0.127 C 
ENDROOT
BRANCH   1   2
ATOM      2  C   UNL     1       9.329   0.364  -1.269  1.00  0.00     0.303 C 
ATOM      3  O   UNL     1       9.436  -0.411  -0.287  1.00  0.00    -0.252 OA
BRANCH   2   4
ATOM      4  O   UNL     1      10.291   1.349  -1.427  1.00  0.00    -0.481 OA
ATOM      5  H   UNL     1      11.002   1.475  -0.702  1.00  0.00     0.296 HD
ENDBRANCH   2   4
ENDBRANCH   1   2
BRANCH   1   6
ATOM      6  C   UNL     1       7.086  -0.486  -1.553  1.00  0.00     0.047 C 
BRANCH   6   7
ATOM      7  C   UNL     1       6.314   0.349  -0.635  1.00  0.00    -0.047 A 
ATOM      8  C   UNL     1       5.802   1.558  -1.045  1.00  0.00     0.004 A 
ATOM      9  C   UNL     1       6.099  -0.089   0.651  1.00  0.00     0.004 A 
ATOM     10  C   UNL     1       5.073   2.303  -0.115  1.00  0.00     0.000 A 
ATOM     11  C   UNL     1       5.379   0.649   1.570  1.00  0.00     0.000 A 
ATOM     12  C   UNL     1       4.863   1.862   1.167  1.00  0.00     0.000 A 
ENDBRANCH   6   7
ENDBRANCH   1   6
TORSDOF 4
ENDMDL
