@<TRIPOS>MOLECULE
/home/cewinharhar/GITHUB/reincatalyze/data/processed/docking_pred/2023-Apr-26-1657_maxeplen10_maxtrainstep1000_exh32_gamma099_lrac9e-4_lrcr1e-3/c61eb663c2c3330cf201d691d278f59eb7eebd68_ligand_2.pdbqt
 12 12 0 0 0
SMALL
GASTEIGER

@<TRIPOS>ATOM
      1  C          8.4340   -0.5620   -2.2340 C.3     1  UNL1        0.1270
      2  C          8.4770   -1.8730   -2.9240 C.2     1  UNL1        0.3030
      3  O          9.5590   -2.4890   -3.0850 O.2     1  UNL1       -0.2520
      4  O          7.3190   -2.4570   -3.4120 O.3     1  UNL1       -0.4810
      5  H          6.6480   -2.8650   -2.7550 H       1  UNL1        0.2960
      6  C          7.0060   -0.1130   -2.1650 C.3     1  UNL1        0.0470
      7  C          6.4930    0.0310   -0.8040 C.2     1  UNL1       -0.0470
      8  C          6.6430   -0.9820    0.1150 C.2     1  UNL1        0.0040
      9  C          5.8580    1.1970   -0.4450 C.2     1  UNL1        0.0040
     10  C          6.1290   -0.7760    1.3970 C.2     1  UNL1        0.0000
     11  C          5.3500    1.4000    0.8230 C.2     1  UNL1        0.0000
     12  C          5.4950    0.3890    1.7490 C.2     1  UNL1        0.0000
@<TRIPOS>BOND
     1     4     2    1
     2     4     5    1
     3     3     2    2
     4     2     1    1
     5     1     6    1
     6     6     7    1
     7     7     9    2
     8     7     8    1
     9     9    11    1
    10     8    10    2
    11    11    12    2
    12    10    12    1
