@<TRIPOS>MOLECULE
/home/cewinharhar/GITHUB/reincatalyze/data/processed/docking_pred/2023-Apr-26-1657_maxeplen10_maxtrainstep1000_exh32_gamma099_lrac9e-4_lrcr1e-3/c8a10dea28a77dd5a54e6b3bff917c6d12aef46d_ligand_2.pdbqt
 12 12 0 0 0
SMALL
GASTEIGER

@<TRIPOS>ATOM
      1  C          8.4120   -0.5880   -2.1750 C.3     1  UNL1        0.1270
      2  C          8.4650   -1.8740   -2.9100 C.2     1  UNL1        0.3030
      3  O          9.5530   -2.4720   -3.0990 O.2     1  UNL1       -0.2520
      4  O          7.3100   -2.4530   -3.4110 O.3     1  UNL1       -0.4810
      5  H          6.4040   -2.0220   -3.2060 H       1  UNL1        0.2960
      6  C          6.9860   -0.1310   -2.1280 C.3     1  UNL1        0.0470
      7  C          6.4640    0.0490   -0.7750 C.2     1  UNL1       -0.0470
      8  C          5.8490    1.2240   -0.4090 C.2     1  UNL1        0.0040
      9  C          6.5910   -0.9750    0.1350 C.2     1  UNL1        0.0040
     10  C          5.3720    1.3250    0.9010 C.2     1  UNL1        0.0000
     11  C          6.1200   -0.8730    1.4290 C.2     1  UNL1        0.0000
     12  C          5.5030    0.3010    1.8040 C.2     1  UNL1        0.0000
@<TRIPOS>BOND
     1     4     5    1
     2     4     2    1
     3     3     2    2
     4     2     1    1
     5     1     6    1
     6     6     7    1
     7     7     8    2
     8     7     9    1
     9     8    10    1
    10     9    11    2
    11    10    12    2
    12    11    12    1
