@<TRIPOS>MOLECULE
/home/cewinharhar/GITHUB/reincatalyze/data/processed/docking_pred/2023-Apr-26-1657_maxeplen10_maxtrainstep1000_exh32_gamma099_lrac9e-4_lrcr1e-3/c8a10dea28a77dd5a54e6b3bff917c6d12aef46d_ligand_2.pdbqt
 12 12 0 0 0
SMALL
GASTEIGER

@<TRIPOS>ATOM
      1  C          4.9830    1.7820    0.6710 C.3     1  UNL1        0.1270
      2  C          4.4820    1.1210    1.8990 C.2     1  UNL1        0.3030
      3  O          5.1490    0.2270    2.4760 O.2     1  UNL1       -0.2520
      4  O          3.2580    1.4730    2.4450 O.3     1  UNL1       -0.4810
      5  H          3.0630    2.4590    2.6440 H       1  UNL1        0.2960
      6  C          6.4810    1.7940    0.7210 C.3     1  UNL1        0.0470
      7  C          7.1180    1.0410   -0.3580 C.2     1  UNL1       -0.0470
      8  C          6.3930    0.1540   -1.1200 C.2     1  UNL1        0.0040
      9  C          8.4570    1.2300   -0.6080 C.2     1  UNL1        0.0040
     10  C          7.0670   -0.5290   -2.1350 C.2     1  UNL1        0.0000
     11  C          9.1220    0.5530   -1.6120 C.2     1  UNL1        0.0000
     12  C          8.4030   -0.3380   -2.3790 C.2     1  UNL1        0.0000
@<TRIPOS>BOND
     1    12    10    2
     2    12    11    1
     3    10     8    1
     4    11     9    2
     5     8     7    2
     6     9     7    1
     7     7     6    1
     8     1     6    1
     9     1     2    1
    10     2     4    1
    11     2     3    2
    12     4     5    1
