@<TRIPOS>MOLECULE
/home/cewinharhar/GITHUB/reincatalyze/data/processed/docking_pred/2023-Apr-26-1657_maxeplen10_maxtrainstep1000_exh32_gamma099_lrac9e-4_lrcr1e-3/c8a10dea28a77dd5a54e6b3bff917c6d12aef46d_ligand_2.pdbqt
 12 12 0 0 0
SMALL
GASTEIGER

@<TRIPOS>ATOM
      1  C          8.2400   -0.8860   -1.9070 C.3     1  UNL1        0.1270
      2  C          8.4080   -2.0000   -2.8700 C.2     1  UNL1        0.3030
      3  O          9.5400   -2.4880   -3.1100 O.2     1  UNL1       -0.2520
      4  O          7.3160   -2.5360   -3.5340 O.3     1  UNL1       -0.4810
      5  H          7.2950   -3.5390   -3.7360 H       1  UNL1        0.2960
      6  C          7.3380   -1.3500   -0.8040 C.3     1  UNL1        0.0470
      7  C          6.5320   -0.2850   -0.2080 C.2     1  UNL1       -0.0470
      8  C          6.1930    0.8320   -0.9360 C.2     1  UNL1        0.0040
      9  C          6.1110   -0.4120    1.0950 C.2     1  UNL1        0.0040
     10  C          5.4200    1.8080   -0.3030 C.2     1  UNL1        0.0000
     11  C          5.3470    0.5540    1.7200 C.2     1  UNL1        0.0000
     12  C          5.0040    1.6770    0.9980 C.2     1  UNL1        0.0000
@<TRIPOS>BOND
     1     5     4    1
     2     4     2    1
     3     3     2    2
     4     2     1    1
     5     1     6    1
     6     8    10    1
     7     8     7    2
     8     6     7    1
     9    10    12    2
    10     7     9    1
    11    12    11    1
    12     9    11    2
