MODEL 1
REMARK VINA RESULT:      -7.3      0.000      0.000
REMARK SMILES O=C(O)CCc1ccccc1
REMARK SMILES IDX 4 1 2 2 1 3 3 4 5 6 6 7 7 8 11 9 8 10 10 11 9 12
REMARK H PARENT 3 5
REMARK Flexibility Score: inf
ROOT
ATOM      1  C   UNL     1       8.439  -0.583  -2.210  1.00  0.00     0.127 C 
ENDROOT
BRANCH   1   2
ATOM      2  C   UNL     1       8.487  -1.881  -2.922  1.00  0.00     0.303 C 
ATOM      3  O   UNL     1       9.571  -2.491  -3.091  1.00  0.00    -0.252 OA
BRANCH   2   4
ATOM      4  O   UNL     1       7.331  -2.459  -3.423  1.00  0.00    -0.481 OA
ATOM      5  H   UNL     1       6.933  -3.275  -2.950  1.00  0.00     0.296 HD
ENDBRANCH   2   4
ENDBRANCH   1   2
BRANCH   1   6
ATOM      6  C   UNL     1       7.013  -0.126  -2.158  1.00  0.00     0.047 C 
BRANCH   6   7
ATOM      7  C   UNL     1       6.488   0.032  -0.803  1.00  0.00    -0.047 A 
ATOM      8  C   UNL     1       6.622  -0.975   0.125  1.00  0.00     0.004 A 
ATOM      9  C   UNL     1       5.856   1.205  -0.461  1.00  0.00     0.004 A 
ATOM     10  C   UNL     1       6.097  -0.755   1.400  1.00  0.00     0.000 A 
ATOM     11  C   UNL     1       5.337   1.421   0.801  1.00  0.00     0.000 A 
ATOM     12  C   UNL     1       5.467   0.417   1.736  1.00  0.00     0.000 A 
ENDBRANCH   6   7
ENDBRANCH   1   6
TORSDOF 4
ENDMDL
MODEL 2
REMARK VINA RESULT:      -7.3      0.078      1.438
REMARK SMILES O=C(O)CCc1ccccc1
REMARK SMILES IDX 4 1 2 2 1 3 3 4 5 6 6 7 7 8 11 9 8 10 10 11 9 12
REMARK H PARENT 3 5
REMARK Flexibility Score: inf
ROOT
ATOM      1  C   UNL     1       8.412  -0.588  -2.175  1.00  0.00     0.127 C 
ENDROOT
BRANCH   1   2
ATOM      2  C   UNL     1       8.465  -1.874  -2.910  1.00  0.00     0.303 C 
ATOM      3  O   UNL     1       9.553  -2.472  -3.099  1.00  0.00    -0.252 OA
BRANCH   2   4
ATOM      4  O   UNL     1       7.310  -2.453  -3.411  1.00  0.00    -0.481 OA
ATOM      5  H   UNL     1       6.404  -2.022  -3.206  1.00  0.00     0.296 HD
ENDBRANCH   2   4
ENDBRANCH   1   2
BRANCH   1   6
ATOM      6  C   UNL     1       6.986  -0.131  -2.128  1.00  0.00     0.047 C 
BRANCH   6   7
ATOM      7  C   UNL     1       6.464   0.049  -0.775  1.00  0.00    -0.047 A 
ATOM      8  C   UNL     1       5.849   1.224  -0.409  1.00  0.00     0.004 A 
ATOM      9  C   UNL     1       6.591  -0.975   0.135  1.00  0.00     0.004 A 
ATOM     10  C   UNL     1       5.372   1.325   0.901  1.00  0.00     0.000 A 
ATOM     11  C   UNL     1       6.120  -0.873   1.429  1.00  0.00     0.000 A 
ATOM     12  C   UNL     1       5.503   0.301   1.804  1.00  0.00     0.000 A 
ENDBRANCH   6   7
ENDBRANCH   1   6
TORSDOF 4
ENDMDL
MODEL 3
REMARK VINA RESULT:      -7.3      0.627      1.086
REMARK SMILES O=C(O)CCc1ccccc1
REMARK SMILES IDX 4 1 2 2 1 3 3 4 5 6 6 7 7 8 11 9 8 10 10 11 9 12
REMARK H PARENT 3 5
REMARK Flexibility Score: inf
ROOT
ATOM      1  C   UNL     1       8.233  -0.900  -1.864  1.00  0.00     0.127 C 
ENDROOT
BRANCH   1   2
ATOM      2  C   UNL     1       8.371  -2.019  -2.826  1.00  0.00     0.303 C 
ATOM      3  O   UNL     1       9.487  -2.548  -3.053  1.00  0.00    -0.252 OA
BRANCH   2   4
ATOM      4  O   UNL     1       7.269  -2.512  -3.504  1.00  0.00    -0.481 OA
ATOM      5  H   UNL     1       7.007  -2.098  -4.403  1.00  0.00     0.296 HD
ENDBRANCH   2   4
ENDBRANCH   1   2
BRANCH   1   6
ATOM      6  C   UNL     1       7.438  -1.384  -0.690  1.00  0.00     0.047 C 
BRANCH   6   7
ATOM      7  C   UNL     1       6.591  -0.359  -0.083  1.00  0.00    -0.047 A 
ATOM      8  C   UNL     1       6.127  -0.503   1.204  1.00  0.00     0.004 A 
ATOM      9  C   UNL     1       6.261   0.759  -0.813  1.00  0.00     0.004 A 
ATOM     10  C   UNL     1       5.323   0.516   1.721  1.00  0.00     0.000 A 
ATOM     11  C   UNL     1       5.466   1.765  -0.301  1.00  0.00     0.000 A 
ATOM     12  C   UNL     1       4.996   1.629   0.987  1.00  0.00     0.000 A 
ENDBRANCH   6   7
ENDBRANCH   1   6
TORSDOF 4
ENDMDL
MODEL 4
REMARK VINA RESULT:      -7.2      0.633      1.587
REMARK SMILES O=C(O)CCc1ccccc1
REMARK SMILES IDX 4 1 2 2 1 3 3 4 5 6 6 7 7 8 11 9 8 10 10 11 9 12
REMARK H PARENT 3 5
REMARK Flexibility Score: inf
ROOT
ATOM      1  C   UNL     1       8.240  -0.886  -1.907  1.00  0.00     0.127 C 
ENDROOT
BRANCH   1   2
ATOM      2  C   UNL     1       8.408  -2.000  -2.870  1.00  0.00     0.303 C 
ATOM      3  O   UNL     1       9.540  -2.488  -3.110  1.00  0.00    -0.252 OA
BRANCH   2   4
ATOM      4  O   UNL     1       7.316  -2.536  -3.534  1.00  0.00    -0.481 OA
ATOM      5  H   UNL     1       7.295  -3.539  -3.736  1.00  0.00     0.296 HD
ENDBRANCH   2   4
ENDBRANCH   1   2
BRANCH   1   6
ATOM      6  C   UNL     1       7.338  -1.350  -0.804  1.00  0.00     0.047 C 
BRANCH   6   7
ATOM      7  C   UNL     1       6.532  -0.285  -0.208  1.00  0.00    -0.047 A 
ATOM      8  C   UNL     1       6.193   0.832  -0.936  1.00  0.00     0.004 A 
ATOM      9  C   UNL     1       6.111  -0.412   1.095  1.00  0.00     0.004 A 
ATOM     10  C   UNL     1       5.420   1.808  -0.303  1.00  0.00     0.000 A 
ATOM     11  C   UNL     1       5.347   0.554   1.720  1.00  0.00     0.000 A 
ATOM     12  C   UNL     1       5.004   1.677   0.998  1.00  0.00     0.000 A 
ENDBRANCH   6   7
ENDBRANCH   1   6
TORSDOF 4
ENDMDL
MODEL 5
REMARK VINA RESULT:      -6.8      3.384      5.069
REMARK SMILES O=C(O)CCc1ccccc1
REMARK SMILES IDX 4 1 2 2 1 3 3 4 5 6 6 7 7 8 11 9 8 10 10 11 9 12
REMARK H PARENT 3 5
REMARK Flexibility Score: inf
ROOT
ATOM      1  C   UNL     1       4.983   1.782   0.671  1.00  0.00     0.127 C 
ENDROOT
BRANCH   1   2
ATOM      2  C   UNL     1       4.482   1.121   1.899  1.00  0.00     0.303 C 
ATOM      3  O   UNL     1       5.149   0.227   2.476  1.00  0.00    -0.252 OA
BRANCH   2   4
ATOM      4  O   UNL     1       3.258   1.473   2.445  1.00  0.00    -0.481 OA
ATOM      5  H   UNL     1       3.063   2.459   2.644  1.00  0.00     0.296 HD
ENDBRANCH   2   4
ENDBRANCH   1   2
BRANCH   1   6
ATOM      6  C   UNL     1       6.481   1.794   0.721  1.00  0.00     0.047 C 
BRANCH   6   7
ATOM      7  C   UNL     1       7.118   1.041  -0.358  1.00  0.00    -0.047 A 
ATOM      8  C   UNL     1       6.393   0.154  -1.120  1.00  0.00     0.004 A 
ATOM      9  C   UNL     1       8.457   1.230  -0.608  1.00  0.00     0.004 A 
ATOM     10  C   UNL     1       7.067  -0.529  -2.135  1.00  0.00     0.000 A 
ATOM     11  C   UNL     1       9.122   0.553  -1.612  1.00  0.00     0.000 A 
ATOM     12  C   UNL     1       8.403  -0.338  -2.379  1.00  0.00     0.000 A 
ENDBRANCH   6   7
ENDBRANCH   1   6
TORSDOF 4
ENDMDL
