@<TRIPOS>MOLECULE
/home/cewinharhar/GITHUB/reincatalyze/data/processed/docking_pred/2023-Apr-26-1657_maxeplen10_maxtrainstep1000_exh32_gamma099_lrac9e-4_lrcr1e-3/c8a10dea28a77dd5a54e6b3bff917c6d12aef46d_ligand_2.pdbqt
 12 12 0 0 0
SMALL
GASTEIGER

@<TRIPOS>ATOM
      1  C          8.2330   -0.9000   -1.8640 C.3     1  UNL1        0.1270
      2  C          8.3710   -2.0190   -2.8260 C.2     1  UNL1        0.3030
      3  O          9.4870   -2.5480   -3.0530 O.2     1  UNL1       -0.2520
      4  O          7.2690   -2.5120   -3.5040 O.3     1  UNL1       -0.4810
      5  H          7.0070   -2.0980   -4.4030 H       1  UNL1        0.2960
      6  C          7.4380   -1.3840   -0.6900 C.3     1  UNL1        0.0470
      7  C          6.5910   -0.3590   -0.0830 C.2     1  UNL1       -0.0470
      8  C          6.1270   -0.5030    1.2040 C.2     1  UNL1        0.0040
      9  C          6.2610    0.7590   -0.8130 C.2     1  UNL1        0.0040
     10  C          5.3230    0.5160    1.7210 C.2     1  UNL1        0.0000
     11  C          5.4660    1.7650   -0.3010 C.2     1  UNL1        0.0000
     12  C          4.9960    1.6290    0.9870 C.2     1  UNL1        0.0000
@<TRIPOS>BOND
     1     5     4    1
     2     4     2    1
     3     3     2    2
     4     2     1    1
     5     1     6    1
     6     9    11    1
     7     9     7    2
     8     6     7    1
     9    11    12    2
    10     7     8    1
    11    12    10    1
    12     8    10    2
