@<TRIPOS>MOLECULE
/home/cewinharhar/GITHUB/reincatalyze/data/processed/docking_pred/2023-Apr-26-1657_maxeplen10_maxtrainstep1000_exh32_gamma099_lrac9e-4_lrcr1e-3/c8a10dea28a77dd5a54e6b3bff917c6d12aef46d_ligand_2.pdbqt
 12 12 0 0 0
SMALL
GASTEIGER

@<TRIPOS>ATOM
      1  C          8.4390   -0.5830   -2.2100 C.3     1  UNL1        0.1270
      2  C          8.4870   -1.8810   -2.9220 C.2     1  UNL1        0.3030
      3  O          9.5710   -2.4910   -3.0910 O.2     1  UNL1       -0.2520
      4  O          7.3310   -2.4590   -3.4230 O.3     1  UNL1       -0.4810
      5  H          6.9330   -3.2750   -2.9500 H       1  UNL1        0.2960
      6  C          7.0130   -0.1260   -2.1580 C.3     1  UNL1        0.0470
      7  C          6.4880    0.0320   -0.8030 C.2     1  UNL1       -0.0470
      8  C          6.6220   -0.9750    0.1250 C.2     1  UNL1        0.0040
      9  C          5.8560    1.2050   -0.4610 C.2     1  UNL1        0.0040
     10  C          6.0970   -0.7550    1.4000 C.2     1  UNL1        0.0000
     11  C          5.3370    1.4210    0.8010 C.2     1  UNL1        0.0000
     12  C          5.4670    0.4170    1.7360 C.2     1  UNL1        0.0000
@<TRIPOS>BOND
     1     4     5    1
     2     4     2    1
     3     3     2    2
     4     2     1    1
     5     1     6    1
     6     6     7    1
     7     7     9    2
     8     7     8    1
     9     9    11    1
    10     8    10    2
    11    11    12    2
    12    10    12    1
