MODEL 1
REMARK VINA RESULT:      -7.3      0.000      0.000
REMARK SMILES O=C(O)CCc1ccccc1
REMARK SMILES IDX 4 1 2 2 1 3 3 4 5 6 6 7 7 8 11 9 8 10 10 11 9 12
REMARK H PARENT 3 5
REMARK Flexibility Score: inf
ROOT
ATOM      1  C   UNL     1       8.433  -0.597  -2.179  1.00  0.00     0.127 C 
ENDROOT
BRANCH   1   2
ATOM      2  C   UNL     1       8.487  -1.888  -2.905  1.00  0.00     0.303 C 
ATOM      3  O   UNL     1       9.575  -2.490  -3.081  1.00  0.00    -0.252 OA
BRANCH   2   4
ATOM      4  O   UNL     1       7.335  -2.467  -3.412  1.00  0.00    -0.481 OA
ATOM      5  H   UNL     1       6.795  -3.107  -2.823  1.00  0.00     0.296 HD
ENDBRANCH   2   4
ENDBRANCH   1   2
BRANCH   1   6
ATOM      6  C   UNL     1       7.007  -0.137  -2.144  1.00  0.00     0.047 C 
BRANCH   6   7
ATOM      7  C   UNL     1       6.475   0.047  -0.795  1.00  0.00    -0.047 A 
ATOM      8  C   UNL     1       5.852   1.221  -0.439  1.00  0.00     0.004 A 
ATOM      9  C   UNL     1       6.600  -0.972   0.120  1.00  0.00     0.004 A 
ATOM     10  C   UNL     1       5.367   1.326   0.867  1.00  0.00     0.000 A 
ATOM     11  C   UNL     1       6.120  -0.866   1.411  1.00  0.00     0.000 A 
ATOM     12  C   UNL     1       5.495   0.307   1.776  1.00  0.00     0.000 A 
ENDBRANCH   6   7
ENDBRANCH   1   6
TORSDOF 4
ENDMDL
MODEL 2
REMARK VINA RESULT:      -7.3      0.085      1.439
REMARK SMILES O=C(O)CCc1ccccc1
REMARK SMILES IDX 4 1 2 2 1 3 3 4 5 6 6 7 7 8 11 9 8 10 10 11 9 12
REMARK H PARENT 3 5
REMARK Flexibility Score: inf
ROOT
ATOM      1  C   UNL     1       8.417  -0.522  -2.278  1.00  0.00     0.127 C 
ENDROOT
BRANCH   1   2
ATOM      2  C   UNL     1       8.481  -1.838  -2.956  1.00  0.00     0.303 C 
ATOM      3  O   UNL     1       9.573  -2.439  -3.108  1.00  0.00    -0.252 OA
BRANCH   2   4
ATOM      4  O   UNL     1       7.333  -2.442  -3.443  1.00  0.00    -0.481 OA
ATOM      5  H   UNL     1       6.849  -2.026  -4.243  1.00  0.00     0.296 HD
ENDBRANCH   2   4
ENDBRANCH   1   2
BRANCH   1   6
ATOM      6  C   UNL     1       6.981  -0.101  -2.202  1.00  0.00     0.047 C 
BRANCH   6   7
ATOM      7  C   UNL     1       6.476   0.047  -0.838  1.00  0.00    -0.047 A 
ATOM      8  C   UNL     1       6.619  -0.968   0.079  1.00  0.00     0.004 A 
ATOM      9  C   UNL     1       5.853   1.219  -0.476  1.00  0.00     0.004 A 
ATOM     10  C   UNL     1       6.114  -0.758   1.364  1.00  0.00     0.000 A 
ATOM     11  C   UNL     1       5.353   1.425   0.795  1.00  0.00     0.000 A 
ATOM     12  C   UNL     1       5.492   0.413   1.719  1.00  0.00     0.000 A 
ENDBRANCH   6   7
ENDBRANCH   1   6
TORSDOF 4
ENDMDL
MODEL 3
REMARK VINA RESULT:      -7.2      0.632      1.617
REMARK SMILES O=C(O)CCc1ccccc1
REMARK SMILES IDX 4 1 2 2 1 3 3 4 5 6 6 7 7 8 11 9 8 10 10 11 9 12
REMARK H PARENT 3 5
REMARK Flexibility Score: inf
ROOT
ATOM      1  C   UNL     1       8.273  -0.921  -1.854  1.00  0.00     0.127 C 
ENDROOT
BRANCH   1   2
ATOM      2  C   UNL     1       8.392  -2.025  -2.836  1.00  0.00     0.303 C 
ATOM      3  O   UNL     1       9.504  -2.546  -3.099  1.00  0.00    -0.252 OA
BRANCH   2   4
ATOM      4  O   UNL     1       7.274  -2.514  -3.492  1.00  0.00    -0.481 OA
ATOM      5  H   UNL     1       6.366  -2.492  -3.020  1.00  0.00     0.296 HD
ENDBRANCH   2   4
ENDBRANCH   1   2
BRANCH   1   6
ATOM      6  C   UNL     1       7.454  -1.405  -0.697  1.00  0.00     0.047 C 
BRANCH   6   7
ATOM      7  C   UNL     1       6.607  -0.376  -0.096  1.00  0.00    -0.047 A 
ATOM      8  C   UNL     1       6.159  -0.502   1.198  1.00  0.00     0.004 A 
ATOM      9  C   UNL     1       6.263   0.729  -0.840  1.00  0.00     0.004 A 
ATOM     10  C   UNL     1       5.355   0.520   1.708  1.00  0.00     0.000 A 
ATOM     11  C   UNL     1       5.468   1.738  -0.334  1.00  0.00     0.000 A 
ATOM     12  C   UNL     1       5.013   1.619   0.961  1.00  0.00     0.000 A 
ENDBRANCH   6   7
ENDBRANCH   1   6
TORSDOF 4
ENDMDL
MODEL 4
REMARK VINA RESULT:      -6.7      3.390      5.090
REMARK SMILES O=C(O)CCc1ccccc1
REMARK SMILES IDX 4 1 2 2 1 3 3 4 5 6 6 7 7 8 11 9 8 10 10 11 9 12
REMARK H PARENT 3 5
REMARK Flexibility Score: inf
ROOT
ATOM      1  C   UNL     1       5.002   1.815   0.726  1.00  0.00     0.127 C 
ENDROOT
BRANCH   1   2
ATOM      2  C   UNL     1       4.478   1.120   1.926  1.00  0.00     0.303 C 
ATOM      3  O   UNL     1       5.132   0.206   2.487  1.00  0.00    -0.252 OA
BRANCH   2   4
ATOM      4  O   UNL     1       3.246   1.460   2.462  1.00  0.00    -0.481 OA
ATOM      5  H   UNL     1       2.531   1.869   1.854  1.00  0.00     0.296 HD
ENDBRANCH   2   4
ENDBRANCH   1   2
BRANCH   1   6
ATOM      6  C   UNL     1       6.499   1.774   0.776  1.00  0.00     0.047 C 
BRANCH   6   7
ATOM      7  C   UNL     1       7.111   1.036  -0.328  1.00  0.00    -0.047 A 
ATOM      8  C   UNL     1       6.370   0.153  -1.079  1.00  0.00     0.004 A 
ATOM      9  C   UNL     1       8.442   1.234  -0.612  1.00  0.00     0.004 A 
ATOM     10  C   UNL     1       7.019  -0.517  -2.119  1.00  0.00     0.000 A 
ATOM     11  C   UNL     1       9.082   0.571  -1.640  1.00  0.00     0.000 A 
ATOM     12  C   UNL     1       8.348  -0.315  -2.398  1.00  0.00     0.000 A 
ENDBRANCH   6   7
ENDBRANCH   1   6
TORSDOF 4
ENDMDL
MODEL 5
REMARK VINA RESULT:      -6.6      1.910      2.641
REMARK SMILES O=C(O)CCc1ccccc1
REMARK SMILES IDX 4 1 2 2 1 3 3 4 5 6 6 7 7 8 11 9 8 10 10 11 9 12
REMARK H PARENT 3 5
REMARK Flexibility Score: inf
ROOT
ATOM      1  C   UNL     1       8.212   0.224  -2.201  1.00  0.00     0.127 C 
ENDROOT
BRANCH   1   2
ATOM      2  C   UNL     1       9.348   0.345  -1.257  1.00  0.00     0.303 C 
ATOM      3  O   UNL     1       9.446  -0.408  -0.256  1.00  0.00    -0.252 OA
BRANCH   2   4
ATOM      4  O   UNL     1      10.336   1.297  -1.453  1.00  0.00    -0.481 OA
ATOM      5  H   UNL     1      10.172   2.260  -1.145  1.00  0.00     0.296 HD
ENDBRANCH   2   4
ENDBRANCH   1   2
BRANCH   1   6
ATOM      6  C   UNL     1       7.127  -0.564  -1.532  1.00  0.00     0.047 C 
BRANCH   6   7
ATOM      7  C   UNL     1       6.353   0.201  -0.556  1.00  0.00    -0.047 A 
ATOM      8  C   UNL     1       6.145  -0.286   0.714  1.00  0.00     0.004 A 
ATOM      9  C   UNL     1       5.832   1.421  -0.920  1.00  0.00     0.004 A 
ATOM     10  C   UNL     1       5.397   0.499   1.594  1.00  0.00     0.000 A 
ATOM     11  C   UNL     1       5.092   2.196  -0.048  1.00  0.00     0.000 A 
ATOM     12  C   UNL     1       4.879   1.715   1.226  1.00  0.00     0.000 A 
ENDBRANCH   6   7
ENDBRANCH   1   6
TORSDOF 4
ENDMDL
