@<TRIPOS>MOLECULE
/home/cewinharhar/GITHUB/reincatalyze/data/processed/docking_pred/2023-Apr-26-1657_maxeplen10_maxtrainstep1000_exh32_gamma099_lrac9e-4_lrcr1e-3/ca2511eb0ea692a115cf18c67ef7ccdfaa736476_ligand_2.pdbqt
 12 12 0 0 0
SMALL
GASTEIGER

@<TRIPOS>ATOM
      1  C          8.2120    0.2240   -2.2010 C.3     1  UNL1        0.1270
      2  C          9.3480    0.3450   -1.2570 C.2     1  UNL1        0.3030
      3  O          9.4460   -0.4080   -0.2560 O.2     1  UNL1       -0.2520
      4  O         10.3360    1.2970   -1.4530 O.3     1  UNL1       -0.4810
      5  H         10.1720    2.2600   -1.1450 H       1  UNL1        0.2960
      6  C          7.1270   -0.5640   -1.5320 C.3     1  UNL1        0.0470
      7  C          6.3530    0.2010   -0.5560 C.2     1  UNL1       -0.0470
      8  C          6.1450   -0.2860    0.7140 C.2     1  UNL1        0.0040
      9  C          5.8320    1.4210   -0.9200 C.2     1  UNL1        0.0040
     10  C          5.3970    0.4990    1.5940 C.2     1  UNL1        0.0000
     11  C          5.0920    2.1960   -0.0480 C.2     1  UNL1        0.0000
     12  C          4.8790    1.7150    1.2260 C.2     1  UNL1        0.0000
@<TRIPOS>BOND
     1     1     6    1
     2     1     2    1
     3     6     7    1
     4     4     2    1
     5     4     5    1
     6     2     3    2
     7     9     7    2
     8     9    11    1
     9     7     8    1
    10    11    12    2
    11     8    10    2
    12    12    10    1
