@<TRIPOS>MOLECULE
/home/cewinharhar/GITHUB/reincatalyze/data/processed/docking_pred/2023-Apr-26-1657_maxeplen10_maxtrainstep1000_exh32_gamma099_lrac9e-4_lrcr1e-3/ca2511eb0ea692a115cf18c67ef7ccdfaa736476_ligand_2.pdbqt
 12 12 0 0 0
SMALL
GASTEIGER

@<TRIPOS>ATOM
      1  C          8.2730   -0.9210   -1.8540 C.3     1  UNL1        0.1270
      2  C          8.3920   -2.0250   -2.8360 C.2     1  UNL1        0.3030
      3  O          9.5040   -2.5460   -3.0990 O.2     1  UNL1       -0.2520
      4  O          7.2740   -2.5140   -3.4920 O.3     1  UNL1       -0.4810
      5  H          6.3660   -2.4920   -3.0200 H       1  UNL1        0.2960
      6  C          7.4540   -1.4050   -0.6970 C.3     1  UNL1        0.0470
      7  C          6.6070   -0.3760   -0.0960 C.2     1  UNL1       -0.0470
      8  C          6.1590   -0.5020    1.1980 C.2     1  UNL1        0.0040
      9  C          6.2630    0.7290   -0.8400 C.2     1  UNL1        0.0040
     10  C          5.3550    0.5200    1.7080 C.2     1  UNL1        0.0000
     11  C          5.4680    1.7380   -0.3340 C.2     1  UNL1        0.0000
     12  C          5.0130    1.6190    0.9610 C.2     1  UNL1        0.0000
@<TRIPOS>BOND
     1     4     5    1
     2     4     2    1
     3     3     2    2
     4     2     1    1
     5     1     6    1
     6     9    11    1
     7     9     7    2
     8     6     7    1
     9    11    12    2
    10     7     8    1
    11    12    10    1
    12     8    10    2
