@<TRIPOS>MOLECULE
/home/cewinharhar/GITHUB/reincatalyze/data/processed/docking_pred/2023-Apr-26-1657_maxeplen10_maxtrainstep1000_exh32_gamma099_lrac9e-4_lrcr1e-3/ca2511eb0ea692a115cf18c67ef7ccdfaa736476_ligand_2.pdbqt
 12 12 0 0 0
SMALL
GASTEIGER

@<TRIPOS>ATOM
      1  C          8.4330   -0.5970   -2.1790 C.3     1  UNL1        0.1270
      2  C          8.4870   -1.8880   -2.9050 C.2     1  UNL1        0.3030
      3  O          9.5750   -2.4900   -3.0810 O.2     1  UNL1       -0.2520
      4  O          7.3350   -2.4670   -3.4120 O.3     1  UNL1       -0.4810
      5  H          6.7950   -3.1070   -2.8230 H       1  UNL1        0.2960
      6  C          7.0070   -0.1370   -2.1440 C.3     1  UNL1        0.0470
      7  C          6.4750    0.0470   -0.7950 C.2     1  UNL1       -0.0470
      8  C          5.8520    1.2210   -0.4390 C.2     1  UNL1        0.0040
      9  C          6.6000   -0.9720    0.1200 C.2     1  UNL1        0.0040
     10  C          5.3670    1.3260    0.8670 C.2     1  UNL1        0.0000
     11  C          6.1200   -0.8660    1.4110 C.2     1  UNL1        0.0000
     12  C          5.4950    0.3070    1.7760 C.2     1  UNL1        0.0000
@<TRIPOS>BOND
     1     4     2    1
     2     4     5    1
     3     3     2    2
     4     2     1    1
     5     1     6    1
     6     6     7    1
     7     7     8    2
     8     7     9    1
     9     8    10    1
    10     9    11    2
    11    10    12    2
    12    11    12    1
