@<TRIPOS>MOLECULE
/home/cewinharhar/GITHUB/reincatalyze/data/processed/docking_pred/2023-Apr-26-1657_maxeplen10_maxtrainstep1000_exh32_gamma099_lrac9e-4_lrcr1e-3/ca2511eb0ea692a115cf18c67ef7ccdfaa736476_ligand_2.pdbqt
 12 12 0 0 0
SMALL
GASTEIGER

@<TRIPOS>ATOM
      1  C          8.4170   -0.5220   -2.2780 C.3     1  UNL1        0.1270
      2  C          8.4810   -1.8380   -2.9560 C.2     1  UNL1        0.3030
      3  O          9.5730   -2.4390   -3.1080 O.2     1  UNL1       -0.2520
      4  O          7.3330   -2.4420   -3.4430 O.3     1  UNL1       -0.4810
      5  H          6.8490   -2.0260   -4.2430 H       1  UNL1        0.2960
      6  C          6.9810   -0.1010   -2.2020 C.3     1  UNL1        0.0470
      7  C          6.4760    0.0470   -0.8380 C.2     1  UNL1       -0.0470
      8  C          6.6190   -0.9680    0.0790 C.2     1  UNL1        0.0040
      9  C          5.8530    1.2190   -0.4760 C.2     1  UNL1        0.0040
     10  C          6.1140   -0.7580    1.3640 C.2     1  UNL1        0.0000
     11  C          5.3530    1.4250    0.7950 C.2     1  UNL1        0.0000
     12  C          5.4920    0.4130    1.7190 C.2     1  UNL1        0.0000
@<TRIPOS>BOND
     1     5     4    1
     2     4     2    1
     3     3     2    2
     4     2     1    1
     5     1     6    1
     6     6     7    1
     7     7     9    2
     8     7     8    1
     9     9    11    1
    10     8    10    2
    11    11    12    2
    12    10    12    1
