@<TRIPOS>MOLECULE
/home/cewinharhar/GITHUB/reincatalyze/data/processed/docking_pred/2023-Apr-26-1657_maxeplen10_maxtrainstep1000_exh32_gamma099_lrac9e-4_lrcr1e-3/ca2511eb0ea692a115cf18c67ef7ccdfaa736476_ligand_2.pdbqt
 12 12 0 0 0
SMALL
GASTEIGER

@<TRIPOS>ATOM
      1  C          5.0020    1.8150    0.7260 C.3     1  UNL1        0.1270
      2  C          4.4780    1.1200    1.9260 C.2     1  UNL1        0.3030
      3  O          5.1320    0.2060    2.4870 O.2     1  UNL1       -0.2520
      4  O          3.2460    1.4600    2.4620 O.3     1  UNL1       -0.4810
      5  H          2.5310    1.8690    1.8540 H       1  UNL1        0.2960
      6  C          6.4990    1.7740    0.7760 C.3     1  UNL1        0.0470
      7  C          7.1110    1.0360   -0.3280 C.2     1  UNL1       -0.0470
      8  C          6.3700    0.1530   -1.0790 C.2     1  UNL1        0.0040
      9  C          8.4420    1.2340   -0.6120 C.2     1  UNL1        0.0040
     10  C          7.0190   -0.5170   -2.1190 C.2     1  UNL1        0.0000
     11  C          9.0820    0.5710   -1.6400 C.2     1  UNL1        0.0000
     12  C          8.3480   -0.3150   -2.3980 C.2     1  UNL1        0.0000
@<TRIPOS>BOND
     1    12    10    2
     2    12    11    1
     3    10     8    1
     4    11     9    2
     5     8     7    2
     6     9     7    1
     7     7     6    1
     8     1     6    1
     9     1     2    1
    10     5     4    1
    11     2     4    1
    12     2     3    2
