MODEL 1
REMARK VINA RESULT:      -7.4      0.000      0.000
REMARK SMILES O=C(O)CCc1ccccc1
REMARK SMILES IDX 4 1 2 2 1 3 3 4 5 6 6 7 7 8 11 9 8 10 10 11 9 12
REMARK H PARENT 3 5
REMARK Flexibility Score: inf
ROOT
ATOM      1  C   UNL     1       8.452  -0.627  -2.152  1.00  0.00     0.127 C 
ENDROOT
BRANCH   1   2
ATOM      2  C   UNL     1       8.486  -1.901  -2.910  1.00  0.00     0.303 C 
ATOM      3  O   UNL     1       9.561  -2.524  -3.089  1.00  0.00    -0.252 OA
BRANCH   2   4
ATOM      4  O   UNL     1       7.326  -2.440  -3.444  1.00  0.00    -0.481 OA
ATOM      5  H   UNL     1       7.076  -3.407  -3.223  1.00  0.00     0.296 HD
ENDBRANCH   2   4
ENDBRANCH   1   2
BRANCH   1   6
ATOM      6  C   UNL     1       7.039  -0.131  -2.127  1.00  0.00     0.047 C 
BRANCH   6   7
ATOM      7  C   UNL     1       6.492   0.037  -0.782  1.00  0.00    -0.047 A 
ATOM      8  C   UNL     1       6.620  -0.958   0.159  1.00  0.00     0.004 A 
ATOM      9  C   UNL     1       5.845   1.208  -0.462  1.00  0.00     0.004 A 
ATOM     10  C   UNL     1       6.074  -0.728   1.424  1.00  0.00     0.000 A 
ATOM     11  C   UNL     1       5.305   1.434   0.789  1.00  0.00     0.000 A 
ATOM     12  C   UNL     1       5.429   0.442   1.737  1.00  0.00     0.000 A 
ENDBRANCH   6   7
ENDBRANCH   1   6
TORSDOF 4
ENDMDL
MODEL 2
REMARK VINA RESULT:      -7.4      0.120      1.732
REMARK SMILES O=C(O)CCc1ccccc1
REMARK SMILES IDX 4 1 2 2 1 3 3 4 5 6 6 7 7 8 11 9 8 10 10 11 9 12
REMARK H PARENT 3 5
REMARK Flexibility Score: inf
ROOT
ATOM      1  C   UNL     1       8.408  -0.659  -2.076  1.00  0.00     0.127 C 
ENDROOT
BRANCH   1   2
ATOM      2  C   UNL     1       8.374  -1.906  -2.875  1.00  0.00     0.303 C 
ATOM      3  O   UNL     1       7.286  -2.409  -3.251  1.00  0.00    -0.252 OA
BRANCH   2   4
ATOM      4  O   UNL     1       9.546  -2.554  -3.230  1.00  0.00    -0.481 OA
ATOM      5  H   UNL     1      10.446  -2.117  -3.012  1.00  0.00     0.296 HD
ENDBRANCH   2   4
ENDBRANCH   1   2
BRANCH   1   6
ATOM      6  C   UNL     1       7.032  -0.066  -2.071  1.00  0.00     0.047 C 
BRANCH   6   7
ATOM      7  C   UNL     1       6.462   0.103  -0.735  1.00  0.00    -0.047 A 
ATOM      8  C   UNL     1       5.804   1.261  -0.392  1.00  0.00     0.004 A 
ATOM      9  C   UNL     1       6.588  -0.915   0.182  1.00  0.00     0.004 A 
ATOM     10  C   UNL     1       5.284   1.353   0.901  1.00  0.00     0.000 A 
ATOM     11  C   UNL     1       6.073  -0.823   1.460  1.00  0.00     0.000 A 
ATOM     12  C   UNL     1       5.413   0.335   1.812  1.00  0.00     0.000 A 
ENDBRANCH   6   7
ENDBRANCH   1   6
TORSDOF 4
ENDMDL
MODEL 3
REMARK VINA RESULT:      -6.9      3.382      5.069
REMARK SMILES O=C(O)CCc1ccccc1
REMARK SMILES IDX 4 1 2 2 1 3 3 4 5 6 6 7 7 8 11 9 8 10 10 11 9 12
REMARK H PARENT 3 5
REMARK Flexibility Score: inf
ROOT
ATOM      1  C   UNL     1       5.001   1.787   0.706  1.00  0.00     0.127 C 
ENDROOT
BRANCH   1   2
ATOM      2  C   UNL     1       4.481   1.108   1.916  1.00  0.00     0.303 C 
ATOM      3  O   UNL     1       5.135   0.197   2.483  1.00  0.00    -0.252 OA
BRANCH   2   4
ATOM      4  O   UNL     1       3.255   1.461   2.457  1.00  0.00    -0.481 OA
ATOM      5  H   UNL     1       2.440   1.538   1.842  1.00  0.00     0.296 HD
ENDBRANCH   2   4
ENDBRANCH   1   2
BRANCH   1   6
ATOM      6  C   UNL     1       6.499   1.757   0.756  1.00  0.00     0.047 C 
BRANCH   6   7
ATOM      7  C   UNL     1       7.115   1.005  -0.336  1.00  0.00    -0.047 A 
ATOM      8  C   UNL     1       6.385   0.091  -1.061  1.00  0.00     0.004 A 
ATOM      9  C   UNL     1       8.440   1.221  -0.636  1.00  0.00     0.004 A 
ATOM     10  C   UNL     1       7.038  -0.590  -2.090  1.00  0.00     0.000 A 
ATOM     11  C   UNL     1       9.084   0.547  -1.654  1.00  0.00     0.000 A 
ATOM     12  C   UNL     1       8.360  -0.371  -2.385  1.00  0.00     0.000 A 
ENDBRANCH   6   7
ENDBRANCH   1   6
TORSDOF 4
ENDMDL
MODEL 4
REMARK VINA RESULT:      -6.7      2.001      2.679
REMARK SMILES O=C(O)CCc1ccccc1
REMARK SMILES IDX 4 1 2 2 1 3 3 4 5 6 6 7 7 8 11 9 8 10 10 11 9 12
REMARK H PARENT 3 5
REMARK Flexibility Score: inf
ROOT
ATOM      1  C   UNL     1       8.268   0.443  -1.972  1.00  0.00     0.127 C 
ENDROOT
BRANCH   1   2
ATOM      2  C   UNL     1       9.459   0.435  -1.089  1.00  0.00     0.303 C 
ATOM      3  O   UNL     1       9.543  -0.356  -0.117  1.00  0.00    -0.252 OA
BRANCH   2   4
ATOM      4  O   UNL     1      10.515   1.303  -1.314  1.00  0.00    -0.481 OA
ATOM      5  H   UNL     1      11.083   1.193  -2.158  1.00  0.00     0.296 HD
ENDBRANCH   2   4
ENDBRANCH   1   2
BRANCH   1   6
ATOM      6  C   UNL     1       7.231  -0.457  -1.372  1.00  0.00     0.047 C 
BRANCH   6   7
ATOM      7  C   UNL     1       6.394   0.190  -0.363  1.00  0.00    -0.047 A 
ATOM      8  C   UNL     1       5.811   1.411  -0.610  1.00  0.00     0.004 A 
ATOM      9  C   UNL     1       6.192  -0.438   0.845  1.00  0.00     0.004 A 
ATOM     10  C   UNL     1       5.023   1.969   0.399  1.00  0.00     0.000 A 
ATOM     11  C   UNL     1       5.414   0.116   1.841  1.00  0.00     0.000 A 
ATOM     12  C   UNL     1       4.826   1.339   1.601  1.00  0.00     0.000 A 
ENDBRANCH   6   7
ENDBRANCH   1   6
TORSDOF 4
ENDMDL
MODEL 5
REMARK VINA RESULT:      -6.6      1.882      2.840
REMARK SMILES O=C(O)CCc1ccccc1
REMARK SMILES IDX 4 1 2 2 1 3 3 4 5 6 6 7 7 8 11 9 8 10 10 11 9 12
REMARK H PARENT 3 5
REMARK Flexibility Score: inf
ROOT
ATOM      1  C   UNL     1       8.227  -1.591   1.111  1.00  0.00     0.127 C 
ENDROOT
BRANCH   1   2
ATOM      2  C   UNL     1       8.514  -2.822   0.337  1.00  0.00     0.303 C 
ATOM      3  O   UNL     1       9.150  -3.778   0.846  1.00  0.00    -0.252 OA
BRANCH   2   4
ATOM      4  O   UNL     1       8.088  -2.951  -0.975  1.00  0.00    -0.481 OA
ATOM      5  H   UNL     1       7.706  -3.846  -1.292  1.00  0.00     0.296 HD
ENDBRANCH   2   4
ENDBRANCH   1   2
BRANCH   1   6
ATOM      6  C   UNL     1       6.743  -1.482   1.288  1.00  0.00     0.047 C 
BRANCH   6   7
ATOM      7  C   UNL     1       6.178  -0.223   0.805  1.00  0.00    -0.047 A 
ATOM      8  C   UNL     1       5.404   0.562   1.628  1.00  0.00     0.004 A 
ATOM      9  C   UNL     1       6.431   0.174  -0.488  1.00  0.00     0.004 A 
ATOM     10  C   UNL     1       4.898   1.752   1.101  1.00  0.00     0.000 A 
ATOM     11  C   UNL     1       5.929   1.351  -1.007  1.00  0.00     0.000 A 
ATOM     12  C   UNL     1       5.152   2.143  -0.190  1.00  0.00     0.000 A 
ENDBRANCH   6   7
ENDBRANCH   1   6
TORSDOF 4
ENDMDL
