@<TRIPOS>MOLECULE
/home/cewinharhar/GITHUB/reincatalyze/data/processed/docking_pred/2023-Apr-26-1657_maxeplen10_maxtrainstep1000_exh32_gamma099_lrac9e-4_lrcr1e-3/cb79d4b49cb2e7af28552c4e2a37cc688e9725fc_ligand_2.pdbqt
 12 12 0 0 0
SMALL
GASTEIGER

@<TRIPOS>ATOM
      1  C          8.4080   -0.6590   -2.0760 C.3     1  UNL1        0.1270
      2  C          8.3740   -1.9060   -2.8750 C.2     1  UNL1        0.3030
      3  O          7.2860   -2.4090   -3.2510 O.2     1  UNL1       -0.2520
      4  O          9.5460   -2.5540   -3.2300 O.3     1  UNL1       -0.4810
      5  H         10.4460   -2.1170   -3.0120 H       1  UNL1        0.2960
      6  C          7.0320   -0.0660   -2.0710 C.3     1  UNL1        0.0470
      7  C          6.4620    0.1030   -0.7350 C.2     1  UNL1       -0.0470
      8  C          5.8040    1.2610   -0.3920 C.2     1  UNL1        0.0040
      9  C          6.5880   -0.9150    0.1820 C.2     1  UNL1        0.0040
     10  C          5.2840    1.3530    0.9010 C.2     1  UNL1        0.0000
     11  C          6.0730   -0.8230    1.4600 C.2     1  UNL1        0.0000
     12  C          5.4130    0.3350    1.8120 C.2     1  UNL1        0.0000
@<TRIPOS>BOND
     1     3     2    2
     2     4     5    1
     3     4     2    1
     4     2     1    1
     5     1     6    1
     6     6     7    1
     7     7     8    2
     8     7     9    1
     9     8    10    1
    10     9    11    2
    11    10    12    2
    12    11    12    1
