@<TRIPOS>MOLECULE
/home/cewinharhar/GITHUB/reincatalyze/data/processed/docking_pred/2023-Apr-26-1657_maxeplen10_maxtrainstep1000_exh32_gamma099_lrac9e-4_lrcr1e-3/cb79d4b49cb2e7af28552c4e2a37cc688e9725fc_ligand_2.pdbqt
 12 12 0 0 0
SMALL
GASTEIGER

@<TRIPOS>ATOM
      1  C          8.2270   -1.5910    1.1110 C.3     1  UNL1        0.1270
      2  C          8.5140   -2.8220    0.3370 C.2     1  UNL1        0.3030
      3  O          9.1500   -3.7780    0.8460 O.2     1  UNL1       -0.2520
      4  O          8.0880   -2.9510   -0.9750 O.3     1  UNL1       -0.4810
      5  H          7.7060   -3.8460   -1.2920 H       1  UNL1        0.2960
      6  C          6.7430   -1.4820    1.2880 C.3     1  UNL1        0.0470
      7  C          6.1780   -0.2230    0.8050 C.2     1  UNL1       -0.0470
      8  C          5.4040    0.5620    1.6280 C.2     1  UNL1        0.0040
      9  C          6.4310    0.1740   -0.4880 C.2     1  UNL1        0.0040
     10  C          4.8980    1.7520    1.1010 C.2     1  UNL1        0.0000
     11  C          5.9290    1.3510   -1.0070 C.2     1  UNL1        0.0000
     12  C          5.1520    2.1430   -0.1900 C.2     1  UNL1        0.0000
@<TRIPOS>BOND
     1     5     4    1
     2    11     9    1
     3    11    12    2
     4     4     2    1
     5     9     7    2
     6    12    10    1
     7     2     3    2
     8     2     1    1
     9     7     6    1
    10     7     8    1
    11    10     8    2
    12     1     6    1
