@<TRIPOS>MOLECULE
/home/cewinharhar/GITHUB/reincatalyze/data/processed/docking_pred/2023-Apr-26-1657_maxeplen10_maxtrainstep1000_exh32_gamma099_lrac9e-4_lrcr1e-3/cb79d4b49cb2e7af28552c4e2a37cc688e9725fc_ligand_2.pdbqt
 12 12 0 0 0
SMALL
GASTEIGER

@<TRIPOS>ATOM
      1  C          8.2680    0.4430   -1.9720 C.3     1  UNL1        0.1270
      2  C          9.4590    0.4350   -1.0890 C.2     1  UNL1        0.3030
      3  O          9.5430   -0.3560   -0.1170 O.2     1  UNL1       -0.2520
      4  O         10.5150    1.3030   -1.3140 O.3     1  UNL1       -0.4810
      5  H         11.0830    1.1930   -2.1580 H       1  UNL1        0.2960
      6  C          7.2310   -0.4570   -1.3720 C.3     1  UNL1        0.0470
      7  C          6.3940    0.1900   -0.3630 C.2     1  UNL1       -0.0470
      8  C          5.8110    1.4110   -0.6100 C.2     1  UNL1        0.0040
      9  C          6.1920   -0.4380    0.8450 C.2     1  UNL1        0.0040
     10  C          5.0230    1.9690    0.3990 C.2     1  UNL1        0.0000
     11  C          5.4140    0.1160    1.8410 C.2     1  UNL1        0.0000
     12  C          4.8260    1.3390    1.6010 C.2     1  UNL1        0.0000
@<TRIPOS>BOND
     1     5     4    1
     2     1     6    1
     3     1     2    1
     4     6     7    1
     5     4     2    1
     6     2     3    2
     7     8     7    2
     8     8    10    1
     9     7     9    1
    10    10    12    2
    11     9    11    2
    12    12    11    1
