@<TRIPOS>MOLECULE
/home/cewinharhar/GITHUB/reincatalyze/data/processed/docking_pred/2023-Apr-26-1657_maxeplen10_maxtrainstep1000_exh32_gamma099_lrac9e-4_lrcr1e-3/cb79d4b49cb2e7af28552c4e2a37cc688e9725fc_ligand_2.pdbqt
 12 12 0 0 0
SMALL
GASTEIGER

@<TRIPOS>ATOM
      1  C          8.4520   -0.6270   -2.1520 C.3     1  UNL1        0.1270
      2  C          8.4860   -1.9010   -2.9100 C.2     1  UNL1        0.3030
      3  O          9.5610   -2.5240   -3.0890 O.2     1  UNL1       -0.2520
      4  O          7.3260   -2.4400   -3.4440 O.3     1  UNL1       -0.4810
      5  H          7.0760   -3.4070   -3.2230 H       1  UNL1        0.2960
      6  C          7.0390   -0.1310   -2.1270 C.3     1  UNL1        0.0470
      7  C          6.4920    0.0370   -0.7820 C.2     1  UNL1       -0.0470
      8  C          6.6200   -0.9580    0.1590 C.2     1  UNL1        0.0040
      9  C          5.8450    1.2080   -0.4620 C.2     1  UNL1        0.0040
     10  C          6.0740   -0.7280    1.4240 C.2     1  UNL1        0.0000
     11  C          5.3050    1.4340    0.7890 C.2     1  UNL1        0.0000
     12  C          5.4290    0.4420    1.7370 C.2     1  UNL1        0.0000
@<TRIPOS>BOND
     1     4     5    1
     2     4     2    1
     3     3     2    2
     4     2     1    1
     5     1     6    1
     6     6     7    1
     7     7     9    2
     8     7     8    1
     9     9    11    1
    10     8    10    2
    11    11    12    2
    12    10    12    1
