@<TRIPOS>MOLECULE
/home/cewinharhar/GITHUB/reincatalyze/data/processed/docking_pred/2023-Apr-26-1657_maxeplen10_maxtrainstep1000_exh32_gamma099_lrac9e-4_lrcr1e-3/cc4a81c85f0f72a0e9860fd8246284f5ccc1e781_ligand_2.pdbqt
 12 12 0 0 0
SMALL
GASTEIGER

@<TRIPOS>ATOM
      1  C          8.4630   -0.6180   -2.1450 C.3     1  UNL1        0.1270
      2  C          8.4780   -1.8950   -2.8970 C.2     1  UNL1        0.3030
      3  O          9.5460   -2.5300   -3.0790 O.2     1  UNL1       -0.2520
      4  O          7.3100   -2.4230   -3.4230 O.3     1  UNL1       -0.4810
      5  H          6.5870   -1.7890   -3.7730 H       1  UNL1        0.2960
      6  C          7.0550   -0.1070   -2.1140 C.3     1  UNL1        0.0470
      7  C          6.5020    0.0300   -0.7670 C.2     1  UNL1       -0.0470
      8  C          6.6150   -0.9930    0.1460 C.2     1  UNL1        0.0040
      9  C          5.8650    1.1980   -0.4180 C.2     1  UNL1        0.0040
     10  C          6.0640   -0.7930    1.4140 C.2     1  UNL1        0.0000
     11  C          5.3210    1.3940    0.8360 C.2     1  UNL1        0.0000
     12  C          5.4290    0.3750    1.7560 C.2     1  UNL1        0.0000
@<TRIPOS>BOND
     1     5     4    1
     2     4     2    1
     3     3     2    2
     4     2     1    1
     5     1     6    1
     6     6     7    1
     7     7     9    2
     8     7     8    1
     9     9    11    1
    10     8    10    2
    11    11    12    2
    12    10    12    1
