@<TRIPOS>MOLECULE
/home/cewinharhar/GITHUB/reincatalyze/data/processed/docking_pred/2023-Apr-26-1657_maxeplen10_maxtrainstep1000_exh32_gamma099_lrac9e-4_lrcr1e-3/cc4a81c85f0f72a0e9860fd8246284f5ccc1e781_ligand_2.pdbqt
 12 12 0 0 0
SMALL
GASTEIGER

@<TRIPOS>ATOM
      1  C          8.4010   -0.6420   -2.0930 C.3     1  UNL1        0.1270
      2  C          8.3710   -1.8930   -2.8870 C.2     1  UNL1        0.3030
      3  O          7.2840   -2.4080   -3.2490 O.2     1  UNL1       -0.2520
      4  O          9.5450   -2.5300   -3.2520 O.3     1  UNL1       -0.4810
      5  H          9.5010   -3.4680   -3.6600 H       1  UNL1        0.2960
      6  C          7.0200   -0.0590   -2.0800 C.3     1  UNL1        0.0470
      7  C          6.4560    0.1040   -0.7410 C.2     1  UNL1       -0.0470
      8  C          5.8110    1.2660   -0.3870 C.2     1  UNL1        0.0040
      9  C          6.5750   -0.9220    0.1670 C.2     1  UNL1        0.0040
     10  C          5.2960    1.3530    0.9080 C.2     1  UNL1        0.0000
     11  C          6.0650   -0.8350    1.4470 C.2     1  UNL1        0.0000
     12  C          5.4180    0.3260    1.8110 C.2     1  UNL1        0.0000
@<TRIPOS>BOND
     1     5     4    1
     2     4     2    1
     3     3     2    2
     4     2     1    1
     5     1     6    1
     6     6     7    1
     7     7     8    2
     8     7     9    1
     9     8    10    1
    10     9    11    2
    11    10    12    2
    12    11    12    1
