MODEL 1
REMARK VINA RESULT:      -7.4      0.000      0.000
REMARK SMILES O=C(O)CCc1ccccc1
REMARK SMILES IDX 4 1 2 2 1 3 3 4 5 6 6 7 7 8 11 9 8 10 10 11 9 12
REMARK H PARENT 3 5
REMARK Flexibility Score: inf
ROOT
ATOM      1  C   UNL     1       8.463  -0.618  -2.145  1.00  0.00     0.127 C 
ENDROOT
BRANCH   1   2
ATOM      2  C   UNL     1       8.478  -1.895  -2.897  1.00  0.00     0.303 C 
ATOM      3  O   UNL     1       9.546  -2.530  -3.079  1.00  0.00    -0.252 OA
BRANCH   2   4
ATOM      4  O   UNL     1       7.310  -2.423  -3.423  1.00  0.00    -0.481 OA
ATOM      5  H   UNL     1       6.587  -1.789  -3.773  1.00  0.00     0.296 HD
ENDBRANCH   2   4
ENDBRANCH   1   2
BRANCH   1   6
ATOM      6  C   UNL     1       7.055  -0.107  -2.114  1.00  0.00     0.047 C 
BRANCH   6   7
ATOM      7  C   UNL     1       6.502   0.030  -0.767  1.00  0.00    -0.047 A 
ATOM      8  C   UNL     1       6.615  -0.993   0.146  1.00  0.00     0.004 A 
ATOM      9  C   UNL     1       5.865   1.198  -0.418  1.00  0.00     0.004 A 
ATOM     10  C   UNL     1       6.064  -0.793   1.414  1.00  0.00     0.000 A 
ATOM     11  C   UNL     1       5.321   1.394   0.836  1.00  0.00     0.000 A 
ATOM     12  C   UNL     1       5.429   0.375   1.756  1.00  0.00     0.000 A 
ENDBRANCH   6   7
ENDBRANCH   1   6
TORSDOF 4
ENDMDL
MODEL 2
REMARK VINA RESULT:      -7.3      0.106      1.731
REMARK SMILES O=C(O)CCc1ccccc1
REMARK SMILES IDX 4 1 2 2 1 3 3 4 5 6 6 7 7 8 11 9 8 10 10 11 9 12
REMARK H PARENT 3 5
REMARK Flexibility Score: inf
ROOT
ATOM      1  C   UNL     1       8.401  -0.642  -2.093  1.00  0.00     0.127 C 
ENDROOT
BRANCH   1   2
ATOM      2  C   UNL     1       8.371  -1.893  -2.887  1.00  0.00     0.303 C 
ATOM      3  O   UNL     1       7.284  -2.408  -3.249  1.00  0.00    -0.252 OA
BRANCH   2   4
ATOM      4  O   UNL     1       9.545  -2.530  -3.252  1.00  0.00    -0.481 OA
ATOM      5  H   UNL     1       9.501  -3.468  -3.660  1.00  0.00     0.296 HD
ENDBRANCH   2   4
ENDBRANCH   1   2
BRANCH   1   6
ATOM      6  C   UNL     1       7.020  -0.059  -2.080  1.00  0.00     0.047 C 
BRANCH   6   7
ATOM      7  C   UNL     1       6.456   0.104  -0.741  1.00  0.00    -0.047 A 
ATOM      8  C   UNL     1       5.811   1.266  -0.387  1.00  0.00     0.004 A 
ATOM      9  C   UNL     1       6.575  -0.922   0.167  1.00  0.00     0.004 A 
ATOM     10  C   UNL     1       5.296   1.353   0.908  1.00  0.00     0.000 A 
ATOM     11  C   UNL     1       6.065  -0.835   1.447  1.00  0.00     0.000 A 
ATOM     12  C   UNL     1       5.418   0.326   1.811  1.00  0.00     0.000 A 
ENDBRANCH   6   7
ENDBRANCH   1   6
TORSDOF 4
ENDMDL
MODEL 3
REMARK VINA RESULT:      -6.8      3.372      5.076
REMARK SMILES O=C(O)CCc1ccccc1
REMARK SMILES IDX 4 1 2 2 1 3 3 4 5 6 6 7 7 8 11 9 8 10 10 11 9 12
REMARK H PARENT 3 5
REMARK Flexibility Score: inf
ROOT
ATOM      1  C   UNL     1       5.006   1.767   0.704  1.00  0.00     0.127 C 
ENDROOT
BRANCH   1   2
ATOM      2  C   UNL     1       4.491   1.095   1.920  1.00  0.00     0.303 C 
ATOM      3  O   UNL     1       5.149   0.191   2.492  1.00  0.00    -0.252 OA
BRANCH   2   4
ATOM      4  O   UNL     1       3.264   1.447   2.460  1.00  0.00    -0.481 OA
ATOM      5  H   UNL     1       2.524   0.742   2.523  1.00  0.00     0.296 HD
ENDBRANCH   2   4
ENDBRANCH   1   2
BRANCH   1   6
ATOM      6  C   UNL     1       6.503   1.774   0.768  1.00  0.00     0.047 C 
BRANCH   6   7
ATOM      7  C   UNL     1       7.148   1.050  -0.326  1.00  0.00    -0.047 A 
ATOM      8  C   UNL     1       8.481   1.242  -0.606  1.00  0.00     0.004 A 
ATOM      9  C   UNL     1       6.406   0.167  -1.076  1.00  0.00     0.004 A 
ATOM     10  C   UNL     1       9.031   0.516  -1.665  1.00  0.00     0.000 A 
ATOM     11  C   UNL     1       6.952  -0.549  -2.122  1.00  0.00     0.000 A 
ATOM     12  C   UNL     1       8.286  -0.362  -2.411  1.00  0.00     0.000 A 
ENDBRANCH   6   7
ENDBRANCH   1   6
TORSDOF 4
ENDMDL
MODEL 4
REMARK VINA RESULT:      -6.6      1.929      2.304
REMARK SMILES O=C(O)CCc1ccccc1
REMARK SMILES IDX 4 1 2 2 1 3 3 4 5 6 6 7 7 8 11 9 8 10 10 11 9 12
REMARK H PARENT 3 5
REMARK Flexibility Score: inf
ROOT
ATOM      1  C   UNL     1       8.217   0.235  -2.189  1.00  0.00     0.127 C 
ENDROOT
BRANCH   1   2
ATOM      2  C   UNL     1       9.349   0.353  -1.240  1.00  0.00     0.303 C 
ATOM      3  O   UNL     1       9.447  -0.408  -0.246  1.00  0.00    -0.252 OA
BRANCH   2   4
ATOM      4  O   UNL     1      10.333   1.311  -1.425  1.00  0.00    -0.481 OA
ATOM      5  H   UNL     1      10.943   1.560  -0.641  1.00  0.00     0.296 HD
ENDBRANCH   2   4
ENDBRANCH   1   2
BRANCH   1   6
ATOM      6  C   UNL     1       7.116  -0.526  -1.516  1.00  0.00     0.047 C 
BRANCH   6   7
ATOM      7  C   UNL     1       6.337   0.269  -0.568  1.00  0.00    -0.047 A 
ATOM      8  C   UNL     1       6.109  -0.184   0.710  1.00  0.00     0.004 A 
ATOM      9  C   UNL     1       5.831   1.484  -0.969  1.00  0.00     0.004 A 
ATOM     10  C   UNL     1       5.357   0.628   1.562  1.00  0.00     0.000 A 
ATOM     11  C   UNL     1       5.087   2.286  -0.125  1.00  0.00     0.000 A 
ATOM     12  C   UNL     1       4.854   1.839   1.157  1.00  0.00     0.000 A 
ENDBRANCH   6   7
ENDBRANCH   1   6
TORSDOF 4
ENDMDL
MODEL 5
REMARK VINA RESULT:      -6.5      1.987      2.513
REMARK SMILES O=C(O)CCc1ccccc1
REMARK SMILES IDX 4 1 2 2 1 3 3 4 5 6 6 7 7 8 11 9 8 10 10 11 9 12
REMARK H PARENT 3 5
REMARK Flexibility Score: inf
ROOT
ATOM      1  C   UNL     1       8.187  -1.920   0.798  1.00  0.00     0.127 C 
ENDROOT
BRANCH   1   2
ATOM      2  C   UNL     1       8.760  -3.211   0.348  1.00  0.00     0.303 C 
ATOM      3  O   UNL     1       9.528  -3.875   1.088  1.00  0.00    -0.252 OA
BRANCH   2   4
ATOM      4  O   UNL     1       8.464  -3.721  -0.906  1.00  0.00    -0.481 OA
ATOM      5  H   UNL     1       8.842  -3.257  -1.737  1.00  0.00     0.296 HD
ENDBRANCH   2   4
ENDBRANCH   1   2
BRANCH   1   6
ATOM      6  C   UNL     1       7.322  -1.382  -0.300  1.00  0.00     0.047 C 
BRANCH   6   7
ATOM      7  C   UNL     1       6.478  -0.258   0.105  1.00  0.00    -0.047 A 
ATOM      8  C   UNL     1       5.925  -0.212   1.363  1.00  0.00     0.004 A 
ATOM      9  C   UNL     1       6.244   0.761  -0.789  1.00  0.00     0.004 A 
ATOM     10  C   UNL     1       5.131   0.892   1.682  1.00  0.00     0.000 A 
ATOM     11  C   UNL     1       5.458   1.851  -0.473  1.00  0.00     0.000 A 
ATOM     12  C   UNL     1       4.899   1.905   0.786  1.00  0.00     0.000 A 
ENDBRANCH   6   7
ENDBRANCH   1   6
TORSDOF 4
ENDMDL
