@<TRIPOS>MOLECULE
/home/cewinharhar/GITHUB/reincatalyze/data/processed/docking_pred/2023-Apr-26-1657_maxeplen10_maxtrainstep1000_exh32_gamma099_lrac9e-4_lrcr1e-3/cc4a81c85f0f72a0e9860fd8246284f5ccc1e781_ligand_2.pdbqt
 12 12 0 0 0
SMALL
GASTEIGER

@<TRIPOS>ATOM
      1  C          8.1870   -1.9200    0.7980 C.3     1  UNL1        0.1270
      2  C          8.7600   -3.2110    0.3480 C.2     1  UNL1        0.3030
      3  O          9.5280   -3.8750    1.0880 O.2     1  UNL1       -0.2520
      4  O          8.4640   -3.7210   -0.9060 O.3     1  UNL1       -0.4810
      5  H          8.8420   -3.2570   -1.7370 H       1  UNL1        0.2960
      6  C          7.3220   -1.3820   -0.3000 C.3     1  UNL1        0.0470
      7  C          6.4780   -0.2580    0.1050 C.2     1  UNL1       -0.0470
      8  C          5.9250   -0.2120    1.3630 C.2     1  UNL1        0.0040
      9  C          6.2440    0.7610   -0.7890 C.2     1  UNL1        0.0040
     10  C          5.1310    0.8920    1.6820 C.2     1  UNL1        0.0000
     11  C          5.4580    1.8510   -0.4730 C.2     1  UNL1        0.0000
     12  C          4.8990    1.9050    0.7860 C.2     1  UNL1        0.0000
@<TRIPOS>BOND
     1     5     4    1
     2     4     2    1
     3     9    11    1
     4     9     7    2
     5    11    12    2
     6     6     7    1
     7     6     1    1
     8     7     8    1
     9     2     1    1
    10     2     3    2
    11    12    10    1
    12     8    10    2
