@<TRIPOS>MOLECULE
/home/cewinharhar/GITHUB/reincatalyze/data/processed/docking_pred/2023-Apr-26-1657_maxeplen10_maxtrainstep1000_exh32_gamma099_lrac9e-4_lrcr1e-3/cc4a81c85f0f72a0e9860fd8246284f5ccc1e781_ligand_2.pdbqt
 12 12 0 0 0
SMALL
GASTEIGER

@<TRIPOS>ATOM
      1  C          8.2170    0.2350   -2.1890 C.3     1  UNL1        0.1270
      2  C          9.3490    0.3530   -1.2400 C.2     1  UNL1        0.3030
      3  O          9.4470   -0.4080   -0.2460 O.2     1  UNL1       -0.2520
      4  O         10.3330    1.3110   -1.4250 O.3     1  UNL1       -0.4810
      5  H         10.9430    1.5600   -0.6410 H       1  UNL1        0.2960
      6  C          7.1160   -0.5260   -1.5160 C.3     1  UNL1        0.0470
      7  C          6.3370    0.2690   -0.5680 C.2     1  UNL1       -0.0470
      8  C          6.1090   -0.1840    0.7100 C.2     1  UNL1        0.0040
      9  C          5.8310    1.4840   -0.9690 C.2     1  UNL1        0.0040
     10  C          5.3570    0.6280    1.5620 C.2     1  UNL1        0.0000
     11  C          5.0870    2.2860   -0.1250 C.2     1  UNL1        0.0000
     12  C          4.8540    1.8390    1.1570 C.2     1  UNL1        0.0000
@<TRIPOS>BOND
     1     1     6    1
     2     1     2    1
     3     6     7    1
     4     4     2    1
     5     4     5    1
     6     2     3    2
     7     9     7    2
     8     9    11    1
     9     7     8    1
    10    11    12    2
    11     8    10    2
    12    12    10    1
