@<TRIPOS>MOLECULE
/home/cewinharhar/GITHUB/reincatalyze/data/processed/docking_pred/2023-Apr-26-1657_maxeplen10_maxtrainstep1000_exh32_gamma099_lrac9e-4_lrcr1e-3/cc4a81c85f0f72a0e9860fd8246284f5ccc1e781_ligand_2.pdbqt
 12 12 0 0 0
SMALL
GASTEIGER

@<TRIPOS>ATOM
      1  C          5.0060    1.7670    0.7040 C.3     1  UNL1        0.1270
      2  C          4.4910    1.0950    1.9200 C.2     1  UNL1        0.3030
      3  O          5.1490    0.1910    2.4920 O.2     1  UNL1       -0.2520
      4  O          3.2640    1.4470    2.4600 O.3     1  UNL1       -0.4810
      5  H          2.5240    0.7420    2.5230 H       1  UNL1        0.2960
      6  C          6.5030    1.7740    0.7680 C.3     1  UNL1        0.0470
      7  C          7.1480    1.0500   -0.3260 C.2     1  UNL1       -0.0470
      8  C          8.4810    1.2420   -0.6060 C.2     1  UNL1        0.0040
      9  C          6.4060    0.1670   -1.0760 C.2     1  UNL1        0.0040
     10  C          9.0310    0.5160   -1.6650 C.2     1  UNL1        0.0000
     11  C          6.9520   -0.5490   -2.1220 C.2     1  UNL1        0.0000
     12  C          8.2860   -0.3620   -2.4110 C.2     1  UNL1        0.0000
@<TRIPOS>BOND
     1    12    11    2
     2    12    10    1
     3    11     9    1
     4    10     8    2
     5     9     7    2
     6     8     7    1
     7     7     6    1
     8     1     6    1
     9     1     2    1
    10     2     4    1
    11     2     3    2
    12     4     5    1
