@<TRIPOS>MOLECULE
/home/cewinharhar/GITHUB/reincatalyze/data/processed/docking_pred/2023-Apr-26-1657_maxeplen10_maxtrainstep1000_exh32_gamma099_lrac9e-4_lrcr1e-3/cdc825ac9d1cfd0e1f917a20457d8153cb4f8d56_ligand_2.pdbqt
 12 12 0 0 0
SMALL
GASTEIGER

@<TRIPOS>ATOM
      1  C          5.3940    2.8580    0.0160 C.3     1  UNL1        0.1270
      2  C          6.1720    3.8180    0.8340 C.2     1  UNL1        0.3030
      3  O          6.1250    3.7920    2.0890 O.2     1  UNL1       -0.2520
      4  O          6.9750    4.7750    0.2340 O.3     1  UNL1       -0.4810
      5  H          7.0300    4.8140   -0.7870 H       1  UNL1        0.2960
      6  C          4.8860    1.7750    0.9170 C.3     1  UNL1        0.0470
      7  C          5.7120    0.5700    0.9230 C.2     1  UNL1       -0.0470
      8  C          6.4350    0.2070   -0.1900 C.2     1  UNL1        0.0040
      9  C          5.7640   -0.2040    2.0600 C.2     1  UNL1        0.0040
     10  C          7.2030   -0.9570   -0.1130 C.2     1  UNL1        0.0000
     11  C          6.5240   -1.3540    2.1340 C.2     1  UNL1        0.0000
     12  C          7.2500   -1.7250    1.0230 C.2     1  UNL1        0.0000
@<TRIPOS>BOND
     1     5     4    1
     2     8    10    1
     3     8     7    2
     4    10    12    2
     5     1     2    1
     6     1     6    1
     7     4     2    1
     8     2     3    2
     9     6     7    1
    10     7     9    1
    11    12    11    1
    12     9    11    2
