@<TRIPOS>MOLECULE
/home/cewinharhar/GITHUB/reincatalyze/data/processed/docking_pred/2023-Apr-26-1657_maxeplen10_maxtrainstep1000_exh32_gamma099_lrac9e-4_lrcr1e-3/cdc825ac9d1cfd0e1f917a20457d8153cb4f8d56_ligand_2.pdbqt
 12 12 0 0 0
SMALL
GASTEIGER

@<TRIPOS>ATOM
      1  C          8.4350   -0.5440   -2.2430 C.3     1  UNL1        0.1270
      2  C          8.4950   -1.8510   -2.9400 C.2     1  UNL1        0.3030
      3  O          9.5850   -2.4550   -3.0970 O.2     1  UNL1       -0.2520
      4  O          7.3470   -2.4430   -3.4400 O.3     1  UNL1       -0.4810
      5  H          7.2950   -2.6750   -4.4350 H       1  UNL1        0.2960
      6  C          7.0040   -0.1030   -2.1940 C.3     1  UNL1        0.0470
      7  C          6.4800    0.0650   -0.8400 C.2     1  UNL1       -0.0470
      8  C          6.6250   -0.9290    0.0990 C.2     1  UNL1        0.0040
      9  C          5.8370    1.2360   -0.5100 C.2     1  UNL1        0.0040
     10  C          6.1000   -0.7000    1.3730 C.2     1  UNL1        0.0000
     11  C          5.3180    1.4610    0.7500 C.2     1  UNL1        0.0000
     12  C          5.4590    0.4690    1.6960 C.2     1  UNL1        0.0000
@<TRIPOS>BOND
     1     5     4    1
     2     4     2    1
     3     3     2    2
     4     2     1    1
     5     1     6    1
     6     6     7    1
     7     7     9    2
     8     7     8    1
     9     9    11    1
    10     8    10    2
    11    11    12    2
    12    10    12    1
