@<TRIPOS>MOLECULE
/home/cewinharhar/GITHUB/reincatalyze/data/processed/docking_pred/2023-Apr-26-1657_maxeplen10_maxtrainstep1000_exh32_gamma099_lrac9e-4_lrcr1e-3/cdc825ac9d1cfd0e1f917a20457d8153cb4f8d56_ligand_2.pdbqt
 12 12 0 0 0
SMALL
GASTEIGER

@<TRIPOS>ATOM
      1  C          8.3900   -0.6330   -2.1030 C.3     1  UNL1        0.1270
      2  C          8.3670   -1.8880   -2.8900 C.2     1  UNL1        0.3030
      3  O          7.2840   -2.4130   -3.2480 O.2     1  UNL1       -0.2520
      4  O          9.5460   -2.5200   -3.2520 O.3     1  UNL1       -0.4810
      5  H         10.3010   -2.6050   -2.5650 H       1  UNL1        0.2960
      6  C          7.0010   -0.0700   -2.0750 C.3     1  UNL1        0.0470
      7  C          6.4520    0.0900   -0.7300 C.2     1  UNL1       -0.0470
      8  C          5.8170    1.2540   -0.3640 C.2     1  UNL1        0.0040
      9  C          6.5750   -0.9400    0.1730 C.2     1  UNL1        0.0040
     10  C          5.3150    1.3380    0.9370 C.2     1  UNL1        0.0000
     11  C          6.0790   -0.8560    1.4590 C.2     1  UNL1        0.0000
     12  C          5.4420    0.3070    1.8340 C.2     1  UNL1        0.0000
@<TRIPOS>BOND
     1     4     2    1
     2     4     5    1
     3     3     2    2
     4     2     1    1
     5     1     6    1
     6     6     7    1
     7     7     8    2
     8     7     9    1
     9     8    10    1
    10     9    11    2
    11    10    12    2
    12    11    12    1
