@<TRIPOS>MOLECULE
/home/cewinharhar/GITHUB/reincatalyze/data/processed/docking_pred/2023-Apr-26-1657_maxeplen10_maxtrainstep1000_exh32_gamma099_lrac9e-4_lrcr1e-3/cdc825ac9d1cfd0e1f917a20457d8153cb4f8d56_ligand_2.pdbqt
 12 12 0 0 0
SMALL
GASTEIGER

@<TRIPOS>ATOM
      1  C          4.9960    1.7890    0.6980 C.3     1  UNL1        0.1270
      2  C          4.4790    1.1120    1.9110 C.2     1  UNL1        0.3030
      3  O          5.1340    0.2040    2.4790 O.2     1  UNL1       -0.2520
      4  O          3.2530    1.4650    2.4530 O.3     1  UNL1       -0.4810
      5  H          2.3990    1.0430    2.0780 H       1  UNL1        0.2960
      6  C          6.4930    1.7700    0.7510 C.3     1  UNL1        0.0470
      7  C          7.1170    1.0210   -0.3380 C.2     1  UNL1       -0.0470
      8  C          6.3910    0.1130   -1.0740 C.2     1  UNL1        0.0040
      9  C          8.4450    1.2340   -0.6250 C.2     1  UNL1        0.0040
     10  C          7.0510   -0.5660   -2.1000 C.2     1  UNL1        0.0000
     11  C          9.0960    0.5620   -1.6400 C.2     1  UNL1        0.0000
     12  C          8.3760   -0.3500   -2.3810 C.2     1  UNL1        0.0000
@<TRIPOS>BOND
     1    12    10    2
     2    12    11    1
     3    10     8    1
     4    11     9    2
     5     8     7    2
     6     9     7    1
     7     7     6    1
     8     1     6    1
     9     1     2    1
    10     2     4    1
    11     2     3    2
    12     5     4    1
