MODEL 1
REMARK VINA RESULT:      -7.3      0.000      0.000
REMARK SMILES O=C(O)CCc1ccccc1
REMARK SMILES IDX 4 1 2 2 1 3 3 4 5 6 6 7 7 8 11 9 8 10 10 11 9 12
REMARK H PARENT 3 5
REMARK Flexibility Score: inf
ROOT
ATOM      1  C   UNL     1       8.435  -0.544  -2.243  1.00  0.00     0.127 C 
ENDROOT
BRANCH   1   2
ATOM      2  C   UNL     1       8.495  -1.851  -2.940  1.00  0.00     0.303 C 
ATOM      3  O   UNL     1       9.585  -2.455  -3.097  1.00  0.00    -0.252 OA
BRANCH   2   4
ATOM      4  O   UNL     1       7.347  -2.443  -3.440  1.00  0.00    -0.481 OA
ATOM      5  H   UNL     1       7.295  -2.675  -4.435  1.00  0.00     0.296 HD
ENDBRANCH   2   4
ENDBRANCH   1   2
BRANCH   1   6
ATOM      6  C   UNL     1       7.004  -0.103  -2.194  1.00  0.00     0.047 C 
BRANCH   6   7
ATOM      7  C   UNL     1       6.480   0.065  -0.840  1.00  0.00    -0.047 A 
ATOM      8  C   UNL     1       6.625  -0.929   0.099  1.00  0.00     0.004 A 
ATOM      9  C   UNL     1       5.837   1.236  -0.510  1.00  0.00     0.004 A 
ATOM     10  C   UNL     1       6.100  -0.700   1.373  1.00  0.00     0.000 A 
ATOM     11  C   UNL     1       5.318   1.461   0.750  1.00  0.00     0.000 A 
ATOM     12  C   UNL     1       5.459   0.469   1.696  1.00  0.00     0.000 A 
ENDBRANCH   6   7
ENDBRANCH   1   6
TORSDOF 4
ENDMDL
MODEL 2
REMARK VINA RESULT:      -7.2      0.167      1.735
REMARK SMILES O=C(O)CCc1ccccc1
REMARK SMILES IDX 4 1 2 2 1 3 3 4 5 6 6 7 7 8 11 9 8 10 10 11 9 12
REMARK H PARENT 3 5
REMARK Flexibility Score: inf
ROOT
ATOM      1  C   UNL     1       8.390  -0.633  -2.103  1.00  0.00     0.127 C 
ENDROOT
BRANCH   1   2
ATOM      2  C   UNL     1       8.367  -1.888  -2.890  1.00  0.00     0.303 C 
ATOM      3  O   UNL     1       7.284  -2.413  -3.248  1.00  0.00    -0.252 OA
BRANCH   2   4
ATOM      4  O   UNL     1       9.546  -2.520  -3.252  1.00  0.00    -0.481 OA
ATOM      5  H   UNL     1      10.301  -2.605  -2.565  1.00  0.00     0.296 HD
ENDBRANCH   2   4
ENDBRANCH   1   2
BRANCH   1   6
ATOM      6  C   UNL     1       7.001  -0.070  -2.075  1.00  0.00     0.047 C 
BRANCH   6   7
ATOM      7  C   UNL     1       6.452   0.090  -0.730  1.00  0.00    -0.047 A 
ATOM      8  C   UNL     1       5.817   1.254  -0.364  1.00  0.00     0.004 A 
ATOM      9  C   UNL     1       6.575  -0.940   0.173  1.00  0.00     0.004 A 
ATOM     10  C   UNL     1       5.315   1.338   0.937  1.00  0.00     0.000 A 
ATOM     11  C   UNL     1       6.079  -0.856   1.459  1.00  0.00     0.000 A 
ATOM     12  C   UNL     1       5.442   0.307   1.834  1.00  0.00     0.000 A 
ENDBRANCH   6   7
ENDBRANCH   1   6
TORSDOF 4
ENDMDL
MODEL 3
REMARK VINA RESULT:      -6.8      0.979      1.575
REMARK SMILES O=C(O)CCc1ccccc1
REMARK SMILES IDX 4 1 2 2 1 3 3 4 5 6 6 7 7 8 11 9 8 10 10 11 9 12
REMARK H PARENT 3 5
REMARK Flexibility Score: inf
ROOT
ATOM      1  C   UNL     1       7.313  -1.377  -2.201  1.00  0.00     0.127 C 
ENDROOT
BRANCH   1   2
ATOM      2  C   UNL     1       8.759  -1.412  -2.521  1.00  0.00     0.303 C 
ATOM      3  O   UNL     1       9.256  -2.354  -3.188  1.00  0.00    -0.252 OA
BRANCH   2   4
ATOM      4  O   UNL     1       9.606  -0.404  -2.091  1.00  0.00    -0.481 OA
ATOM      5  H   UNL     1       9.242   0.547  -1.988  1.00  0.00     0.296 HD
ENDBRANCH   2   4
ENDBRANCH   1   2
BRANCH   1   6
ATOM      6  C   UNL     1       7.157  -1.480  -0.714  1.00  0.00     0.047 C 
BRANCH   6   7
ATOM      7  C   UNL     1       6.428  -0.363  -0.114  1.00  0.00    -0.047 A 
ATOM      8  C   UNL     1       5.987  -0.430   1.187  1.00  0.00     0.004 A 
ATOM      9  C   UNL     1       6.188   0.763  -0.867  1.00  0.00     0.004 A 
ATOM     10  C   UNL     1       5.299   0.675   1.695  1.00  0.00     0.000 A 
ATOM     11  C   UNL     1       5.507   1.854  -0.363  1.00  0.00     0.000 A 
ATOM     12  C   UNL     1       5.061   1.795   0.940  1.00  0.00     0.000 A 
ENDBRANCH   6   7
ENDBRANCH   1   6
TORSDOF 4
ENDMDL
MODEL 4
REMARK VINA RESULT:      -6.8      3.385      5.064
REMARK SMILES O=C(O)CCc1ccccc1
REMARK SMILES IDX 4 1 2 2 1 3 3 4 5 6 6 7 7 8 11 9 8 10 10 11 9 12
REMARK H PARENT 3 5
REMARK Flexibility Score: inf
ROOT
ATOM      1  C   UNL     1       4.996   1.789   0.698  1.00  0.00     0.127 C 
ENDROOT
BRANCH   1   2
ATOM      2  C   UNL     1       4.479   1.112   1.911  1.00  0.00     0.303 C 
ATOM      3  O   UNL     1       5.134   0.204   2.479  1.00  0.00    -0.252 OA
BRANCH   2   4
ATOM      4  O   UNL     1       3.253   1.465   2.453  1.00  0.00    -0.481 OA
ATOM      5  H   UNL     1       2.399   1.043   2.078  1.00  0.00     0.296 HD
ENDBRANCH   2   4
ENDBRANCH   1   2
BRANCH   1   6
ATOM      6  C   UNL     1       6.493   1.770   0.751  1.00  0.00     0.047 C 
BRANCH   6   7
ATOM      7  C   UNL     1       7.117   1.021  -0.338  1.00  0.00    -0.047 A 
ATOM      8  C   UNL     1       6.391   0.113  -1.074  1.00  0.00     0.004 A 
ATOM      9  C   UNL     1       8.445   1.234  -0.625  1.00  0.00     0.004 A 
ATOM     10  C   UNL     1       7.051  -0.566  -2.100  1.00  0.00     0.000 A 
ATOM     11  C   UNL     1       9.096   0.562  -1.640  1.00  0.00     0.000 A 
ATOM     12  C   UNL     1       8.376  -0.350  -2.381  1.00  0.00     0.000 A 
ENDBRANCH   6   7
ENDBRANCH   1   6
TORSDOF 4
ENDMDL
MODEL 5
REMARK VINA RESULT:      -6.6      3.828      5.012
REMARK SMILES O=C(O)CCc1ccccc1
REMARK SMILES IDX 4 1 2 2 1 3 3 4 5 6 6 7 7 8 11 9 8 10 10 11 9 12
REMARK H PARENT 3 5
REMARK Flexibility Score: inf
ROOT
ATOM      1  C   UNL     1       5.394   2.858   0.016  1.00  0.00     0.127 C 
ENDROOT
BRANCH   1   2
ATOM      2  C   UNL     1       6.172   3.818   0.834  1.00  0.00     0.303 C 
ATOM      3  O   UNL     1       6.125   3.792   2.089  1.00  0.00    -0.252 OA
BRANCH   2   4
ATOM      4  O   UNL     1       6.975   4.775   0.234  1.00  0.00    -0.481 OA
ATOM      5  H   UNL     1       7.030   4.814  -0.787  1.00  0.00     0.296 HD
ENDBRANCH   2   4
ENDBRANCH   1   2
BRANCH   1   6
ATOM      6  C   UNL     1       4.886   1.775   0.917  1.00  0.00     0.047 C 
BRANCH   6   7
ATOM      7  C   UNL     1       5.712   0.570   0.923  1.00  0.00    -0.047 A 
ATOM      8  C   UNL     1       6.435   0.207  -0.190  1.00  0.00     0.004 A 
ATOM      9  C   UNL     1       5.764  -0.204   2.060  1.00  0.00     0.004 A 
ATOM     10  C   UNL     1       7.203  -0.957  -0.113  1.00  0.00     0.000 A 
ATOM     11  C   UNL     1       6.524  -1.354   2.134  1.00  0.00     0.000 A 
ATOM     12  C   UNL     1       7.250  -1.725   1.023  1.00  0.00     0.000 A 
ENDBRANCH   6   7
ENDBRANCH   1   6
TORSDOF 4
ENDMDL
