@<TRIPOS>MOLECULE
/home/cewinharhar/GITHUB/reincatalyze/data/processed/docking_pred/2023-Apr-26-1657_maxeplen10_maxtrainstep1000_exh32_gamma099_lrac9e-4_lrcr1e-3/cdc825ac9d1cfd0e1f917a20457d8153cb4f8d56_ligand_2.pdbqt
 12 12 0 0 0
SMALL
GASTEIGER

@<TRIPOS>ATOM
      1  C          7.3130   -1.3770   -2.2010 C.3     1  UNL1        0.1270
      2  C          8.7590   -1.4120   -2.5210 C.2     1  UNL1        0.3030
      3  O          9.2560   -2.3540   -3.1880 O.2     1  UNL1       -0.2520
      4  O          9.6060   -0.4040   -2.0910 O.3     1  UNL1       -0.4810
      5  H          9.2420    0.5470   -1.9880 H       1  UNL1        0.2960
      6  C          7.1570   -1.4800   -0.7140 C.3     1  UNL1        0.0470
      7  C          6.4280   -0.3630   -0.1140 C.2     1  UNL1       -0.0470
      8  C          5.9870   -0.4300    1.1870 C.2     1  UNL1        0.0040
      9  C          6.1880    0.7630   -0.8670 C.2     1  UNL1        0.0040
     10  C          5.2990    0.6750    1.6950 C.2     1  UNL1        0.0000
     11  C          5.5070    1.8540   -0.3630 C.2     1  UNL1        0.0000
     12  C          5.0610    1.7950    0.9400 C.2     1  UNL1        0.0000
@<TRIPOS>BOND
     1     3     2    2
     2     2     1    1
     3     2     4    1
     4     1     6    1
     5     4     5    1
     6     9    11    1
     7     9     7    2
     8     6     7    1
     9    11    12    2
    10     7     8    1
    11    12    10    1
    12     8    10    2
