@<TRIPOS>MOLECULE
/home/cewinharhar/GITHUB/reincatalyze/data/processed/docking_pred/2023-Apr-26-1657_maxeplen10_maxtrainstep1000_exh32_gamma099_lrac9e-4_lrcr1e-3/cf36f354a35629e8f67fe5763b2daf9f978d0e2b_ligand_2.pdbqt
 12 12 0 0 0
SMALL
GASTEIGER

@<TRIPOS>ATOM
      1  C          8.2410   -0.9070   -1.8960 C.3     1  UNL1        0.1270
      2  C          8.4170   -2.0210   -2.8580 C.2     1  UNL1        0.3030
      3  O          9.5530   -2.5010   -3.0970 O.2     1  UNL1       -0.2520
      4  O          7.3290   -2.5640   -3.5220 O.3     1  UNL1       -0.4810
      5  H          6.5510   -2.9470   -2.9780 H       1  UNL1        0.2960
      6  C          7.3270   -1.3690   -0.8030 C.3     1  UNL1        0.0470
      7  C          6.5290   -0.3010   -0.2040 C.2     1  UNL1       -0.0470
      8  C          6.1920    0.8180   -0.9310 C.2     1  UNL1        0.0040
      9  C          6.1110   -0.4250    1.1010 C.2     1  UNL1        0.0040
     10  C          5.4270    1.7980   -0.2950 C.2     1  UNL1        0.0000
     11  C          5.3550    0.5450    1.7280 C.2     1  UNL1        0.0000
     12  C          5.0140    1.6690    1.0070 C.2     1  UNL1        0.0000
@<TRIPOS>BOND
     1     4     5    1
     2     4     2    1
     3     3     2    2
     4     2     1    1
     5     1     6    1
     6     8    10    1
     7     8     7    2
     8     6     7    1
     9    10    12    2
    10     7     9    1
    11    12    11    1
    12     9    11    2
