@<TRIPOS>MOLECULE
/home/cewinharhar/GITHUB/reincatalyze/data/processed/docking_pred/2023-Apr-26-1657_maxeplen10_maxtrainstep1000_exh32_gamma099_lrac9e-4_lrcr1e-3/cf36f354a35629e8f67fe5763b2daf9f978d0e2b_ligand_2.pdbqt
 12 12 0 0 0
SMALL
GASTEIGER

@<TRIPOS>ATOM
      1  C          8.3530    0.3360   -1.9920 C.3     1  UNL1        0.1270
      2  C          9.4980    0.3970   -1.0520 C.2     1  UNL1        0.3030
      3  O          9.5580   -0.3590   -0.0510 O.2     1  UNL1       -0.2520
      4  O         10.5360    1.2920   -1.2550 O.3     1  UNL1       -0.4810
      5  H         10.4340    2.0260   -1.9610 H       1  UNL1        0.2960
      6  C          7.2880   -0.5220   -1.3810 C.3     1  UNL1        0.0470
      7  C          6.4440    0.1770   -0.4130 C.2     1  UNL1       -0.0470
      8  C          6.2160   -0.3550    0.8350 C.2     1  UNL1        0.0040
      9  C          5.8770    1.3810   -0.7630 C.2     1  UNL1        0.0040
     10  C          5.4010    0.3680    1.7090 C.2     1  UNL1        0.0000
     11  C          5.0700    2.0940    0.1020 C.2     1  UNL1        0.0000
     12  C          4.8370    1.5680    1.3540 C.2     1  UNL1        0.0000
@<TRIPOS>BOND
     1     1     6    1
     2     1     2    1
     3     5     4    1
     4     6     7    1
     5     4     2    1
     6     2     3    2
     7     9     7    2
     8     9    11    1
     9     7     8    1
    10    11    12    2
    11     8    10    2
    12    12    10    1
