@<TRIPOS>MOLECULE
/home/cewinharhar/GITHUB/reincatalyze/data/processed/docking_pred/2023-Apr-26-1657_maxeplen10_maxtrainstep1000_exh32_gamma099_lrac9e-4_lrcr1e-3/cf36f354a35629e8f67fe5763b2daf9f978d0e2b_ligand_2.pdbqt
 12 12 0 0 0
SMALL
GASTEIGER

@<TRIPOS>ATOM
      1  C          8.4600   -0.6190   -2.1400 C.3     1  UNL1        0.1270
      2  C          8.4830   -1.9040   -2.8790 C.2     1  UNL1        0.3030
      3  O          9.5510   -2.5460   -3.0340 O.2     1  UNL1       -0.2520
      4  O          7.3230   -2.4320   -3.4200 O.3     1  UNL1       -0.4810
      5  H          6.5300   -2.6350   -2.8050 H       1  UNL1        0.2960
      6  C          7.0510   -0.1100   -2.1250 C.3     1  UNL1        0.0470
      7  C          6.4890    0.0440   -0.7850 C.2     1  UNL1       -0.0470
      8  C          6.6040   -0.9610    0.1460 C.2     1  UNL1        0.0040
      9  C          5.8410    1.2130   -0.4590 C.2     1  UNL1        0.0040
     10  C          6.0440   -0.7450    1.4070 C.2     1  UNL1        0.0000
     11  C          5.2880    1.4260    0.7880 C.2     1  UNL1        0.0000
     12  C          5.3980    0.4230    1.7260 C.2     1  UNL1        0.0000
@<TRIPOS>BOND
     1     4     2    1
     2     4     5    1
     3     3     2    2
     4     2     1    1
     5     1     6    1
     6     6     7    1
     7     7     9    2
     8     7     8    1
     9     9    11    1
    10     8    10    2
    11    11    12    2
    12    10    12    1
