@<TRIPOS>MOLECULE
/home/cewinharhar/GITHUB/reincatalyze/data/processed/docking_pred/2023-Apr-26-1657_maxeplen10_maxtrainstep1000_exh32_gamma099_lrac9e-4_lrcr1e-3/cf36f354a35629e8f67fe5763b2daf9f978d0e2b_ligand_2.pdbqt
 12 12 0 0 0
SMALL
GASTEIGER

@<TRIPOS>ATOM
      1  C          8.4050   -0.6920   -2.0330 C.3     1  UNL1        0.1270
      2  C          8.3730   -1.9200   -2.8610 C.2     1  UNL1        0.3030
      3  O          7.2860   -2.4100   -3.2570 O.2     1  UNL1       -0.2520
      4  O          9.5460   -2.5640   -3.2220 O.3     1  UNL1       -0.4810
      5  H         10.1180   -2.1760   -3.9770 H       1  UNL1        0.2960
      6  C          7.0370   -0.0820   -2.0430 C.3     1  UNL1        0.0470
      7  C          6.4560    0.0960   -0.7130 C.2     1  UNL1       -0.0470
      8  C          5.8020    1.2600   -0.3810 C.2     1  UNL1        0.0040
      9  C          6.5680   -0.9180    0.2100 C.2     1  UNL1        0.0040
     10  C          5.2710    1.3600    0.9070 C.2     1  UNL1        0.0000
     11  C          6.0430   -0.8170    1.4830 C.2     1  UNL1        0.0000
     12  C          5.3870    0.3460    1.8230 C.2     1  UNL1        0.0000
@<TRIPOS>BOND
     1     5     4    1
     2     3     2    2
     3     4     2    1
     4     2     1    1
     5     6     1    1
     6     6     7    1
     7     7     8    2
     8     7     9    1
     9     8    10    1
    10     9    11    2
    11    10    12    2
    12    11    12    1
