MODEL 1
REMARK VINA RESULT:      -7.3      0.000      0.000
REMARK SMILES O=C(O)CCc1ccccc1
REMARK SMILES IDX 4 1 2 2 1 3 3 4 5 6 6 7 7 8 11 9 8 10 10 11 9 12
REMARK H PARENT 3 5
REMARK Flexibility Score: inf
ROOT
ATOM      1  C   UNL     1       8.460  -0.619  -2.140  1.00  0.00     0.127 C 
ENDROOT
BRANCH   1   2
ATOM      2  C   UNL     1       8.483  -1.904  -2.879  1.00  0.00     0.303 C 
ATOM      3  O   UNL     1       9.551  -2.546  -3.034  1.00  0.00    -0.252 OA
BRANCH   2   4
ATOM      4  O   UNL     1       7.323  -2.432  -3.420  1.00  0.00    -0.481 OA
ATOM      5  H   UNL     1       6.530  -2.635  -2.805  1.00  0.00     0.296 HD
ENDBRANCH   2   4
ENDBRANCH   1   2
BRANCH   1   6
ATOM      6  C   UNL     1       7.051  -0.110  -2.125  1.00  0.00     0.047 C 
BRANCH   6   7
ATOM      7  C   UNL     1       6.489   0.044  -0.785  1.00  0.00    -0.047 A 
ATOM      8  C   UNL     1       6.604  -0.961   0.146  1.00  0.00     0.004 A 
ATOM      9  C   UNL     1       5.841   1.213  -0.459  1.00  0.00     0.004 A 
ATOM     10  C   UNL     1       6.044  -0.745   1.407  1.00  0.00     0.000 A 
ATOM     11  C   UNL     1       5.288   1.426   0.788  1.00  0.00     0.000 A 
ATOM     12  C   UNL     1       5.398   0.423   1.726  1.00  0.00     0.000 A 
ENDBRANCH   6   7
ENDBRANCH   1   6
TORSDOF 4
ENDMDL
MODEL 2
REMARK VINA RESULT:      -7.3      0.126      1.732
REMARK SMILES O=C(O)CCc1ccccc1
REMARK SMILES IDX 4 1 2 2 1 3 3 4 5 6 6 7 7 8 11 9 8 10 10 11 9 12
REMARK H PARENT 3 5
REMARK Flexibility Score: inf
ROOT
ATOM      1  C   UNL     1       8.405  -0.692  -2.033  1.00  0.00     0.127 C 
ENDROOT
BRANCH   1   2
ATOM      2  C   UNL     1       8.373  -1.920  -2.861  1.00  0.00     0.303 C 
ATOM      3  O   UNL     1       7.286  -2.410  -3.257  1.00  0.00    -0.252 OA
BRANCH   2   4
ATOM      4  O   UNL     1       9.546  -2.564  -3.222  1.00  0.00    -0.481 OA
ATOM      5  H   UNL     1      10.118  -2.176  -3.977  1.00  0.00     0.296 HD
ENDBRANCH   2   4
ENDBRANCH   1   2
BRANCH   1   6
ATOM      6  C   UNL     1       7.037  -0.082  -2.043  1.00  0.00     0.047 C 
BRANCH   6   7
ATOM      7  C   UNL     1       6.456   0.096  -0.713  1.00  0.00    -0.047 A 
ATOM      8  C   UNL     1       5.802   1.260  -0.381  1.00  0.00     0.004 A 
ATOM      9  C   UNL     1       6.568  -0.918   0.210  1.00  0.00     0.004 A 
ATOM     10  C   UNL     1       5.271   1.360   0.907  1.00  0.00     0.000 A 
ATOM     11  C   UNL     1       6.043  -0.817   1.483  1.00  0.00     0.000 A 
ATOM     12  C   UNL     1       5.387   0.346   1.823  1.00  0.00     0.000 A 
ENDBRANCH   6   7
ENDBRANCH   1   6
TORSDOF 4
ENDMDL
MODEL 3
REMARK VINA RESULT:      -7.2      0.623      1.579
REMARK SMILES O=C(O)CCc1ccccc1
REMARK SMILES IDX 4 1 2 2 1 3 3 4 5 6 6 7 7 8 11 9 8 10 10 11 9 12
REMARK H PARENT 3 5
REMARK Flexibility Score: inf
ROOT
ATOM      1  C   UNL     1       8.241  -0.907  -1.896  1.00  0.00     0.127 C 
ENDROOT
BRANCH   1   2
ATOM      2  C   UNL     1       8.417  -2.021  -2.858  1.00  0.00     0.303 C 
ATOM      3  O   UNL     1       9.553  -2.501  -3.097  1.00  0.00    -0.252 OA
BRANCH   2   4
ATOM      4  O   UNL     1       7.329  -2.564  -3.522  1.00  0.00    -0.481 OA
ATOM      5  H   UNL     1       6.551  -2.947  -2.978  1.00  0.00     0.296 HD
ENDBRANCH   2   4
ENDBRANCH   1   2
BRANCH   1   6
ATOM      6  C   UNL     1       7.327  -1.369  -0.803  1.00  0.00     0.047 C 
BRANCH   6   7
ATOM      7  C   UNL     1       6.529  -0.301  -0.204  1.00  0.00    -0.047 A 
ATOM      8  C   UNL     1       6.192   0.818  -0.931  1.00  0.00     0.004 A 
ATOM      9  C   UNL     1       6.111  -0.425   1.101  1.00  0.00     0.004 A 
ATOM     10  C   UNL     1       5.427   1.798  -0.295  1.00  0.00     0.000 A 
ATOM     11  C   UNL     1       5.355   0.545   1.728  1.00  0.00     0.000 A 
ATOM     12  C   UNL     1       5.014   1.669   1.007  1.00  0.00     0.000 A 
ENDBRANCH   6   7
ENDBRANCH   1   6
TORSDOF 4
ENDMDL
MODEL 4
REMARK VINA RESULT:      -6.7      3.373      5.057
REMARK SMILES O=C(O)CCc1ccccc1
REMARK SMILES IDX 4 1 2 2 1 3 3 4 5 6 6 7 7 8 11 9 8 10 10 11 9 12
REMARK H PARENT 3 5
REMARK Flexibility Score: inf
ROOT
ATOM      1  C   UNL     1       5.002   1.780   0.693  1.00  0.00     0.127 C 
ENDROOT
BRANCH   1   2
ATOM      2  C   UNL     1       4.482   1.110   1.909  1.00  0.00     0.303 C 
ATOM      3  O   UNL     1       5.134   0.202   2.481  1.00  0.00    -0.252 OA
BRANCH   2   4
ATOM      4  O   UNL     1       3.257   1.469   2.448  1.00  0.00    -0.481 OA
ATOM      5  H   UNL     1       2.997   2.459   2.485  1.00  0.00     0.296 HD
ENDBRANCH   2   4
ENDBRANCH   1   2
BRANCH   1   6
ATOM      6  C   UNL     1       6.499   1.758   0.748  1.00  0.00     0.047 C 
BRANCH   6   7
ATOM      7  C   UNL     1       7.123   1.005  -0.338  1.00  0.00    -0.047 A 
ATOM      8  C   UNL     1       6.400   0.085  -1.062  1.00  0.00     0.004 A 
ATOM      9  C   UNL     1       8.448   1.227  -0.635  1.00  0.00     0.004 A 
ATOM     10  C   UNL     1       7.061  -0.597  -2.086  1.00  0.00     0.000 A 
ATOM     11  C   UNL     1       9.099   0.551  -1.647  1.00  0.00     0.000 A 
ATOM     12  C   UNL     1       8.383  -0.372  -2.377  1.00  0.00     0.000 A 
ENDBRANCH   6   7
ENDBRANCH   1   6
TORSDOF 4
ENDMDL
MODEL 5
REMARK VINA RESULT:      -6.6      2.000      2.330
REMARK SMILES O=C(O)CCc1ccccc1
REMARK SMILES IDX 4 1 2 2 1 3 3 4 5 6 6 7 7 8 11 9 8 10 10 11 9 12
REMARK H PARENT 3 5
REMARK Flexibility Score: inf
ROOT
ATOM      1  C   UNL     1       8.353   0.336  -1.992  1.00  0.00     0.127 C 
ENDROOT
BRANCH   1   2
ATOM      2  C   UNL     1       9.498   0.397  -1.052  1.00  0.00     0.303 C 
ATOM      3  O   UNL     1       9.558  -0.359  -0.051  1.00  0.00    -0.252 OA
BRANCH   2   4
ATOM      4  O   UNL     1      10.536   1.292  -1.255  1.00  0.00    -0.481 OA
ATOM      5  H   UNL     1      10.434   2.026  -1.961  1.00  0.00     0.296 HD
ENDBRANCH   2   4
ENDBRANCH   1   2
BRANCH   1   6
ATOM      6  C   UNL     1       7.288  -0.522  -1.381  1.00  0.00     0.047 C 
BRANCH   6   7
ATOM      7  C   UNL     1       6.444   0.177  -0.413  1.00  0.00    -0.047 A 
ATOM      8  C   UNL     1       6.216  -0.355   0.835  1.00  0.00     0.004 A 
ATOM      9  C   UNL     1       5.877   1.381  -0.763  1.00  0.00     0.004 A 
ATOM     10  C   UNL     1       5.401   0.368   1.709  1.00  0.00     0.000 A 
ATOM     11  C   UNL     1       5.070   2.094   0.102  1.00  0.00     0.000 A 
ATOM     12  C   UNL     1       4.837   1.568   1.354  1.00  0.00     0.000 A 
ENDBRANCH   6   7
ENDBRANCH   1   6
TORSDOF 4
ENDMDL
