@<TRIPOS>MOLECULE
/home/cewinharhar/GITHUB/reincatalyze/data/processed/docking_pred/2023-Apr-26-1657_maxeplen10_maxtrainstep1000_exh32_gamma099_lrac9e-4_lrcr1e-3/cf36f354a35629e8f67fe5763b2daf9f978d0e2b_ligand_2.pdbqt
 12 12 0 0 0
SMALL
GASTEIGER

@<TRIPOS>ATOM
      1  C          5.0020    1.7800    0.6930 C.3     1  UNL1        0.1270
      2  C          4.4820    1.1100    1.9090 C.2     1  UNL1        0.3030
      3  O          5.1340    0.2020    2.4810 O.2     1  UNL1       -0.2520
      4  O          3.2570    1.4690    2.4480 O.3     1  UNL1       -0.4810
      5  H          2.9970    2.4590    2.4850 H       1  UNL1        0.2960
      6  C          6.4990    1.7580    0.7480 C.3     1  UNL1        0.0470
      7  C          7.1230    1.0050   -0.3380 C.2     1  UNL1       -0.0470
      8  C          6.4000    0.0850   -1.0620 C.2     1  UNL1        0.0040
      9  C          8.4480    1.2270   -0.6350 C.2     1  UNL1        0.0040
     10  C          7.0610   -0.5970   -2.0860 C.2     1  UNL1        0.0000
     11  C          9.0990    0.5510   -1.6470 C.2     1  UNL1        0.0000
     12  C          8.3830   -0.3720   -2.3770 C.2     1  UNL1        0.0000
@<TRIPOS>BOND
     1    12    10    2
     2    12    11    1
     3    10     8    1
     4    11     9    2
     5     8     7    2
     6     9     7    1
     7     7     6    1
     8     1     6    1
     9     1     2    1
    10     2     4    1
    11     2     3    2
    12     4     5    1
