MODEL 1
REMARK VINA RESULT:      -7.4      0.000      0.000
REMARK SMILES O=C(O)CCc1ccccc1
REMARK SMILES IDX 4 1 2 2 1 3 3 4 5 6 6 7 7 8 11 9 8 10 10 11 9 12
REMARK H PARENT 3 5
REMARK Flexibility Score: inf
ROOT
ATOM      1  C   UNL     1       8.473  -0.625  -2.139  1.00  0.00     0.127 C 
ENDROOT
BRANCH   1   2
ATOM      2  C   UNL     1       8.476  -1.896  -2.901  1.00  0.00     0.303 C 
ATOM      3  O   UNL     1       9.535  -2.546  -3.079  1.00  0.00    -0.252 OA
BRANCH   2   4
ATOM      4  O   UNL     1       7.304  -2.403  -3.440  1.00  0.00    -0.481 OA
ATOM      5  H   UNL     1       6.636  -2.880  -2.828  1.00  0.00     0.296 HD
ENDBRANCH   2   4
ENDBRANCH   1   2
BRANCH   1   6
ATOM      6  C   UNL     1       7.072  -0.094  -2.115  1.00  0.00     0.047 C 
BRANCH   6   7
ATOM      7  C   UNL     1       6.512   0.044  -0.772  1.00  0.00    -0.047 A 
ATOM      8  C   UNL     1       6.620  -0.976   0.144  1.00  0.00     0.004 A 
ATOM      9  C   UNL     1       5.872   1.213  -0.428  1.00  0.00     0.004 A 
ATOM     10  C   UNL     1       6.062  -0.774   1.409  1.00  0.00     0.000 A 
ATOM     11  C   UNL     1       5.321   1.411   0.822  1.00  0.00     0.000 A 
ATOM     12  C   UNL     1       5.424   0.393   1.745  1.00  0.00     0.000 A 
ENDBRANCH   6   7
ENDBRANCH   1   6
TORSDOF 4
ENDMDL
MODEL 2
REMARK VINA RESULT:      -7.3      0.092      1.439
REMARK SMILES O=C(O)CCc1ccccc1
REMARK SMILES IDX 4 1 2 2 1 3 3 4 5 6 6 7 7 8 11 9 8 10 10 11 9 12
REMARK H PARENT 3 5
REMARK Flexibility Score: inf
ROOT
ATOM      1  C   UNL     1       8.418  -0.552  -2.224  1.00  0.00     0.127 C 
ENDROOT
BRANCH   1   2
ATOM      2  C   UNL     1       8.470  -1.858  -2.922  1.00  0.00     0.303 C 
ATOM      3  O   UNL     1       9.555  -2.472  -3.072  1.00  0.00    -0.252 OA
BRANCH   2   4
ATOM      4  O   UNL     1       7.319  -2.437  -3.431  1.00  0.00    -0.481 OA
ATOM      5  H   UNL     1       6.781  -1.939  -4.145  1.00  0.00     0.296 HD
ENDBRANCH   2   4
ENDBRANCH   1   2
BRANCH   1   6
ATOM      6  C   UNL     1       6.988  -0.105  -2.166  1.00  0.00     0.047 C 
BRANCH   6   7
ATOM      7  C   UNL     1       6.473   0.065  -0.809  1.00  0.00    -0.047 A 
ATOM      8  C   UNL     1       5.865   1.239  -0.430  1.00  0.00     0.004 A 
ATOM      9  C   UNL     1       6.599  -0.968   0.092  1.00  0.00     0.004 A 
ATOM     10  C   UNL     1       5.395   1.331   0.882  1.00  0.00     0.000 A 
ATOM     11  C   UNL     1       6.134  -0.875   1.388  1.00  0.00     0.000 A 
ATOM     12  C   UNL     1       5.525   0.298   1.777  1.00  0.00     0.000 A 
ENDBRANCH   6   7
ENDBRANCH   1   6
TORSDOF 4
ENDMDL
MODEL 3
REMARK VINA RESULT:      -7.1      0.888      1.787
REMARK SMILES O=C(O)CCc1ccccc1
REMARK SMILES IDX 4 1 2 2 1 3 3 4 5 6 6 7 7 8 11 9 8 10 10 11 9 12
REMARK H PARENT 3 5
REMARK Flexibility Score: inf
ROOT
ATOM      1  C   UNL     1       7.313  -1.350  -2.124  1.00  0.00     0.127 C 
ENDROOT
BRANCH   1   2
ATOM      2  C   UNL     1       8.751  -1.408  -2.479  1.00  0.00     0.303 C 
ATOM      3  O   UNL     1       9.560  -0.543  -2.061  1.00  0.00    -0.252 OA
BRANCH   2   4
ATOM      4  O   UNL     1       9.242  -2.421  -3.286  1.00  0.00    -0.481 OA
ATOM      5  H   UNL     1      10.137  -2.860  -3.050  1.00  0.00     0.296 HD
ENDBRANCH   2   4
ENDBRANCH   1   2
BRANCH   1   6
ATOM      6  C   UNL     1       6.937   0.086  -1.916  1.00  0.00     0.047 C 
BRANCH   6   7
ATOM      7  C   UNL     1       6.302   0.353  -0.627  1.00  0.00    -0.047 A 
ATOM      8  C   UNL     1       5.595   1.515  -0.419  1.00  0.00     0.004 A 
ATOM      9  C   UNL     1       6.415  -0.574   0.383  1.00  0.00     0.004 A 
ATOM     10  C   UNL     1       5.014   1.704   0.837  1.00  0.00     0.000 A 
ATOM     11  C   UNL     1       5.840  -0.385   1.624  1.00  0.00     0.000 A 
ATOM     12  C   UNL     1       5.132   0.776   1.841  1.00  0.00     0.000 A 
ENDBRANCH   6   7
ENDBRANCH   1   6
TORSDOF 4
ENDMDL
MODEL 4
REMARK VINA RESULT:      -6.9      0.987      1.520
REMARK SMILES O=C(O)CCc1ccccc1
REMARK SMILES IDX 4 1 2 2 1 3 3 4 5 6 6 7 7 8 11 9 8 10 10 11 9 12
REMARK H PARENT 3 5
REMARK Flexibility Score: inf
ROOT
ATOM      1  C   UNL     1       7.619  -1.426  -2.063  1.00  0.00     0.127 C 
ENDROOT
BRANCH   1   2
ATOM      2  C   UNL     1       8.512  -2.547  -2.439  1.00  0.00     0.303 C 
ATOM      3  O   UNL     1       8.425  -3.665  -1.873  1.00  0.00    -0.252 OA
BRANCH   2   4
ATOM      4  O   UNL     1       9.470  -2.392  -3.428  1.00  0.00    -0.481 OA
ATOM      5  H   UNL     1       9.537  -1.499  -3.924  1.00  0.00     0.296 HD
ENDBRANCH   2   4
ENDBRANCH   1   2
BRANCH   1   6
ATOM      6  C   UNL     1       7.415  -1.463  -0.579  1.00  0.00     0.047 C 
BRANCH   6   7
ATOM      7  C   UNL     1       6.587  -0.374  -0.066  1.00  0.00    -0.047 A 
ATOM      8  C   UNL     1       6.133  -0.387   1.233  1.00  0.00     0.004 A 
ATOM      9  C   UNL     1       6.264   0.674  -0.897  1.00  0.00     0.004 A 
ATOM     10  C   UNL     1       5.348   0.687   1.656  1.00  0.00     0.000 A 
ATOM     11  C   UNL     1       5.486   1.735  -0.477  1.00  0.00     0.000 A 
ATOM     12  C   UNL     1       5.028   1.729   0.822  1.00  0.00     0.000 A 
ENDBRANCH   6   7
ENDBRANCH   1   6
TORSDOF 4
ENDMDL
MODEL 5
REMARK VINA RESULT:      -6.8      3.370      5.055
REMARK SMILES O=C(O)CCc1ccccc1
REMARK SMILES IDX 4 1 2 2 1 3 3 4 5 6 6 7 7 8 11 9 8 10 10 11 9 12
REMARK H PARENT 3 5
REMARK Flexibility Score: inf
ROOT
ATOM      1  C   UNL     1       5.013   1.782   0.722  1.00  0.00     0.127 C 
ENDROOT
BRANCH   1   2
ATOM      2  C   UNL     1       4.480   1.100   1.925  1.00  0.00     0.303 C 
ATOM      3  O   UNL     1       5.123   0.183   2.492  1.00  0.00    -0.252 OA
BRANCH   2   4
ATOM      4  O   UNL     1       3.252   1.458   2.459  1.00  0.00    -0.481 OA
ATOM      5  H   UNL     1       3.061   2.444   2.659  1.00  0.00     0.296 HD
ENDBRANCH   2   4
ENDBRANCH   1   2
BRANCH   1   6
ATOM      6  C   UNL     1       6.509   1.730   0.775  1.00  0.00     0.047 C 
BRANCH   6   7
ATOM      7  C   UNL     1       7.117   0.982  -0.324  1.00  0.00    -0.047 A 
ATOM      8  C   UNL     1       6.392   0.047  -1.024  1.00  0.00     0.004 A 
ATOM      9  C   UNL     1       8.430   1.225  -0.655  1.00  0.00     0.004 A 
ATOM     10  C   UNL     1       7.037  -0.629  -2.062  1.00  0.00     0.000 A 
ATOM     11  C   UNL     1       9.066   0.556  -1.682  1.00  0.00     0.000 A 
ATOM     12  C   UNL     1       8.347  -0.384  -2.388  1.00  0.00     0.000 A 
ENDBRANCH   6   7
ENDBRANCH   1   6
TORSDOF 4
ENDMDL
