@<TRIPOS>MOLECULE
/home/cewinharhar/GITHUB/reincatalyze/data/processed/docking_pred/2023-Apr-26-1657_maxeplen10_maxtrainstep1000_exh32_gamma099_lrac9e-4_lrcr1e-3/d0b377ce7413ba2d0a06352180e6db5bf746794c_ligand_2.pdbqt
 12 12 0 0 0
SMALL
GASTEIGER

@<TRIPOS>ATOM
      1  C          8.4180   -0.5520   -2.2240 C.3     1  UNL1        0.1270
      2  C          8.4700   -1.8580   -2.9220 C.2     1  UNL1        0.3030
      3  O          9.5550   -2.4720   -3.0720 O.2     1  UNL1       -0.2520
      4  O          7.3190   -2.4370   -3.4310 O.3     1  UNL1       -0.4810
      5  H          6.7810   -1.9390   -4.1450 H       1  UNL1        0.2960
      6  C          6.9880   -0.1050   -2.1660 C.3     1  UNL1        0.0470
      7  C          6.4730    0.0650   -0.8090 C.2     1  UNL1       -0.0470
      8  C          5.8650    1.2390   -0.4300 C.2     1  UNL1        0.0040
      9  C          6.5990   -0.9680    0.0920 C.2     1  UNL1        0.0040
     10  C          5.3950    1.3310    0.8820 C.2     1  UNL1        0.0000
     11  C          6.1340   -0.8750    1.3880 C.2     1  UNL1        0.0000
     12  C          5.5250    0.2980    1.7770 C.2     1  UNL1        0.0000
@<TRIPOS>BOND
     1     5     4    1
     2     4     2    1
     3     3     2    2
     4     2     1    1
     5     1     6    1
     6     6     7    1
     7     7     8    2
     8     7     9    1
     9     8    10    1
    10     9    11    2
    11    10    12    2
    12    11    12    1
