@<TRIPOS>MOLECULE
/home/cewinharhar/GITHUB/reincatalyze/data/processed/docking_pred/2023-Apr-26-1657_maxeplen10_maxtrainstep1000_exh32_gamma099_lrac9e-4_lrcr1e-3/d0b377ce7413ba2d0a06352180e6db5bf746794c_ligand_2.pdbqt
 12 12 0 0 0
SMALL
GASTEIGER

@<TRIPOS>ATOM
      1  C          8.4730   -0.6250   -2.1390 C.3     1  UNL1        0.1270
      2  C          8.4760   -1.8960   -2.9010 C.2     1  UNL1        0.3030
      3  O          9.5350   -2.5460   -3.0790 O.2     1  UNL1       -0.2520
      4  O          7.3040   -2.4030   -3.4400 O.3     1  UNL1       -0.4810
      5  H          6.6360   -2.8800   -2.8280 H       1  UNL1        0.2960
      6  C          7.0720   -0.0940   -2.1150 C.3     1  UNL1        0.0470
      7  C          6.5120    0.0440   -0.7720 C.2     1  UNL1       -0.0470
      8  C          6.6200   -0.9760    0.1440 C.2     1  UNL1        0.0040
      9  C          5.8720    1.2130   -0.4280 C.2     1  UNL1        0.0040
     10  C          6.0620   -0.7740    1.4090 C.2     1  UNL1        0.0000
     11  C          5.3210    1.4110    0.8220 C.2     1  UNL1        0.0000
     12  C          5.4240    0.3930    1.7450 C.2     1  UNL1        0.0000
@<TRIPOS>BOND
     1     4     2    1
     2     4     5    1
     3     3     2    2
     4     2     1    1
     5     1     6    1
     6     6     7    1
     7     7     9    2
     8     7     8    1
     9     9    11    1
    10     8    10    2
    11    11    12    2
    12    10    12    1
