@<TRIPOS>MOLECULE
/home/cewinharhar/GITHUB/reincatalyze/data/processed/docking_pred/2023-Apr-26-1657_maxeplen10_maxtrainstep1000_exh32_gamma099_lrac9e-4_lrcr1e-3/d0b377ce7413ba2d0a06352180e6db5bf746794c_ligand_2.pdbqt
 12 12 0 0 0
SMALL
GASTEIGER

@<TRIPOS>ATOM
      1  C          5.0130    1.7820    0.7220 C.3     1  UNL1        0.1270
      2  C          4.4800    1.1000    1.9250 C.2     1  UNL1        0.3030
      3  O          5.1230    0.1830    2.4920 O.2     1  UNL1       -0.2520
      4  O          3.2520    1.4580    2.4590 O.3     1  UNL1       -0.4810
      5  H          3.0610    2.4440    2.6590 H       1  UNL1        0.2960
      6  C          6.5090    1.7300    0.7750 C.3     1  UNL1        0.0470
      7  C          7.1170    0.9820   -0.3240 C.2     1  UNL1       -0.0470
      8  C          6.3920    0.0470   -1.0240 C.2     1  UNL1        0.0040
      9  C          8.4300    1.2250   -0.6550 C.2     1  UNL1        0.0040
     10  C          7.0370   -0.6290   -2.0620 C.2     1  UNL1        0.0000
     11  C          9.0660    0.5560   -1.6820 C.2     1  UNL1        0.0000
     12  C          8.3470   -0.3840   -2.3880 C.2     1  UNL1        0.0000
@<TRIPOS>BOND
     1    12    10    2
     2    12    11    1
     3    10     8    1
     4    11     9    2
     5     8     7    2
     6     9     7    1
     7     7     6    1
     8     1     6    1
     9     1     2    1
    10     2     4    1
    11     2     3    2
    12     4     5    1
