@<TRIPOS>MOLECULE
/home/cewinharhar/GITHUB/reincatalyze/data/processed/docking_pred/2023-Apr-26-1657_maxeplen10_maxtrainstep1000_exh32_gamma099_lrac9e-4_lrcr1e-3/d0b377ce7413ba2d0a06352180e6db5bf746794c_ligand_2.pdbqt
 12 12 0 0 0
SMALL
GASTEIGER

@<TRIPOS>ATOM
      1  C          7.6190   -1.4260   -2.0630 C.3     1  UNL1        0.1270
      2  C          8.5120   -2.5470   -2.4390 C.2     1  UNL1        0.3030
      3  O          8.4250   -3.6650   -1.8730 O.2     1  UNL1       -0.2520
      4  O          9.4700   -2.3920   -3.4280 O.3     1  UNL1       -0.4810
      5  H          9.5370   -1.4990   -3.9240 H       1  UNL1        0.2960
      6  C          7.4150   -1.4630   -0.5790 C.3     1  UNL1        0.0470
      7  C          6.5870   -0.3740   -0.0660 C.2     1  UNL1       -0.0470
      8  C          6.1330   -0.3870    1.2330 C.2     1  UNL1        0.0040
      9  C          6.2640    0.6740   -0.8970 C.2     1  UNL1        0.0040
     10  C          5.3480    0.6870    1.6560 C.2     1  UNL1        0.0000
     11  C          5.4860    1.7350   -0.4770 C.2     1  UNL1        0.0000
     12  C          5.0280    1.7290    0.8220 C.2     1  UNL1        0.0000
@<TRIPOS>BOND
     1     5     4    1
     2     4     2    1
     3     2     1    1
     4     2     3    2
     5     1     6    1
     6     9    11    1
     7     9     7    2
     8     6     7    1
     9    11    12    2
    10     7     8    1
    11    12    10    1
    12     8    10    2
