@<TRIPOS>MOLECULE
/home/cewinharhar/GITHUB/reincatalyze/data/processed/docking_pred/2023-Apr-26-1657_maxeplen10_maxtrainstep1000_exh32_gamma099_lrac9e-4_lrcr1e-3/d0b377ce7413ba2d0a06352180e6db5bf746794c_ligand_2.pdbqt
 12 12 0 0 0
SMALL
GASTEIGER

@<TRIPOS>ATOM
      1  C          7.3130   -1.3500   -2.1240 C.3     1  UNL1        0.1270
      2  C          8.7510   -1.4080   -2.4790 C.2     1  UNL1        0.3030
      3  O          9.5600   -0.5430   -2.0610 O.2     1  UNL1       -0.2520
      4  O          9.2420   -2.4210   -3.2860 O.3     1  UNL1       -0.4810
      5  H         10.1370   -2.8600   -3.0500 H       1  UNL1        0.2960
      6  C          6.9370    0.0860   -1.9160 C.3     1  UNL1        0.0470
      7  C          6.3020    0.3530   -0.6270 C.2     1  UNL1       -0.0470
      8  C          5.5950    1.5150   -0.4190 C.2     1  UNL1        0.0040
      9  C          6.4150   -0.5740    0.3830 C.2     1  UNL1        0.0040
     10  C          5.0140    1.7040    0.8370 C.2     1  UNL1        0.0000
     11  C          5.8400   -0.3850    1.6240 C.2     1  UNL1        0.0000
     12  C          5.1320    0.7760    1.8410 C.2     1  UNL1        0.0000
@<TRIPOS>BOND
     1     4     5    1
     2     4     2    1
     3     2     1    1
     4     2     3    2
     5     1     6    1
     6     6     7    1
     7     7     8    2
     8     7     9    1
     9     8    10    1
    10     9    11    2
    11    10    12    2
    12    11    12    1
