@<TRIPOS>MOLECULE
/home/cewinharhar/GITHUB/reincatalyze/data/processed/docking_pred/2023-Apr-26-1657_maxeplen10_maxtrainstep1000_exh32_gamma099_lrac9e-4_lrcr1e-3/d17de8b65df071edc80e577bc10846f04a34e0dd_ligand_2.pdbqt
 12 12 0 0 0
SMALL
GASTEIGER

@<TRIPOS>ATOM
      1  C          8.4330   -0.6150   -2.1420 C.3     1  UNL1        0.1270
      2  C          8.4730   -1.8890   -2.8980 C.2     1  UNL1        0.3030
      3  O          9.5560   -2.4930   -3.0980 O.2     1  UNL1       -0.2520
      4  O          7.3130   -2.4490   -3.4080 O.3     1  UNL1       -0.4810
      5  H          6.7960   -1.9530   -4.1390 H       1  UNL1        0.2960
      6  C          7.0150   -0.1320   -2.1090 C.3     1  UNL1        0.0470
      7  C          6.4730    0.0300   -0.7610 C.2     1  UNL1       -0.0470
      8  C          6.5950   -0.9740    0.1710 C.2     1  UNL1        0.0040
      9  C          5.8370    1.2040   -0.4300 C.2     1  UNL1        0.0040
     10  C          6.0540   -0.7500    1.4390 C.2     1  UNL1        0.0000
     11  C          5.3030    1.4240    0.8240 C.2     1  UNL1        0.0000
     12  C          5.4210    0.4220    1.7640 C.2     1  UNL1        0.0000
@<TRIPOS>BOND
     1     5     4    1
     2     4     2    1
     3     3     2    2
     4     2     1    1
     5     1     6    1
     6     6     7    1
     7     7     9    2
     8     7     8    1
     9     9    11    1
    10     8    10    2
    11    11    12    2
    12    10    12    1
