@<TRIPOS>MOLECULE
/home/cewinharhar/GITHUB/reincatalyze/data/processed/docking_pred/2023-Apr-26-1657_maxeplen10_maxtrainstep1000_exh32_gamma099_lrac9e-4_lrcr1e-3/d17de8b65df071edc80e577bc10846f04a34e0dd_ligand_2.pdbqt
 12 12 0 0 0
SMALL
GASTEIGER

@<TRIPOS>ATOM
      1  C          8.1970   -1.9280    0.7670 C.3     1  UNL1        0.1270
      2  C          8.7860   -3.2210    0.3450 C.2     1  UNL1        0.3030
      3  O          9.5790   -3.8490    1.0900 O.2     1  UNL1       -0.2520
      4  O          8.4780   -3.7730   -0.8870 O.3     1  UNL1       -0.4810
      5  H          9.1020   -3.6070   -1.6810 H       1  UNL1        0.2960
      6  C          7.3570   -1.4050   -0.3580 C.3     1  UNL1        0.0470
      7  C          6.5230   -0.2600    0.0060 C.2     1  UNL1       -0.0470
      8  C          6.2680    0.7410   -0.9030 C.2     1  UNL1        0.0040
      9  C          5.9900   -0.1930    1.2720 C.2     1  UNL1        0.0040
     10  C          5.4630    1.8040   -0.4870 C.2     1  UNL1        0.0000
     11  C          5.1950    0.8590    1.6810 C.2     1  UNL1        0.0000
     12  C          4.9350    1.8660    0.7780 C.2     1  UNL1        0.0000
@<TRIPOS>BOND
     1     5     4    1
     2     8    10    1
     3     8     7    2
     4     4     2    1
     5    10    12    2
     6     6     7    1
     7     6     1    1
     8     7     9    1
     9     2     1    1
    10     2     3    2
    11    12    11    1
    12     9    11    2
