@<TRIPOS>MOLECULE
/home/cewinharhar/GITHUB/reincatalyze/data/processed/docking_pred/2023-Apr-26-1657_maxeplen10_maxtrainstep1000_exh32_gamma099_lrac9e-4_lrcr1e-3/d17de8b65df071edc80e577bc10846f04a34e0dd_ligand_2.pdbqt
 12 12 0 0 0
SMALL
GASTEIGER

@<TRIPOS>ATOM
      1  C          4.9970    1.8100    0.6830 C.3     1  UNL1        0.1270
      2  C          4.4950    1.1280    1.8990 C.2     1  UNL1        0.3030
      3  O          5.1670    0.2300    2.4650 O.2     1  UNL1       -0.2520
      4  O          3.2670    1.4630    2.4460 O.3     1  UNL1       -0.4810
      5  H          3.0050    2.4500    2.5210 H       1  UNL1        0.2960
      6  C          6.4940    1.8140    0.7290 C.3     1  UNL1        0.0470
      7  C          7.1250    1.0580   -0.3510 C.2     1  UNL1       -0.0470
      8  C          6.3930    0.1800   -1.1160 C.2     1  UNL1        0.0040
      9  C          8.4660    1.2350   -0.6000 C.2     1  UNL1        0.0040
     10  C          7.0600   -0.5070   -2.1320 C.2     1  UNL1        0.0000
     11  C          9.1250    0.5540   -1.6050 C.2     1  UNL1        0.0000
     12  C          8.3980   -0.3280   -2.3750 C.2     1  UNL1        0.0000
@<TRIPOS>BOND
     1    12    10    2
     2    12    11    1
     3    10     8    1
     4    11     9    2
     5     8     7    2
     6     9     7    1
     7     7     6    1
     8     1     6    1
     9     1     2    1
    10     2     4    1
    11     2     3    2
    12     4     5    1
