@<TRIPOS>MOLECULE
/home/cewinharhar/GITHUB/reincatalyze/data/processed/docking_pred/2023-Apr-26-1657_maxeplen10_maxtrainstep1000_exh32_gamma099_lrac9e-4_lrcr1e-3/d17de8b65df071edc80e577bc10846f04a34e0dd_ligand_2.pdbqt
 12 12 0 0 0
SMALL
GASTEIGER

@<TRIPOS>ATOM
      1  C          8.4350   -0.5800   -2.1910 C.3     1  UNL1        0.1270
      2  C          8.4790   -1.8790   -2.9040 C.2     1  UNL1        0.3030
      3  O          9.5620   -2.4930   -3.0700 O.2     1  UNL1       -0.2520
      4  O          7.3230   -2.4510   -3.4080 O.3     1  UNL1       -0.4810
      5  H          7.0330   -2.2340   -4.3660 H       1  UNL1        0.2960
      6  C          7.0120   -0.1130   -2.1510 C.3     1  UNL1        0.0470
      7  C          6.4830    0.0660   -0.8000 C.2     1  UNL1       -0.0470
      8  C          5.8490    1.2330   -0.4430 C.2     1  UNL1        0.0040
      9  C          6.6230   -0.9500    0.1160 C.2     1  UNL1        0.0040
     10  C          5.3670    1.3350    0.8640 C.2     1  UNL1        0.0000
     11  C          6.1460   -0.8480    1.4080 C.2     1  UNL1        0.0000
     12  C          5.5100    0.3180    1.7750 C.2     1  UNL1        0.0000
@<TRIPOS>BOND
     1     5     4    1
     2     4     2    1
     3     3     2    2
     4     2     1    1
     5     1     6    1
     6     6     7    1
     7     7     8    2
     8     7     9    1
     9     8    10    1
    10     9    11    2
    11    10    12    2
    12    11    12    1
