@<TRIPOS>MOLECULE
/home/cewinharhar/GITHUB/reincatalyze/data/processed/docking_pred/2023-Apr-26-1657_maxeplen10_maxtrainstep1000_exh32_gamma099_lrac9e-4_lrcr1e-3/d17de8b65df071edc80e577bc10846f04a34e0dd_ligand_2.pdbqt
 12 12 0 0 0
SMALL
GASTEIGER

@<TRIPOS>ATOM
      1  C          8.1520   -0.8640   -1.9870 C.3     1  UNL1        0.1270
      2  C          8.3230   -2.0340   -2.8810 C.2     1  UNL1        0.3030
      3  O          9.4450   -2.5790   -3.0320 O.2     1  UNL1       -0.2520
      4  O          7.2470   -2.5590   -3.5770 O.3     1  UNL1       -0.4810
      5  H          6.6240   -3.2240   -3.1090 H       1  UNL1        0.2960
      6  C          7.4610   -1.3230   -0.7390 C.3     1  UNL1        0.0470
      7  C          6.5970   -0.3120   -0.1330 C.2     1  UNL1       -0.0470
      8  C          6.2150    0.8040   -0.8420 C.2     1  UNL1        0.0040
      9  C          6.1630   -0.4870    1.1610 C.2     1  UNL1        0.0040
     10  C          5.3870    1.7270   -0.2000 C.2     1  UNL1        0.0000
     11  C          5.3440    0.4270    1.7940 C.2     1  UNL1        0.0000
     12  C          4.9580    1.5470    1.0910 C.2     1  UNL1        0.0000
@<TRIPOS>BOND
     1     4     5    1
     2     4     2    1
     3     3     2    2
     4     2     1    1
     5     1     6    1
     6     8    10    1
     7     8     7    2
     8     6     7    1
     9    10    12    2
    10     7     9    1
    11    12    11    1
    12     9    11    2
