MODEL 1
REMARK VINA RESULT:      -7.4      0.000      0.000
REMARK SMILES O=C(O)CCc1ccccc1
REMARK SMILES IDX 4 1 2 2 1 3 3 4 5 6 6 7 7 8 11 9 8 10 10 11 9 12
REMARK H PARENT 3 5
REMARK Flexibility Score: inf
ROOT
ATOM      1  C   UNL     1       8.433  -0.615  -2.142  1.00  0.00     0.127 C 
ENDROOT
BRANCH   1   2
ATOM      2  C   UNL     1       8.473  -1.889  -2.898  1.00  0.00     0.303 C 
ATOM      3  O   UNL     1       9.556  -2.493  -3.098  1.00  0.00    -0.252 OA
BRANCH   2   4
ATOM      4  O   UNL     1       7.313  -2.449  -3.408  1.00  0.00    -0.481 OA
ATOM      5  H   UNL     1       6.796  -1.953  -4.139  1.00  0.00     0.296 HD
ENDBRANCH   2   4
ENDBRANCH   1   2
BRANCH   1   6
ATOM      6  C   UNL     1       7.015  -0.132  -2.109  1.00  0.00     0.047 C 
BRANCH   6   7
ATOM      7  C   UNL     1       6.473   0.030  -0.761  1.00  0.00    -0.047 A 
ATOM      8  C   UNL     1       6.595  -0.974   0.171  1.00  0.00     0.004 A 
ATOM      9  C   UNL     1       5.837   1.204  -0.430  1.00  0.00     0.004 A 
ATOM     10  C   UNL     1       6.054  -0.750   1.439  1.00  0.00     0.000 A 
ATOM     11  C   UNL     1       5.303   1.424   0.824  1.00  0.00     0.000 A 
ATOM     12  C   UNL     1       5.421   0.422   1.764  1.00  0.00     0.000 A 
ENDBRANCH   6   7
ENDBRANCH   1   6
TORSDOF 4
ENDMDL
MODEL 2
REMARK VINA RESULT:      -7.4      0.078      1.438
REMARK SMILES O=C(O)CCc1ccccc1
REMARK SMILES IDX 4 1 2 2 1 3 3 4 5 6 6 7 7 8 11 9 8 10 10 11 9 12
REMARK H PARENT 3 5
REMARK Flexibility Score: inf
ROOT
ATOM      1  C   UNL     1       8.435  -0.580  -2.191  1.00  0.00     0.127 C 
ENDROOT
BRANCH   1   2
ATOM      2  C   UNL     1       8.479  -1.879  -2.904  1.00  0.00     0.303 C 
ATOM      3  O   UNL     1       9.562  -2.493  -3.070  1.00  0.00    -0.252 OA
BRANCH   2   4
ATOM      4  O   UNL     1       7.323  -2.451  -3.408  1.00  0.00    -0.481 OA
ATOM      5  H   UNL     1       7.033  -2.234  -4.366  1.00  0.00     0.296 HD
ENDBRANCH   2   4
ENDBRANCH   1   2
BRANCH   1   6
ATOM      6  C   UNL     1       7.012  -0.113  -2.151  1.00  0.00     0.047 C 
BRANCH   6   7
ATOM      7  C   UNL     1       6.483   0.066  -0.800  1.00  0.00    -0.047 A 
ATOM      8  C   UNL     1       5.849   1.233  -0.443  1.00  0.00     0.004 A 
ATOM      9  C   UNL     1       6.623  -0.950   0.116  1.00  0.00     0.004 A 
ATOM     10  C   UNL     1       5.367   1.335   0.864  1.00  0.00     0.000 A 
ATOM     11  C   UNL     1       6.146  -0.848   1.408  1.00  0.00     0.000 A 
ATOM     12  C   UNL     1       5.510   0.318   1.775  1.00  0.00     0.000 A 
ENDBRANCH   6   7
ENDBRANCH   1   6
TORSDOF 4
ENDMDL
MODEL 3
REMARK VINA RESULT:      -7.2      0.605      1.574
REMARK SMILES O=C(O)CCc1ccccc1
REMARK SMILES IDX 4 1 2 2 1 3 3 4 5 6 6 7 7 8 11 9 8 10 10 11 9 12
REMARK H PARENT 3 5
REMARK Flexibility Score: inf
ROOT
ATOM      1  C   UNL     1       8.152  -0.864  -1.987  1.00  0.00     0.127 C 
ENDROOT
BRANCH   1   2
ATOM      2  C   UNL     1       8.323  -2.034  -2.881  1.00  0.00     0.303 C 
ATOM      3  O   UNL     1       9.445  -2.579  -3.032  1.00  0.00    -0.252 OA
BRANCH   2   4
ATOM      4  O   UNL     1       7.247  -2.559  -3.577  1.00  0.00    -0.481 OA
ATOM      5  H   UNL     1       6.624  -3.224  -3.109  1.00  0.00     0.296 HD
ENDBRANCH   2   4
ENDBRANCH   1   2
BRANCH   1   6
ATOM      6  C   UNL     1       7.461  -1.323  -0.739  1.00  0.00     0.047 C 
BRANCH   6   7
ATOM      7  C   UNL     1       6.597  -0.312  -0.133  1.00  0.00    -0.047 A 
ATOM      8  C   UNL     1       6.215   0.804  -0.842  1.00  0.00     0.004 A 
ATOM      9  C   UNL     1       6.163  -0.487   1.161  1.00  0.00     0.004 A 
ATOM     10  C   UNL     1       5.387   1.727  -0.200  1.00  0.00     0.000 A 
ATOM     11  C   UNL     1       5.344   0.427   1.794  1.00  0.00     0.000 A 
ATOM     12  C   UNL     1       4.958   1.547   1.091  1.00  0.00     0.000 A 
ENDBRANCH   6   7
ENDBRANCH   1   6
TORSDOF 4
ENDMDL
MODEL 4
REMARK VINA RESULT:      -6.8      3.372      5.068
REMARK SMILES O=C(O)CCc1ccccc1
REMARK SMILES IDX 4 1 2 2 1 3 3 4 5 6 6 7 7 8 11 9 8 10 10 11 9 12
REMARK H PARENT 3 5
REMARK Flexibility Score: inf
ROOT
ATOM      1  C   UNL     1       4.997   1.810   0.683  1.00  0.00     0.127 C 
ENDROOT
BRANCH   1   2
ATOM      2  C   UNL     1       4.495   1.128   1.899  1.00  0.00     0.303 C 
ATOM      3  O   UNL     1       5.167   0.230   2.465  1.00  0.00    -0.252 OA
BRANCH   2   4
ATOM      4  O   UNL     1       3.267   1.463   2.446  1.00  0.00    -0.481 OA
ATOM      5  H   UNL     1       3.005   2.450   2.521  1.00  0.00     0.296 HD
ENDBRANCH   2   4
ENDBRANCH   1   2
BRANCH   1   6
ATOM      6  C   UNL     1       6.494   1.814   0.729  1.00  0.00     0.047 C 
BRANCH   6   7
ATOM      7  C   UNL     1       7.125   1.058  -0.351  1.00  0.00    -0.047 A 
ATOM      8  C   UNL     1       6.393   0.180  -1.116  1.00  0.00     0.004 A 
ATOM      9  C   UNL     1       8.466   1.235  -0.600  1.00  0.00     0.004 A 
ATOM     10  C   UNL     1       7.060  -0.507  -2.132  1.00  0.00     0.000 A 
ATOM     11  C   UNL     1       9.125   0.554  -1.605  1.00  0.00     0.000 A 
ATOM     12  C   UNL     1       8.398  -0.328  -2.375  1.00  0.00     0.000 A 
ENDBRANCH   6   7
ENDBRANCH   1   6
TORSDOF 4
ENDMDL
MODEL 5
REMARK VINA RESULT:      -6.6      2.008      2.713
REMARK SMILES O=C(O)CCc1ccccc1
REMARK SMILES IDX 4 1 2 2 1 3 3 4 5 6 6 7 7 8 11 9 8 10 10 11 9 12
REMARK H PARENT 3 5
REMARK Flexibility Score: inf
ROOT
ATOM      1  C   UNL     1       8.197  -1.928   0.767  1.00  0.00     0.127 C 
ENDROOT
BRANCH   1   2
ATOM      2  C   UNL     1       8.786  -3.221   0.345  1.00  0.00     0.303 C 
ATOM      3  O   UNL     1       9.579  -3.849   1.090  1.00  0.00    -0.252 OA
BRANCH   2   4
ATOM      4  O   UNL     1       8.478  -3.773  -0.887  1.00  0.00    -0.481 OA
ATOM      5  H   UNL     1       9.102  -3.607  -1.681  1.00  0.00     0.296 HD
ENDBRANCH   2   4
ENDBRANCH   1   2
BRANCH   1   6
ATOM      6  C   UNL     1       7.357  -1.405  -0.358  1.00  0.00     0.047 C 
BRANCH   6   7
ATOM      7  C   UNL     1       6.523  -0.260   0.006  1.00  0.00    -0.047 A 
ATOM      8  C   UNL     1       6.268   0.741  -0.903  1.00  0.00     0.004 A 
ATOM      9  C   UNL     1       5.990  -0.193   1.272  1.00  0.00     0.004 A 
ATOM     10  C   UNL     1       5.463   1.804  -0.487  1.00  0.00     0.000 A 
ATOM     11  C   UNL     1       5.195   0.859   1.681  1.00  0.00     0.000 A 
ATOM     12  C   UNL     1       4.935   1.866   0.778  1.00  0.00     0.000 A 
ENDBRANCH   6   7
ENDBRANCH   1   6
TORSDOF 4
ENDMDL
