MODEL 1
REMARK VINA RESULT:      -7.3      0.000      0.000
REMARK SMILES O=C(O)CCc1ccccc1
REMARK SMILES IDX 4 1 2 2 1 3 3 4 5 6 6 7 7 8 11 9 8 10 10 11 9 12
REMARK H PARENT 3 5
REMARK Flexibility Score: inf
ROOT
ATOM      1  C   UNL     1       8.438  -0.569  -2.200  1.00  0.00     0.127 C 
ENDROOT
BRANCH   1   2
ATOM      2  C   UNL     1       8.483  -1.868  -2.913  1.00  0.00     0.303 C 
ATOM      3  O   UNL     1       9.566  -2.478  -3.088  1.00  0.00    -0.252 OA
BRANCH   2   4
ATOM      4  O   UNL     1       7.325  -2.446  -3.407  1.00  0.00    -0.481 OA
ATOM      5  H   UNL     1       7.299  -3.456  -3.571  1.00  0.00     0.296 HD
ENDBRANCH   2   4
ENDBRANCH   1   2
BRANCH   1   6
ATOM      6  C   UNL     1       7.014  -0.107  -2.152  1.00  0.00     0.047 C 
BRANCH   6   7
ATOM      7  C   UNL     1       6.479   0.032  -0.798  1.00  0.00    -0.047 A 
ATOM      8  C   UNL     1       6.598  -0.991   0.113  1.00  0.00     0.004 A 
ATOM      9  C   UNL     1       5.855   1.204  -0.441  1.00  0.00     0.004 A 
ATOM     10  C   UNL     1       6.065  -0.789   1.388  1.00  0.00     0.000 A 
ATOM     11  C   UNL     1       5.328   1.403   0.820  1.00  0.00     0.000 A 
ATOM     12  C   UNL     1       5.441   0.382   1.739  1.00  0.00     0.000 A 
ENDBRANCH   6   7
ENDBRANCH   1   6
TORSDOF 4
ENDMDL
MODEL 2
REMARK VINA RESULT:      -7.3      0.114      1.731
REMARK SMILES O=C(O)CCc1ccccc1
REMARK SMILES IDX 4 1 2 2 1 3 3 4 5 6 6 7 7 8 11 9 8 10 10 11 9 12
REMARK H PARENT 3 5
REMARK Flexibility Score: inf
ROOT
ATOM      1  C   UNL     1       8.409  -0.612  -2.122  1.00  0.00     0.127 C 
ENDROOT
BRANCH   1   2
ATOM      2  C   UNL     1       8.386  -1.881  -2.887  1.00  0.00     0.303 C 
ATOM      3  O   UNL     1       7.301  -2.416  -3.226  1.00  0.00    -0.252 OA
BRANCH   2   4
ATOM      4  O   UNL     1       9.564  -2.514  -3.249  1.00  0.00    -0.481 OA
ATOM      5  H   UNL     1      10.057  -2.210  -4.093  1.00  0.00     0.296 HD
ENDBRANCH   2   4
ENDBRANCH   1   2
BRANCH   1   6
ATOM      6  C   UNL     1       7.019  -0.054  -2.093  1.00  0.00     0.047 C 
BRANCH   6   7
ATOM      7  C   UNL     1       6.467   0.098  -0.748  1.00  0.00    -0.047 A 
ATOM      8  C   UNL     1       5.836   1.262  -0.374  1.00  0.00     0.004 A 
ATOM      9  C   UNL     1       6.584  -0.940   0.147  1.00  0.00     0.004 A 
ATOM     10  C   UNL     1       5.332   1.337   0.926  1.00  0.00     0.000 A 
ATOM     11  C   UNL     1       6.085  -0.865   1.432  1.00  0.00     0.000 A 
ATOM     12  C   UNL     1       5.452   0.298   1.815  1.00  0.00     0.000 A 
ENDBRANCH   6   7
ENDBRANCH   1   6
TORSDOF 4
ENDMDL
MODEL 3
REMARK VINA RESULT:      -6.8      3.365      5.063
REMARK SMILES O=C(O)CCc1ccccc1
REMARK SMILES IDX 4 1 2 2 1 3 3 4 5 6 6 7 7 8 11 9 8 10 10 11 9 12
REMARK H PARENT 3 5
REMARK Flexibility Score: inf
ROOT
ATOM      1  C   UNL     1       5.021   1.779   0.641  1.00  0.00     0.127 C 
ENDROOT
BRANCH   1   2
ATOM      2  C   UNL     1       4.525   1.134   1.880  1.00  0.00     0.303 C 
ATOM      3  O   UNL     1       5.204   0.262   2.477  1.00  0.00    -0.252 OA
BRANCH   2   4
ATOM      4  O   UNL     1       3.295   1.478   2.416  1.00  0.00    -0.481 OA
ATOM      5  H   UNL     1       3.181   2.392   2.864  1.00  0.00     0.296 HD
ENDBRANCH   2   4
ENDBRANCH   1   2
BRANCH   1   6
ATOM      6  C   UNL     1       6.518   1.806   0.692  1.00  0.00     0.047 C 
BRANCH   6   7
ATOM      7  C   UNL     1       7.163   1.044  -0.377  1.00  0.00    -0.047 A 
ATOM      8  C   UNL     1       8.500   1.212  -0.653  1.00  0.00     0.004 A 
ATOM      9  C   UNL     1       6.416   0.150  -1.109  1.00  0.00     0.004 A 
ATOM     10  C   UNL     1       9.049   0.451  -1.687  1.00  0.00     0.000 A 
ATOM     11  C   UNL     1       6.961  -0.602  -2.131  1.00  0.00     0.000 A 
ATOM     12  C   UNL     1       8.299  -0.438  -2.414  1.00  0.00     0.000 A 
ENDBRANCH   6   7
ENDBRANCH   1   6
TORSDOF 4
ENDMDL
MODEL 4
REMARK VINA RESULT:      -6.7      3.837      4.958
REMARK SMILES O=C(O)CCc1ccccc1
REMARK SMILES IDX 4 1 2 2 1 3 3 4 5 6 6 7 7 8 11 9 8 10 10 11 9 12
REMARK H PARENT 3 5
REMARK Flexibility Score: inf
ROOT
ATOM      1  C   UNL     1       5.516   2.915  -0.020  1.00  0.00     0.127 C 
ENDROOT
BRANCH   1   2
ATOM      2  C   UNL     1       6.307   3.847   0.818  1.00  0.00     0.303 C 
ATOM      3  O   UNL     1       6.978   4.775   0.302  1.00  0.00    -0.252 OA
BRANCH   2   4
ATOM      4  O   UNL     1       6.327   3.719   2.197  1.00  0.00    -0.481 OA
ATOM      5  H   UNL     1       5.916   2.887   2.629  1.00  0.00     0.296 HD
ENDBRANCH   2   4
ENDBRANCH   1   2
BRANCH   1   6
ATOM      6  C   UNL     1       4.938   1.857   0.870  1.00  0.00     0.047 C 
BRANCH   6   7
ATOM      7  C   UNL     1       5.717   0.621   0.908  1.00  0.00    -0.047 A 
ATOM      8  C   UNL     1       6.476   0.234  -0.172  1.00  0.00     0.004 A 
ATOM      9  C   UNL     1       5.686  -0.158   2.041  1.00  0.00     0.004 A 
ATOM     10  C   UNL     1       7.196  -0.958  -0.066  1.00  0.00     0.000 A 
ATOM     11  C   UNL     1       6.398  -1.337   2.145  1.00  0.00     0.000 A 
ATOM     12  C   UNL     1       7.160  -1.731   1.067  1.00  0.00     0.000 A 
ENDBRANCH   6   7
ENDBRANCH   1   6
TORSDOF 4
ENDMDL
MODEL 5
REMARK VINA RESULT:      -6.7      3.819      4.940
REMARK SMILES O=C(O)CCc1ccccc1
REMARK SMILES IDX 4 1 2 2 1 3 3 4 5 6 6 7 7 8 11 9 8 10 10 11 9 12
REMARK H PARENT 3 5
REMARK Flexibility Score: inf
ROOT
ATOM      1  C   UNL     1       5.406   2.902   0.030  1.00  0.00     0.127 C 
ENDROOT
BRANCH   1   2
ATOM      2  C   UNL     1       6.208   3.882   0.800  1.00  0.00     0.303 C 
ATOM      3  O   UNL     1       6.875   4.775   0.222  1.00  0.00    -0.252 OA
BRANCH   2   4
ATOM      4  O   UNL     1       6.244   3.838   2.185  1.00  0.00    -0.481 OA
ATOM      5  H   UNL     1       5.828   4.605   2.721  1.00  0.00     0.296 HD
ENDBRANCH   2   4
ENDBRANCH   1   2
BRANCH   1   6
ATOM      6  C   UNL     1       4.899   1.859   0.979  1.00  0.00     0.047 C 
BRANCH   6   7
ATOM      7  C   UNL     1       5.682   0.625   0.981  1.00  0.00    -0.047 A 
ATOM      8  C   UNL     1       5.782  -0.142   2.118  1.00  0.00     0.004 A 
ATOM      9  C   UNL     1       6.320   0.233  -0.173  1.00  0.00     0.004 A 
ATOM     10  C   UNL     1       6.546  -1.310   2.047  1.00  0.00     0.000 A 
ATOM     11  C   UNL     1       7.076  -0.921  -0.241  1.00  0.00     0.000 A 
ATOM     12  C   UNL     1       7.182  -1.695   0.894  1.00  0.00     0.000 A 
ENDBRANCH   6   7
ENDBRANCH   1   6
TORSDOF 4
ENDMDL
