@<TRIPOS>MOLECULE
/home/cewinharhar/GITHUB/reincatalyze/data/processed/docking_pred/2023-Apr-26-1657_maxeplen10_maxtrainstep1000_exh32_gamma099_lrac9e-4_lrcr1e-3/d18fc177cce43baae8a65556dd45e7572e61ad5e_ligand_2.pdbqt
 12 12 0 0 0
SMALL
GASTEIGER

@<TRIPOS>ATOM
      1  C          5.4060    2.9020    0.0300 C.3     1  UNL1        0.1270
      2  C          6.2080    3.8820    0.8000 C.2     1  UNL1        0.3030
      3  O          6.8750    4.7750    0.2220 O.2     1  UNL1       -0.2520
      4  O          6.2440    3.8380    2.1850 O.3     1  UNL1       -0.4810
      5  H          5.8280    4.6050    2.7210 H       1  UNL1        0.2960
      6  C          4.8990    1.8590    0.9790 C.3     1  UNL1        0.0470
      7  C          5.6820    0.6250    0.9810 C.2     1  UNL1       -0.0470
      8  C          5.7820   -0.1420    2.1180 C.2     1  UNL1        0.0040
      9  C          6.3200    0.2330   -0.1730 C.2     1  UNL1        0.0040
     10  C          6.5460   -1.3100    2.0470 C.2     1  UNL1        0.0000
     11  C          7.0760   -0.9210   -0.2410 C.2     1  UNL1        0.0000
     12  C          7.1820   -1.6950    0.8940 C.2     1  UNL1        0.0000
@<TRIPOS>BOND
     1    11     9    1
     2    11    12    2
     3     9     7    2
     4     1     2    1
     5     1     6    1
     6     3     2    2
     7     2     4    1
     8    12    10    1
     9     6     7    1
    10     7     8    1
    11    10     8    2
    12     4     5    1
