@<TRIPOS>MOLECULE
/home/cewinharhar/GITHUB/reincatalyze/data/processed/docking_pred/2023-Apr-26-1657_maxeplen10_maxtrainstep1000_exh32_gamma099_lrac9e-4_lrcr1e-3/d18fc177cce43baae8a65556dd45e7572e61ad5e_ligand_2.pdbqt
 12 12 0 0 0
SMALL
GASTEIGER

@<TRIPOS>ATOM
      1  C          8.4380   -0.5690   -2.2000 C.3     1  UNL1        0.1270
      2  C          8.4830   -1.8680   -2.9130 C.2     1  UNL1        0.3030
      3  O          9.5660   -2.4780   -3.0880 O.2     1  UNL1       -0.2520
      4  O          7.3250   -2.4460   -3.4070 O.3     1  UNL1       -0.4810
      5  H          7.2990   -3.4560   -3.5710 H       1  UNL1        0.2960
      6  C          7.0140   -0.1070   -2.1520 C.3     1  UNL1        0.0470
      7  C          6.4790    0.0320   -0.7980 C.2     1  UNL1       -0.0470
      8  C          6.5980   -0.9910    0.1130 C.2     1  UNL1        0.0040
      9  C          5.8550    1.2040   -0.4410 C.2     1  UNL1        0.0040
     10  C          6.0650   -0.7890    1.3880 C.2     1  UNL1        0.0000
     11  C          5.3280    1.4030    0.8200 C.2     1  UNL1        0.0000
     12  C          5.4410    0.3820    1.7390 C.2     1  UNL1        0.0000
@<TRIPOS>BOND
     1     5     4    1
     2     4     2    1
     3     3     2    2
     4     2     1    1
     5     1     6    1
     6     6     7    1
     7     7     9    2
     8     7     8    1
     9     9    11    1
    10     8    10    2
    11    11    12    2
    12    10    12    1
