@<TRIPOS>MOLECULE
/home/cewinharhar/GITHUB/reincatalyze/data/processed/docking_pred/2023-Apr-26-1657_maxeplen10_maxtrainstep1000_exh32_gamma099_lrac9e-4_lrcr1e-3/d18fc177cce43baae8a65556dd45e7572e61ad5e_ligand_2.pdbqt
 12 12 0 0 0
SMALL
GASTEIGER

@<TRIPOS>ATOM
      1  C          5.0210    1.7790    0.6410 C.3     1  UNL1        0.1270
      2  C          4.5250    1.1340    1.8800 C.2     1  UNL1        0.3030
      3  O          5.2040    0.2620    2.4770 O.2     1  UNL1       -0.2520
      4  O          3.2950    1.4780    2.4160 O.3     1  UNL1       -0.4810
      5  H          3.1810    2.3920    2.8640 H       1  UNL1        0.2960
      6  C          6.5180    1.8060    0.6920 C.3     1  UNL1        0.0470
      7  C          7.1630    1.0440   -0.3770 C.2     1  UNL1       -0.0470
      8  C          8.5000    1.2120   -0.6530 C.2     1  UNL1        0.0040
      9  C          6.4160    0.1500   -1.1090 C.2     1  UNL1        0.0040
     10  C          9.0490    0.4510   -1.6870 C.2     1  UNL1        0.0000
     11  C          6.9610   -0.6020   -2.1310 C.2     1  UNL1        0.0000
     12  C          8.2990   -0.4380   -2.4140 C.2     1  UNL1        0.0000
@<TRIPOS>BOND
     1    12    11    2
     2    12    10    1
     3    11     9    1
     4    10     8    2
     5     9     7    2
     6     8     7    1
     7     7     6    1
     8     1     6    1
     9     1     2    1
    10     2     4    1
    11     2     3    2
    12     4     5    1
