@<TRIPOS>MOLECULE
/home/cewinharhar/GITHUB/reincatalyze/data/processed/docking_pred/2023-Apr-26-1657_maxeplen10_maxtrainstep1000_exh32_gamma099_lrac9e-4_lrcr1e-3/d18fc177cce43baae8a65556dd45e7572e61ad5e_ligand_2.pdbqt
 12 12 0 0 0
SMALL
GASTEIGER

@<TRIPOS>ATOM
      1  C          5.5160    2.9150   -0.0200 C.3     1  UNL1        0.1270
      2  C          6.3070    3.8470    0.8180 C.2     1  UNL1        0.3030
      3  O          6.9780    4.7750    0.3020 O.2     1  UNL1       -0.2520
      4  O          6.3270    3.7190    2.1970 O.3     1  UNL1       -0.4810
      5  H          5.9160    2.8870    2.6290 H       1  UNL1        0.2960
      6  C          4.9380    1.8570    0.8700 C.3     1  UNL1        0.0470
      7  C          5.7170    0.6210    0.9080 C.2     1  UNL1       -0.0470
      8  C          6.4760    0.2340   -0.1720 C.2     1  UNL1        0.0040
      9  C          5.6860   -0.1580    2.0410 C.2     1  UNL1        0.0040
     10  C          7.1960   -0.9580   -0.0660 C.2     1  UNL1        0.0000
     11  C          6.3980   -1.3370    2.1450 C.2     1  UNL1        0.0000
     12  C          7.1600   -1.7310    1.0670 C.2     1  UNL1        0.0000
@<TRIPOS>BOND
     1     8    10    1
     2     8     7    2
     3    10    12    2
     4     1     2    1
     5     1     6    1
     6     3     2    2
     7     2     4    1
     8     6     7    1
     9     7     9    1
    10    12    11    1
    11     9    11    2
    12     4     5    1
