@<TRIPOS>MOLECULE
/home/cewinharhar/GITHUB/reincatalyze/data/processed/docking_pred/2023-Apr-26-1657_maxeplen10_maxtrainstep1000_exh32_gamma099_lrac9e-4_lrcr1e-3/d18fc177cce43baae8a65556dd45e7572e61ad5e_ligand_2.pdbqt
 12 12 0 0 0
SMALL
GASTEIGER

@<TRIPOS>ATOM
      1  C          8.4090   -0.6120   -2.1220 C.3     1  UNL1        0.1270
      2  C          8.3860   -1.8810   -2.8870 C.2     1  UNL1        0.3030
      3  O          7.3010   -2.4160   -3.2260 O.2     1  UNL1       -0.2520
      4  O          9.5640   -2.5140   -3.2490 O.3     1  UNL1       -0.4810
      5  H         10.0570   -2.2100   -4.0930 H       1  UNL1        0.2960
      6  C          7.0190   -0.0540   -2.0930 C.3     1  UNL1        0.0470
      7  C          6.4670    0.0980   -0.7480 C.2     1  UNL1       -0.0470
      8  C          5.8360    1.2620   -0.3740 C.2     1  UNL1        0.0040
      9  C          6.5840   -0.9400    0.1470 C.2     1  UNL1        0.0040
     10  C          5.3320    1.3370    0.9260 C.2     1  UNL1        0.0000
     11  C          6.0850   -0.8650    1.4320 C.2     1  UNL1        0.0000
     12  C          5.4520    0.2980    1.8150 C.2     1  UNL1        0.0000
@<TRIPOS>BOND
     1     5     4    1
     2     4     2    1
     3     3     2    2
     4     2     1    1
     5     1     6    1
     6     6     7    1
     7     7     8    2
     8     7     9    1
     9     8    10    1
    10     9    11    2
    11    10    12    2
    12    11    12    1
