MODEL 1
REMARK VINA RESULT:      -7.4      0.000      0.000
REMARK SMILES O=C(O)CCc1ccccc1
REMARK SMILES IDX 4 1 2 2 1 3 3 4 5 6 6 7 7 8 11 9 8 10 10 11 9 12
REMARK H PARENT 3 5
REMARK Flexibility Score: inf
ROOT
ATOM      1  C   UNL     1       8.439  -0.579  -2.209  1.00  0.00     0.127 C 
ENDROOT
BRANCH   1   2
ATOM      2  C   UNL     1       8.485  -1.880  -2.918  1.00  0.00     0.303 C 
ATOM      3  O   UNL     1       9.570  -2.488  -3.093  1.00  0.00    -0.252 OA
BRANCH   2   4
ATOM      4  O   UNL     1       7.327  -2.461  -3.410  1.00  0.00    -0.481 OA
ATOM      5  H   UNL     1       7.234  -3.481  -3.397  1.00  0.00     0.296 HD
ENDBRANCH   2   4
ENDBRANCH   1   2
BRANCH   1   6
ATOM      6  C   UNL     1       7.015  -0.117  -2.164  1.00  0.00     0.047 C 
BRANCH   6   7
ATOM      7  C   UNL     1       6.485   0.044  -0.811  1.00  0.00    -0.047 A 
ATOM      8  C   UNL     1       6.617  -0.959   0.121  1.00  0.00     0.004 A 
ATOM      9  C   UNL     1       5.852   1.218  -0.474  1.00  0.00     0.004 A 
ATOM     10  C   UNL     1       6.088  -0.736   1.394  1.00  0.00     0.000 A 
ATOM     11  C   UNL     1       5.329   1.437   0.786  1.00  0.00     0.000 A 
ATOM     12  C   UNL     1       5.456   0.437   1.724  1.00  0.00     0.000 A 
ENDBRANCH   6   7
ENDBRANCH   1   6
TORSDOF 4
ENDMDL
MODEL 2
REMARK VINA RESULT:      -7.3      0.088      1.439
REMARK SMILES O=C(O)CCc1ccccc1
REMARK SMILES IDX 4 1 2 2 1 3 3 4 5 6 6 7 7 8 11 9 8 10 10 11 9 12
REMARK H PARENT 3 5
REMARK Flexibility Score: inf
ROOT
ATOM      1  C   UNL     1       8.431  -0.607  -2.151  1.00  0.00     0.127 C 
ENDROOT
BRANCH   1   2
ATOM      2  C   UNL     1       8.471  -1.884  -2.902  1.00  0.00     0.303 C 
ATOM      3  O   UNL     1       9.552  -2.498  -3.085  1.00  0.00    -0.252 OA
BRANCH   2   4
ATOM      4  O   UNL     1       7.314  -2.437  -3.426  1.00  0.00    -0.481 OA
ATOM      5  H   UNL     1       7.386  -3.174  -4.132  1.00  0.00     0.296 HD
ENDBRANCH   2   4
ENDBRANCH   1   2
BRANCH   1   6
ATOM      6  C   UNL     1       7.013  -0.125  -2.119  1.00  0.00     0.047 C 
BRANCH   6   7
ATOM      7  C   UNL     1       6.475   0.052  -0.772  1.00  0.00    -0.047 A 
ATOM      8  C   UNL     1       5.840   1.219  -0.415  1.00  0.00     0.004 A 
ATOM      9  C   UNL     1       6.607  -0.967   0.143  1.00  0.00     0.004 A 
ATOM     10  C   UNL     1       5.350   1.318   0.889  1.00  0.00     0.000 A 
ATOM     11  C   UNL     1       6.122  -0.868   1.432  1.00  0.00     0.000 A 
ATOM     12  C   UNL     1       5.486   0.298   1.797  1.00  0.00     0.000 A 
ENDBRANCH   6   7
ENDBRANCH   1   6
TORSDOF 4
ENDMDL
MODEL 3
REMARK VINA RESULT:      -7.1      0.660      1.477
REMARK SMILES O=C(O)CCc1ccccc1
REMARK SMILES IDX 4 1 2 2 1 3 3 4 5 6 6 7 7 8 11 9 8 10 10 11 9 12
REMARK H PARENT 3 5
REMARK Flexibility Score: inf
ROOT
ATOM      1  C   UNL     1       8.296  -0.979  -1.744  1.00  0.00     0.127 C 
ENDROOT
BRANCH   1   2
ATOM      2  C   UNL     1       8.335  -2.004  -2.814  1.00  0.00     0.303 C 
ATOM      3  O   UNL     1       7.278  -2.444  -3.332  1.00  0.00    -0.252 OA
BRANCH   2   4
ATOM      4  O   UNL     1       9.542  -2.505  -3.274  1.00  0.00    -0.481 OA
ATOM      5  H   UNL     1      10.256  -1.856  -3.615  1.00  0.00     0.296 HD
ENDBRANCH   2   4
ENDBRANCH   1   2
BRANCH   1   6
ATOM      6  C   UNL     1       7.346  -1.443  -0.683  1.00  0.00     0.047 C 
BRANCH   6   7
ATOM      7  C   UNL     1       6.538  -0.373  -0.099  1.00  0.00    -0.047 A 
ATOM      8  C   UNL     1       6.081  -0.462   1.195  1.00  0.00     0.004 A 
ATOM      9  C   UNL     1       6.239   0.734  -0.861  1.00  0.00     0.004 A 
ATOM     10  C   UNL     1       5.316   0.598   1.687  1.00  0.00     0.000 A 
ATOM     11  C   UNL     1       5.483   1.780  -0.373  1.00  0.00     0.000 A 
ATOM     12  C   UNL     1       5.020   1.698   0.923  1.00  0.00     0.000 A 
ENDBRANCH   6   7
ENDBRANCH   1   6
TORSDOF 4
ENDMDL
MODEL 4
REMARK VINA RESULT:      -6.8      3.368      5.067
REMARK SMILES O=C(O)CCc1ccccc1
REMARK SMILES IDX 4 1 2 2 1 3 3 4 5 6 6 7 7 8 11 9 8 10 10 11 9 12
REMARK H PARENT 3 5
REMARK Flexibility Score: inf
ROOT
ATOM      1  C   UNL     1       4.994   1.705   0.656  1.00  0.00     0.127 C 
ENDROOT
BRANCH   1   2
ATOM      2  C   UNL     1       4.498   1.075   1.903  1.00  0.00     0.303 C 
ATOM      3  O   UNL     1       5.166   0.192   2.496  1.00  0.00    -0.252 OA
BRANCH   2   4
ATOM      4  O   UNL     1       3.279   1.445   2.449  1.00  0.00    -0.481 OA
ATOM      5  H   UNL     1       2.617   0.718   2.734  1.00  0.00     0.296 HD
ENDBRANCH   2   4
ENDBRANCH   1   2
BRANCH   1   6
ATOM      6  C   UNL     1       6.491   1.753   0.716  1.00  0.00     0.047 C 
BRANCH   6   7
ATOM      7  C   UNL     1       7.152   1.011  -0.355  1.00  0.00    -0.047 A 
ATOM      8  C   UNL     1       8.481   1.222  -0.640  1.00  0.00     0.004 A 
ATOM      9  C   UNL     1       6.431   0.090  -1.079  1.00  0.00     0.004 A 
ATOM     10  C   UNL     1       9.049   0.477  -1.676  1.00  0.00     0.000 A 
ATOM     11  C   UNL     1       6.993  -0.646  -2.103  1.00  0.00     0.000 A 
ATOM     12  C   UNL     1       8.324  -0.439  -2.396  1.00  0.00     0.000 A 
ENDBRANCH   6   7
ENDBRANCH   1   6
TORSDOF 4
ENDMDL
MODEL 5
REMARK VINA RESULT:      -6.7      1.938      2.618
REMARK SMILES O=C(O)CCc1ccccc1
REMARK SMILES IDX 4 1 2 2 1 3 3 4 5 6 6 7 7 8 11 9 8 10 10 11 9 12
REMARK H PARENT 3 5
REMARK Flexibility Score: inf
ROOT
ATOM      1  C   UNL     1       8.163   0.252  -2.074  1.00  0.00     0.127 C 
ENDROOT
BRANCH   1   2
ATOM      2  C   UNL     1       9.335   0.340  -1.172  1.00  0.00     0.303 C 
ATOM      3  O   UNL     1       9.450  -0.419  -0.178  1.00  0.00    -0.252 OA
BRANCH   2   4
ATOM      4  O   UNL     1      10.340   1.266  -1.402  1.00  0.00    -0.481 OA
ATOM      5  H   UNL     1      10.725   1.363  -2.346  1.00  0.00     0.296 HD
ENDBRANCH   2   4
ENDBRANCH   1   2
BRANCH   1   6
ATOM      6  C   UNL     1       7.112  -0.579  -1.401  1.00  0.00     0.047 C 
BRANCH   6   7
ATOM      7  C   UNL     1       6.327   0.149  -0.406  1.00  0.00    -0.047 A 
ATOM      8  C   UNL     1       5.789   1.381  -0.698  1.00  0.00     0.004 A 
ATOM      9  C   UNL     1       6.127  -0.413   0.834  1.00  0.00     0.004 A 
ATOM     10  C   UNL     1       5.049   2.018   0.301  1.00  0.00     0.000 A 
ATOM     11  C   UNL     1       5.396   0.218   1.820  1.00  0.00     0.000 A 
ATOM     12  C   UNL     1       4.854   1.453   1.536  1.00  0.00     0.000 A 
ENDBRANCH   6   7
ENDBRANCH   1   6
TORSDOF 4
ENDMDL
