@<TRIPOS>MOLECULE
/home/cewinharhar/GITHUB/reincatalyze/data/processed/docking_pred/2023-Apr-26-1657_maxeplen10_maxtrainstep1000_exh32_gamma099_lrac9e-4_lrcr1e-3/d27e6afc186b75c76b7fe435f4b9560b42cd14a2_ligand_2.pdbqt
 12 12 0 0 0
SMALL
GASTEIGER

@<TRIPOS>ATOM
      1  C          8.2960   -0.9790   -1.7440 C.3     1  UNL1        0.1270
      2  C          8.3350   -2.0040   -2.8140 C.2     1  UNL1        0.3030
      3  O          7.2780   -2.4440   -3.3320 O.2     1  UNL1       -0.2520
      4  O          9.5420   -2.5050   -3.2740 O.3     1  UNL1       -0.4810
      5  H         10.2560   -1.8560   -3.6150 H       1  UNL1        0.2960
      6  C          7.3460   -1.4430   -0.6830 C.3     1  UNL1        0.0470
      7  C          6.5380   -0.3730   -0.0990 C.2     1  UNL1       -0.0470
      8  C          6.0810   -0.4620    1.1950 C.2     1  UNL1        0.0040
      9  C          6.2390    0.7340   -0.8610 C.2     1  UNL1        0.0040
     10  C          5.3160    0.5980    1.6870 C.2     1  UNL1        0.0000
     11  C          5.4830    1.7800   -0.3730 C.2     1  UNL1        0.0000
     12  C          5.0200    1.6980    0.9230 C.2     1  UNL1        0.0000
@<TRIPOS>BOND
     1     5     4    1
     2     3     2    2
     3     4     2    1
     4     2     1    1
     5     1     6    1
     6     9    11    1
     7     9     7    2
     8     6     7    1
     9    11    12    2
    10     7     8    1
    11    12    10    1
    12     8    10    2
