@<TRIPOS>MOLECULE
/home/cewinharhar/GITHUB/reincatalyze/data/processed/docking_pred/2023-Apr-26-1657_maxeplen10_maxtrainstep1000_exh32_gamma099_lrac9e-4_lrcr1e-3/d27e6afc186b75c76b7fe435f4b9560b42cd14a2_ligand_2.pdbqt
 12 12 0 0 0
SMALL
GASTEIGER

@<TRIPOS>ATOM
      1  C          4.9940    1.7050    0.6560 C.3     1  UNL1        0.1270
      2  C          4.4980    1.0750    1.9030 C.2     1  UNL1        0.3030
      3  O          5.1660    0.1920    2.4960 O.2     1  UNL1       -0.2520
      4  O          3.2790    1.4450    2.4490 O.3     1  UNL1       -0.4810
      5  H          2.6170    0.7180    2.7340 H       1  UNL1        0.2960
      6  C          6.4910    1.7530    0.7160 C.3     1  UNL1        0.0470
      7  C          7.1520    1.0110   -0.3550 C.2     1  UNL1       -0.0470
      8  C          8.4810    1.2220   -0.6400 C.2     1  UNL1        0.0040
      9  C          6.4310    0.0900   -1.0790 C.2     1  UNL1        0.0040
     10  C          9.0490    0.4770   -1.6760 C.2     1  UNL1        0.0000
     11  C          6.9930   -0.6460   -2.1030 C.2     1  UNL1        0.0000
     12  C          8.3240   -0.4390   -2.3960 C.2     1  UNL1        0.0000
@<TRIPOS>BOND
     1    12    11    2
     2    12    10    1
     3    11     9    1
     4    10     8    2
     5     9     7    2
     6     8     7    1
     7     7     6    1
     8     1     6    1
     9     1     2    1
    10     2     4    1
    11     2     3    2
    12     4     5    1
