@<TRIPOS>MOLECULE
/home/cewinharhar/GITHUB/reincatalyze/data/processed/docking_pred/2023-Apr-26-1657_maxeplen10_maxtrainstep1000_exh32_gamma099_lrac9e-4_lrcr1e-3/d27e6afc186b75c76b7fe435f4b9560b42cd14a2_ligand_2.pdbqt
 12 12 0 0 0
SMALL
GASTEIGER

@<TRIPOS>ATOM
      1  C          8.4390   -0.5790   -2.2090 C.3     1  UNL1        0.1270
      2  C          8.4850   -1.8800   -2.9180 C.2     1  UNL1        0.3030
      3  O          9.5700   -2.4880   -3.0930 O.2     1  UNL1       -0.2520
      4  O          7.3270   -2.4610   -3.4100 O.3     1  UNL1       -0.4810
      5  H          7.2340   -3.4810   -3.3970 H       1  UNL1        0.2960
      6  C          7.0150   -0.1170   -2.1640 C.3     1  UNL1        0.0470
      7  C          6.4850    0.0440   -0.8110 C.2     1  UNL1       -0.0470
      8  C          6.6170   -0.9590    0.1210 C.2     1  UNL1        0.0040
      9  C          5.8520    1.2180   -0.4740 C.2     1  UNL1        0.0040
     10  C          6.0880   -0.7360    1.3940 C.2     1  UNL1        0.0000
     11  C          5.3290    1.4370    0.7860 C.2     1  UNL1        0.0000
     12  C          5.4560    0.4370    1.7240 C.2     1  UNL1        0.0000
@<TRIPOS>BOND
     1     4     5    1
     2     4     2    1
     3     3     2    2
     4     2     1    1
     5     1     6    1
     6     6     7    1
     7     7     9    2
     8     7     8    1
     9     9    11    1
    10     8    10    2
    11    11    12    2
    12    10    12    1
