@<TRIPOS>MOLECULE
/home/cewinharhar/GITHUB/reincatalyze/data/processed/docking_pred/2023-Apr-26-1657_maxeplen10_maxtrainstep1000_exh32_gamma099_lrac9e-4_lrcr1e-3/d27e6afc186b75c76b7fe435f4b9560b42cd14a2_ligand_2.pdbqt
 12 12 0 0 0
SMALL
GASTEIGER

@<TRIPOS>ATOM
      1  C          8.4310   -0.6070   -2.1510 C.3     1  UNL1        0.1270
      2  C          8.4710   -1.8840   -2.9020 C.2     1  UNL1        0.3030
      3  O          9.5520   -2.4980   -3.0850 O.2     1  UNL1       -0.2520
      4  O          7.3140   -2.4370   -3.4260 O.3     1  UNL1       -0.4810
      5  H          7.3860   -3.1740   -4.1320 H       1  UNL1        0.2960
      6  C          7.0130   -0.1250   -2.1190 C.3     1  UNL1        0.0470
      7  C          6.4750    0.0520   -0.7720 C.2     1  UNL1       -0.0470
      8  C          5.8400    1.2190   -0.4150 C.2     1  UNL1        0.0040
      9  C          6.6070   -0.9670    0.1430 C.2     1  UNL1        0.0040
     10  C          5.3500    1.3180    0.8890 C.2     1  UNL1        0.0000
     11  C          6.1220   -0.8680    1.4320 C.2     1  UNL1        0.0000
     12  C          5.4860    0.2980    1.7970 C.2     1  UNL1        0.0000
@<TRIPOS>BOND
     1     5     4    1
     2     4     2    1
     3     3     2    2
     4     2     1    1
     5     1     6    1
     6     6     7    1
     7     7     8    2
     8     7     9    1
     9     8    10    1
    10     9    11    2
    11    10    12    2
    12    11    12    1
