@<TRIPOS>MOLECULE
/home/cewinharhar/GITHUB/reincatalyze/data/processed/docking_pred/2023-Apr-26-1657_maxeplen10_maxtrainstep1000_exh32_gamma099_lrac9e-4_lrcr1e-3/d27e6afc186b75c76b7fe435f4b9560b42cd14a2_ligand_2.pdbqt
 12 12 0 0 0
SMALL
GASTEIGER

@<TRIPOS>ATOM
      1  C          8.1630    0.2520   -2.0740 C.3     1  UNL1        0.1270
      2  C          9.3350    0.3400   -1.1720 C.2     1  UNL1        0.3030
      3  O          9.4500   -0.4190   -0.1780 O.2     1  UNL1       -0.2520
      4  O         10.3400    1.2660   -1.4020 O.3     1  UNL1       -0.4810
      5  H         10.7250    1.3630   -2.3460 H       1  UNL1        0.2960
      6  C          7.1120   -0.5790   -1.4010 C.3     1  UNL1        0.0470
      7  C          6.3270    0.1490   -0.4060 C.2     1  UNL1       -0.0470
      8  C          5.7890    1.3810   -0.6980 C.2     1  UNL1        0.0040
      9  C          6.1270   -0.4130    0.8340 C.2     1  UNL1        0.0040
     10  C          5.0490    2.0180    0.3010 C.2     1  UNL1        0.0000
     11  C          5.3960    0.2180    1.8200 C.2     1  UNL1        0.0000
     12  C          4.8540    1.4530    1.5360 C.2     1  UNL1        0.0000
@<TRIPOS>BOND
     1     5     4    1
     2     1     6    1
     3     1     2    1
     4     4     2    1
     5     6     7    1
     6     2     3    2
     7     8     7    2
     8     8    10    1
     9     7     9    1
    10    10    12    2
    11     9    11    2
    12    12    11    1
