@<TRIPOS>MOLECULE
/home/cewinharhar/GITHUB/reincatalyze/data/processed/docking_pred/2023-Apr-26-1657_maxeplen10_maxtrainstep1000_exh32_gamma099_lrac9e-4_lrcr1e-3/d29de17412cd01c0ee6022e9d720ef028927a1a9_ligand_2.pdbqt
 12 12 0 0 0
SMALL
GASTEIGER

@<TRIPOS>ATOM
      1  C          5.0720    1.7100    0.6940 C.3     1  UNL1        0.1270
      2  C          4.5960    1.0270    1.9200 C.2     1  UNL1        0.3030
      3  O          5.2940    0.1530    2.4910 O.2     1  UNL1       -0.2520
      4  O          3.3620    1.3350    2.4710 O.3     1  UNL1       -0.4810
      5  H          3.0430    2.3080    2.4710 H       1  UNL1        0.2960
      6  C          6.5700    1.7350    0.7200 C.3     1  UNL1        0.0470
      7  C          7.1960    0.9860   -0.3680 C.2     1  UNL1       -0.0470
      8  C          8.5140    1.1990   -0.7000 C.2     1  UNL1        0.0040
      9  C          6.4520    0.0590   -1.0600 C.2     1  UNL1        0.0040
     10  C          9.0470    0.4480   -1.7500 C.2     1  UNL1        0.0000
     11  C          6.9800   -0.6830   -2.0980 C.2     1  UNL1        0.0000
     12  C          8.3000   -0.4750   -2.4380 C.2     1  UNL1        0.0000
@<TRIPOS>BOND
     1    12    11    2
     2    12    10    1
     3    11     9    1
     4    10     8    2
     5     9     7    2
     6     8     7    1
     7     7     6    1
     8     1     6    1
     9     1     2    1
    10     2     4    1
    11     2     3    2
    12     4     5    1
