@<TRIPOS>MOLECULE
/home/cewinharhar/GITHUB/reincatalyze/data/processed/docking_pred/2023-Apr-26-1657_maxeplen10_maxtrainstep1000_exh32_gamma099_lrac9e-4_lrcr1e-3/d29de17412cd01c0ee6022e9d720ef028927a1a9_ligand_2.pdbqt
 12 12 0 0 0
SMALL
GASTEIGER

@<TRIPOS>ATOM
      1  C          8.3950   -0.6440   -2.0890 C.3     1  UNL1        0.1270
      2  C          8.3710   -1.8920   -2.8870 C.2     1  UNL1        0.3030
      3  O          7.2870   -2.4120   -3.2510 O.2     1  UNL1       -0.2520
      4  O          9.5490   -2.5220   -3.2550 O.3     1  UNL1       -0.4810
      5  H          9.8610   -2.4720   -4.2290 H       1  UNL1        0.2960
      6  C          7.0120   -0.0680   -2.0750 C.3     1  UNL1        0.0470
      7  C          6.4510    0.1000   -0.7360 C.2     1  UNL1       -0.0470
      8  C          5.8160    1.2670   -0.3800 C.2     1  UNL1        0.0040
      9  C          6.5630   -0.9280    0.1720 C.2     1  UNL1        0.0040
     10  C          5.3030    1.3570    0.9160 C.2     1  UNL1        0.0000
     11  C          6.0550   -0.8370    1.4530 C.2     1  UNL1        0.0000
     12  C          5.4180    0.3290    1.8170 C.2     1  UNL1        0.0000
@<TRIPOS>BOND
     1     5     4    1
     2     4     2    1
     3     3     2    2
     4     2     1    1
     5     1     6    1
     6     6     7    1
     7     7     8    2
     8     7     9    1
     9     8    10    1
    10     9    11    2
    11    10    12    2
    12    11    12    1
