@<TRIPOS>MOLECULE
/home/cewinharhar/GITHUB/reincatalyze/data/processed/docking_pred/2023-Apr-26-1657_maxeplen10_maxtrainstep1000_exh32_gamma099_lrac9e-4_lrcr1e-3/d29de17412cd01c0ee6022e9d720ef028927a1a9_ligand_2.pdbqt
 12 12 0 0 0
SMALL
GASTEIGER

@<TRIPOS>ATOM
      1  C          5.4700    2.8930   -0.0200 C.3     1  UNL1        0.1270
      2  C          6.2620    3.8530    0.7860 C.2     1  UNL1        0.3030
      3  O          6.9190    4.7740    0.2410 O.2     1  UNL1       -0.2520
      4  O          6.2980    3.7590    2.1680 O.3     1  UNL1       -0.4810
      5  H          6.8440    4.4410    2.7020 H       1  UNL1        0.2960
      6  C          4.9330    1.8390    0.8990 C.3     1  UNL1        0.0470
      7  C          5.7200    0.6070    0.9150 C.2     1  UNL1       -0.0470
      8  C          6.4000    0.1920   -0.2060 C.2     1  UNL1        0.0040
      9  C          5.7780   -0.1370    2.0710 C.2     1  UNL1        0.0040
     10  C          7.1330   -0.9930   -0.1180 C.2     1  UNL1        0.0000
     11  C          6.5030   -1.3090    2.1560 C.2     1  UNL1        0.0000
     12  C          7.1870   -1.7330    1.0370 C.2     1  UNL1        0.0000
@<TRIPOS>BOND
     1     8    10    1
     2     8     7    2
     3    10    12    2
     4     1     2    1
     5     1     6    1
     6     3     2    2
     7     2     4    1
     8     6     7    1
     9     7     9    1
    10    12    11    1
    11     9    11    2
    12     4     5    1
