@<TRIPOS>MOLECULE
/home/cewinharhar/GITHUB/reincatalyze/data/processed/docking_pred/2023-Apr-26-1657_maxeplen10_maxtrainstep1000_exh32_gamma099_lrac9e-4_lrcr1e-3/d29de17412cd01c0ee6022e9d720ef028927a1a9_ligand_2.pdbqt
 12 12 0 0 0
SMALL
GASTEIGER

@<TRIPOS>ATOM
      1  C          8.3630   -1.0050   -1.7100 C.3     1  UNL1        0.1270
      2  C          8.3670   -2.0170   -2.7920 C.2     1  UNL1        0.3030
      3  O          7.2960   -2.4350   -3.2960 O.2     1  UNL1       -0.2520
      4  O          9.5580   -2.5320   -3.2780 O.3     1  UNL1       -0.4810
      5  H          9.9470   -2.1600   -4.1490 H       1  UNL1        0.2960
      6  C          7.3640   -1.4250   -0.6750 C.3     1  UNL1        0.0470
      7  C          6.5540   -0.3270   -0.1510 C.2     1  UNL1       -0.0470
      8  C          6.2440    0.7570   -0.9390 C.2     1  UNL1        0.0040
      9  C          6.0980   -0.3890    1.1460 C.2     1  UNL1        0.0040
     10  C          5.4650    1.7690   -0.3720 C.2     1  UNL1        0.0000
     11  C          5.3280    0.6120    1.7040 C.2     1  UNL1        0.0000
     12  C          5.0140    1.7020    0.9220 C.2     1  UNL1        0.0000
@<TRIPOS>BOND
     1     5     4    1
     2     3     2    2
     3     4     2    1
     4     2     1    1
     5     1     6    1
     6     8    10    1
     7     8     7    2
     8     6     7    1
     9    10    12    2
    10     7     9    1
    11    12    11    1
    12     9    11    2
