@<TRIPOS>MOLECULE
/home/cewinharhar/GITHUB/reincatalyze/data/processed/docking_pred/2023-Apr-26-1657_maxeplen10_maxtrainstep1000_exh32_gamma099_lrac9e-4_lrcr1e-3/d32515ef85c53a65d829162c3cbbbf13c46f52f9_ligand_2.pdbqt
 12 12 0 0 0
SMALL
GASTEIGER

@<TRIPOS>ATOM
      1  C          8.1840   -1.1240    0.2940 C.3     1  UNL1        0.1270
      2  C          8.0110   -2.4950    0.8310 C.2     1  UNL1        0.3030
      3  O          8.8990   -3.3700    0.6800 O.2     1  UNL1       -0.2520
      4  O          6.8590   -2.8480    1.5160 O.3     1  UNL1       -0.4810
      5  H          6.0310   -3.1360    0.9880 H       1  UNL1        0.2960
      6  C          6.9780   -0.7850   -0.5280 C.3     1  UNL1        0.0470
      7  C          6.1690    0.3010    0.0240 C.2     1  UNL1       -0.0470
      8  C          5.7360    0.2620    1.3290 C.2     1  UNL1        0.0040
      9  C          5.8440    1.3710   -0.7780 C.2     1  UNL1        0.0040
     10  C          4.9680    1.3340    1.7890 C.2     1  UNL1        0.0000
     11  C          5.0850    2.4290   -0.3210 C.2     1  UNL1        0.0000
     12  C          4.6460    2.3980    0.9850 C.2     1  UNL1        0.0000
@<TRIPOS>BOND
     1     9    11    1
     2     9     7    2
     3     6     7    1
     4     6     1    1
     5    11    12    2
     6     7     8    1
     7     1     2    1
     8     3     2    2
     9     2     4    1
    10    12    10    1
    11     5     4    1
    12     8    10    2
