@<TRIPOS>MOLECULE
/home/cewinharhar/GITHUB/reincatalyze/data/processed/docking_pred/2023-Apr-26-1657_maxeplen10_maxtrainstep1000_exh32_gamma099_lrac9e-4_lrcr1e-3/d32515ef85c53a65d829162c3cbbbf13c46f52f9_ligand_2.pdbqt
 12 12 0 0 0
SMALL
GASTEIGER

@<TRIPOS>ATOM
      1  C          8.0670    0.2730   -2.0010 C.3     1  UNL1        0.1270
      2  C          9.2830    0.3490   -1.1560 C.2     1  UNL1        0.3030
      3  O          9.4430   -0.4200   -0.1760 O.2     1  UNL1       -0.2520
      4  O         10.2780    1.2740   -1.4250 O.3     1  UNL1       -0.4810
      5  H         11.2590    0.9850   -1.3710 H       1  UNL1        0.2960
      6  C          7.0490   -0.5630   -1.2870 C.3     1  UNL1        0.0470
      7  C          6.2880    0.1650   -0.2720 C.2     1  UNL1       -0.0470
      8  C          5.7560    1.4030   -0.5460 C.2     1  UNL1        0.0040
      9  C          6.1060   -0.4050    0.9670 C.2     1  UNL1        0.0040
     10  C          5.0390    2.0400    0.4700 C.2     1  UNL1        0.0000
     11  C          5.3980    0.2260    1.9700 C.2     1  UNL1        0.0000
     12  C          4.8620    1.4670    1.7040 C.2     1  UNL1        0.0000
@<TRIPOS>BOND
     1     1     6    1
     2     1     2    1
     3     4     5    1
     4     4     2    1
     5     6     7    1
     6     2     3    2
     7     8     7    2
     8     8    10    1
     9     7     9    1
    10    10    12    2
    11     9    11    2
    12    12    11    1
