@<TRIPOS>MOLECULE
/home/cewinharhar/GITHUB/reincatalyze/data/processed/docking_pred/2023-Apr-26-1657_maxeplen10_maxtrainstep1000_exh32_gamma099_lrac9e-4_lrcr1e-3/d32515ef85c53a65d829162c3cbbbf13c46f52f9_ligand_2.pdbqt
 12 12 0 0 0
SMALL
GASTEIGER

@<TRIPOS>ATOM
      1  C          8.4300   -0.6420   -2.0860 C.3     1  UNL1        0.1270
      2  C          8.4600   -1.9000   -2.8690 C.2     1  UNL1        0.3030
      3  O          9.5350   -2.5190   -3.0650 O.2     1  UNL1       -0.2520
      4  O          7.2980   -2.4280   -3.4080 O.3     1  UNL1       -0.4810
      5  H          7.2990   -2.7530   -4.3790 H       1  UNL1        0.2960
      6  C          7.0260   -0.1190   -2.0880 C.3     1  UNL1        0.0470
      7  C          6.4620    0.0750   -0.7530 C.2     1  UNL1       -0.0470
      8  C          6.5720   -0.9040    0.2060 C.2     1  UNL1        0.0040
      9  C          5.8180    1.2560   -0.4620 C.2     1  UNL1        0.0040
     10  C          6.0110   -0.6490    1.4600 C.2     1  UNL1        0.0000
     11  C          5.2640    1.5060    0.7770 C.2     1  UNL1        0.0000
     12  C          5.3690    0.5290    1.7440 C.2     1  UNL1        0.0000
@<TRIPOS>BOND
     1     5     4    1
     2     4     2    1
     3     3     2    2
     4     2     1    1
     5     6     1    1
     6     6     7    1
     7     7     9    2
     8     7     8    1
     9     9    11    1
    10     8    10    2
    11    11    12    2
    12    10    12    1
