@<TRIPOS>MOLECULE
/home/cewinharhar/GITHUB/reincatalyze/data/processed/docking_pred/2023-Apr-26-1657_maxeplen10_maxtrainstep1000_exh32_gamma099_lrac9e-4_lrcr1e-3/d32515ef85c53a65d829162c3cbbbf13c46f52f9_ligand_2.pdbqt
 12 12 0 0 0
SMALL
GASTEIGER

@<TRIPOS>ATOM
      1  C          5.1060    1.7660    0.6580 C.3     1  UNL1        0.1270
      2  C          4.6590    1.1510    1.9310 C.2     1  UNL1        0.3030
      3  O          5.3180    0.2310    2.4750 O.2     1  UNL1       -0.2520
      4  O          3.4980    1.5770    2.5560 O.3     1  UNL1       -0.4810
      5  H          2.6940    1.8510    1.9850 H       1  UNL1        0.2960
      6  C          6.6030    1.8140    0.6590 C.3     1  UNL1        0.0470
      7  C          7.2240    1.0190   -0.3990 C.2     1  UNL1       -0.0470
      8  C          8.5650    1.1470   -0.6800 C.2     1  UNL1        0.0040
      9  C          6.4520    0.1340   -1.1150 C.2     1  UNL1        0.0040
     10  C          9.0910    0.3550   -1.7030 C.2     1  UNL1        0.0000
     11  C          6.9740   -0.6480   -2.1260 C.2     1  UNL1        0.0000
     12  C          8.3160   -0.5250   -2.4150 C.2     1  UNL1        0.0000
@<TRIPOS>BOND
     1    12    11    2
     2    12    10    1
     3    11     9    1
     4    10     8    2
     5     9     7    2
     6     8     7    1
     7     7     6    1
     8     1     6    1
     9     1     2    1
    10     2     3    2
    11     2     4    1
    12     5     4    1
