@<TRIPOS>MOLECULE
/home/cewinharhar/GITHUB/reincatalyze/data/processed/docking_pred/2023-Apr-26-1657_maxeplen10_maxtrainstep1000_exh32_gamma099_lrac9e-4_lrcr1e-3/d32515ef85c53a65d829162c3cbbbf13c46f52f9_ligand_2.pdbqt
 12 12 0 0 0
SMALL
GASTEIGER

@<TRIPOS>ATOM
      1  C          7.1750   -1.2070   -2.1250 C.3     1  UNL1        0.1270
      2  C          8.6180   -1.3280   -2.4430 C.2     1  UNL1        0.3030
      3  O          9.4470   -0.4780   -2.0370 O.2     1  UNL1       -0.2520
      4  O          9.0910   -2.3870   -3.2010 O.3     1  UNL1       -0.4810
      5  H          9.9960   -2.8050   -2.9670 H       1  UNL1        0.2960
      6  C          6.8710    0.2360   -1.8610 C.3     1  UNL1        0.0470
      7  C          6.2430    0.4830   -0.5640 C.2     1  UNL1       -0.0470
      8  C          5.5360    1.6410   -0.3340 C.2     1  UNL1        0.0040
      9  C          6.3650   -0.4590    0.4310 C.2     1  UNL1        0.0040
     10  C          4.9620    1.8100    0.9280 C.2     1  UNL1        0.0000
     11  C          5.7970   -0.2900    1.6780 C.2     1  UNL1        0.0000
     12  C          5.0870    0.8670    1.9170 C.2     1  UNL1        0.0000
@<TRIPOS>BOND
     1     4     5    1
     2     4     2    1
     3     2     1    1
     4     2     3    2
     5     1     6    1
     6     6     7    1
     7     7     8    2
     8     7     9    1
     9     8    10    1
    10     9    11    2
    11    10    12    2
    12    11    12    1
