MODEL 1
REMARK VINA RESULT:      -7.3      0.000      0.000
REMARK SMILES O=C(O)CCc1ccccc1
REMARK SMILES IDX 4 1 2 2 1 3 3 4 5 6 6 7 7 8 11 9 8 10 10 11 9 12
REMARK H PARENT 3 5
REMARK Flexibility Score: inf
ROOT
ATOM      1  C   UNL     1       8.430  -0.642  -2.086  1.00  0.00     0.127 C 
ENDROOT
BRANCH   1   2
ATOM      2  C   UNL     1       8.460  -1.900  -2.869  1.00  0.00     0.303 C 
ATOM      3  O   UNL     1       9.535  -2.519  -3.065  1.00  0.00    -0.252 OA
BRANCH   2   4
ATOM      4  O   UNL     1       7.298  -2.428  -3.408  1.00  0.00    -0.481 OA
ATOM      5  H   UNL     1       7.299  -2.753  -4.379  1.00  0.00     0.296 HD
ENDBRANCH   2   4
ENDBRANCH   1   2
BRANCH   1   6
ATOM      6  C   UNL     1       7.026  -0.119  -2.088  1.00  0.00     0.047 C 
BRANCH   6   7
ATOM      7  C   UNL     1       6.462   0.075  -0.753  1.00  0.00    -0.047 A 
ATOM      8  C   UNL     1       6.572  -0.904   0.206  1.00  0.00     0.004 A 
ATOM      9  C   UNL     1       5.818   1.256  -0.462  1.00  0.00     0.004 A 
ATOM     10  C   UNL     1       6.011  -0.649   1.460  1.00  0.00     0.000 A 
ATOM     11  C   UNL     1       5.264   1.506   0.777  1.00  0.00     0.000 A 
ATOM     12  C   UNL     1       5.369   0.529   1.744  1.00  0.00     0.000 A 
ENDBRANCH   6   7
ENDBRANCH   1   6
TORSDOF 4
ENDMDL
MODEL 2
REMARK VINA RESULT:      -7.2      0.897      1.789
REMARK SMILES O=C(O)CCc1ccccc1
REMARK SMILES IDX 4 1 2 2 1 3 3 4 5 6 6 7 7 8 11 9 8 10 10 11 9 12
REMARK H PARENT 3 5
REMARK Flexibility Score: inf
ROOT
ATOM      1  C   UNL     1       7.175  -1.207  -2.125  1.00  0.00     0.127 C 
ENDROOT
BRANCH   1   2
ATOM      2  C   UNL     1       8.618  -1.328  -2.443  1.00  0.00     0.303 C 
ATOM      3  O   UNL     1       9.447  -0.478  -2.037  1.00  0.00    -0.252 OA
BRANCH   2   4
ATOM      4  O   UNL     1       9.091  -2.387  -3.201  1.00  0.00    -0.481 OA
ATOM      5  H   UNL     1       9.996  -2.805  -2.967  1.00  0.00     0.296 HD
ENDBRANCH   2   4
ENDBRANCH   1   2
BRANCH   1   6
ATOM      6  C   UNL     1       6.871   0.236  -1.861  1.00  0.00     0.047 C 
BRANCH   6   7
ATOM      7  C   UNL     1       6.243   0.483  -0.564  1.00  0.00    -0.047 A 
ATOM      8  C   UNL     1       5.536   1.641  -0.334  1.00  0.00     0.004 A 
ATOM      9  C   UNL     1       6.365  -0.459   0.431  1.00  0.00     0.004 A 
ATOM     10  C   UNL     1       4.962   1.810   0.928  1.00  0.00     0.000 A 
ATOM     11  C   UNL     1       5.797  -0.290   1.678  1.00  0.00     0.000 A 
ATOM     12  C   UNL     1       5.087   0.867   1.917  1.00  0.00     0.000 A 
ENDBRANCH   6   7
ENDBRANCH   1   6
TORSDOF 4
ENDMDL
MODEL 3
REMARK VINA RESULT:      -6.9      3.351      5.054
REMARK SMILES O=C(O)CCc1ccccc1
REMARK SMILES IDX 4 1 2 2 1 3 3 4 5 6 6 7 7 8 11 9 8 10 10 11 9 12
REMARK H PARENT 3 5
REMARK Flexibility Score: inf
ROOT
ATOM      1  C   UNL     1       5.106   1.766   0.658  1.00  0.00     0.127 C 
ENDROOT
BRANCH   1   2
ATOM      2  C   UNL     1       4.659   1.151   1.931  1.00  0.00     0.303 C 
ATOM      3  O   UNL     1       5.318   0.231   2.475  1.00  0.00    -0.252 OA
BRANCH   2   4
ATOM      4  O   UNL     1       3.498   1.577   2.556  1.00  0.00    -0.481 OA
ATOM      5  H   UNL     1       2.694   1.851   1.985  1.00  0.00     0.296 HD
ENDBRANCH   2   4
ENDBRANCH   1   2
BRANCH   1   6
ATOM      6  C   UNL     1       6.603   1.814   0.659  1.00  0.00     0.047 C 
BRANCH   6   7
ATOM      7  C   UNL     1       7.224   1.019  -0.399  1.00  0.00    -0.047 A 
ATOM      8  C   UNL     1       8.565   1.147  -0.680  1.00  0.00     0.004 A 
ATOM      9  C   UNL     1       6.452   0.134  -1.115  1.00  0.00     0.004 A 
ATOM     10  C   UNL     1       9.091   0.355  -1.703  1.00  0.00     0.000 A 
ATOM     11  C   UNL     1       6.974  -0.648  -2.126  1.00  0.00     0.000 A 
ATOM     12  C   UNL     1       8.316  -0.525  -2.415  1.00  0.00     0.000 A 
ENDBRANCH   6   7
ENDBRANCH   1   6
TORSDOF 4
ENDMDL
MODEL 4
REMARK VINA RESULT:      -6.9      1.943      2.608
REMARK SMILES O=C(O)CCc1ccccc1
REMARK SMILES IDX 4 1 2 2 1 3 3 4 5 6 6 7 7 8 11 9 8 10 10 11 9 12
REMARK H PARENT 3 5
REMARK Flexibility Score: inf
ROOT
ATOM      1  C   UNL     1       8.067   0.273  -2.001  1.00  0.00     0.127 C 
ENDROOT
BRANCH   1   2
ATOM      2  C   UNL     1       9.283   0.349  -1.156  1.00  0.00     0.303 C 
ATOM      3  O   UNL     1       9.443  -0.420  -0.176  1.00  0.00    -0.252 OA
BRANCH   2   4
ATOM      4  O   UNL     1      10.278   1.274  -1.425  1.00  0.00    -0.481 OA
ATOM      5  H   UNL     1      11.259   0.985  -1.371  1.00  0.00     0.296 HD
ENDBRANCH   2   4
ENDBRANCH   1   2
BRANCH   1   6
ATOM      6  C   UNL     1       7.049  -0.563  -1.287  1.00  0.00     0.047 C 
BRANCH   6   7
ATOM      7  C   UNL     1       6.288   0.165  -0.272  1.00  0.00    -0.047 A 
ATOM      8  C   UNL     1       5.756   1.403  -0.546  1.00  0.00     0.004 A 
ATOM      9  C   UNL     1       6.106  -0.405   0.967  1.00  0.00     0.004 A 
ATOM     10  C   UNL     1       5.039   2.040   0.470  1.00  0.00     0.000 A 
ATOM     11  C   UNL     1       5.398   0.226   1.970  1.00  0.00     0.000 A 
ATOM     12  C   UNL     1       4.862   1.467   1.704  1.00  0.00     0.000 A 
ENDBRANCH   6   7
ENDBRANCH   1   6
TORSDOF 4
ENDMDL
MODEL 5
REMARK VINA RESULT:      -6.7      2.250      2.677
REMARK SMILES O=C(O)CCc1ccccc1
REMARK SMILES IDX 4 1 2 2 1 3 3 4 5 6 6 7 7 8 11 9 8 10 10 11 9 12
REMARK H PARENT 3 5
REMARK Flexibility Score: inf
ROOT
ATOM      1  C   UNL     1       8.184  -1.124   0.294  1.00  0.00     0.127 C 
ENDROOT
BRANCH   1   2
ATOM      2  C   UNL     1       8.011  -2.495   0.831  1.00  0.00     0.303 C 
ATOM      3  O   UNL     1       8.899  -3.370   0.680  1.00  0.00    -0.252 OA
BRANCH   2   4
ATOM      4  O   UNL     1       6.859  -2.848   1.516  1.00  0.00    -0.481 OA
ATOM      5  H   UNL     1       6.031  -3.136   0.988  1.00  0.00     0.296 HD
ENDBRANCH   2   4
ENDBRANCH   1   2
BRANCH   1   6
ATOM      6  C   UNL     1       6.978  -0.785  -0.528  1.00  0.00     0.047 C 
BRANCH   6   7
ATOM      7  C   UNL     1       6.169   0.301   0.024  1.00  0.00    -0.047 A 
ATOM      8  C   UNL     1       5.736   0.262   1.329  1.00  0.00     0.004 A 
ATOM      9  C   UNL     1       5.844   1.371  -0.778  1.00  0.00     0.004 A 
ATOM     10  C   UNL     1       4.968   1.334   1.789  1.00  0.00     0.000 A 
ATOM     11  C   UNL     1       5.085   2.429  -0.321  1.00  0.00     0.000 A 
ATOM     12  C   UNL     1       4.646   2.398   0.985  1.00  0.00     0.000 A 
ENDBRANCH   6   7
ENDBRANCH   1   6
TORSDOF 4
ENDMDL
