@<TRIPOS>MOLECULE
/home/cewinharhar/GITHUB/reincatalyze/data/processed/docking_pred/2023-Apr-26-1657_maxeplen10_maxtrainstep1000_exh32_gamma099_lrac9e-4_lrcr1e-3/d3a7bace4d7284fd134c29c8ba069397c7215f06_ligand_2.pdbqt
 12 12 0 0 0
SMALL
GASTEIGER

@<TRIPOS>ATOM
      1  C          5.3990    2.9030    0.0220 C.3     1  UNL1        0.1270
      2  C          6.2080    3.8790    0.7910 C.2     1  UNL1        0.3030
      3  O          6.9010    4.7510    0.2100 O.2     1  UNL1       -0.2520
      4  O          6.2220    3.8550    2.1760 O.3     1  UNL1       -0.4810
      5  H          6.3220    4.7340    2.6910 H       1  UNL1        0.2960
      6  C          4.9100    1.8490    0.9680 C.3     1  UNL1        0.0470
      7  C          5.7040    0.6210    0.9530 C.2     1  UNL1       -0.0470
      8  C          5.7920   -0.1740    2.0720 C.2     1  UNL1        0.0040
      9  C          6.3650    0.2640   -0.2000 C.2     1  UNL1        0.0040
     10  C          6.5670   -1.3320    1.9840 C.2     1  UNL1        0.0000
     11  C          7.1310   -0.8820   -0.2840 C.2     1  UNL1        0.0000
     12  C          7.2250   -1.6830    0.8330 C.2     1  UNL1        0.0000
@<TRIPOS>BOND
     1    11     9    1
     2    11    12    2
     3     9     7    2
     4     1     2    1
     5     1     6    1
     6     3     2    2
     7     2     4    1
     8    12    10    1
     9     7     6    1
    10     7     8    1
    11    10     8    2
    12     4     5    1
