MODEL 1
REMARK VINA RESULT:      -7.3      0.000      0.000
REMARK SMILES O=C(O)CCc1ccccc1
REMARK SMILES IDX 4 1 2 2 1 3 3 4 5 6 6 7 7 8 11 9 8 10 10 11 9 12
REMARK H PARENT 3 5
REMARK Flexibility Score: inf
ROOT
ATOM      1  C   UNL     1       8.427  -0.604  -2.154  1.00  0.00     0.127 C 
ENDROOT
BRANCH   1   2
ATOM      2  C   UNL     1       8.474  -1.880  -2.908  1.00  0.00     0.303 C 
ATOM      3  O   UNL     1       9.559  -2.478  -3.108  1.00  0.00    -0.252 OA
BRANCH   2   4
ATOM      4  O   UNL     1       7.316  -2.447  -3.414  1.00  0.00    -0.481 OA
ATOM      5  H   UNL     1       6.444  -1.912  -3.391  1.00  0.00     0.296 HD
ENDBRANCH   2   4
ENDBRANCH   1   2
BRANCH   1   6
ATOM      6  C   UNL     1       7.007  -0.128  -2.122  1.00  0.00     0.047 C 
BRANCH   6   7
ATOM      7  C   UNL     1       6.470   0.049  -0.774  1.00  0.00    -0.047 A 
ATOM      8  C   UNL     1       5.841   1.219  -0.415  1.00  0.00     0.004 A 
ATOM      9  C   UNL     1       6.598  -0.972   0.139  1.00  0.00     0.004 A 
ATOM     10  C   UNL     1       5.352   1.318   0.889  1.00  0.00     0.000 A 
ATOM     11  C   UNL     1       6.114  -0.872   1.428  1.00  0.00     0.000 A 
ATOM     12  C   UNL     1       5.483   0.296   1.796  1.00  0.00     0.000 A 
ENDBRANCH   6   7
ENDBRANCH   1   6
TORSDOF 4
ENDMDL
MODEL 2
REMARK VINA RESULT:      -7.3      0.195      1.735
REMARK SMILES O=C(O)CCc1ccccc1
REMARK SMILES IDX 4 1 2 2 1 3 3 4 5 6 6 7 7 8 11 9 8 10 10 11 9 12
REMARK H PARENT 3 5
REMARK Flexibility Score: inf
ROOT
ATOM      1  C   UNL     1       8.468  -0.663  -2.086  1.00  0.00     0.127 C 
ENDROOT
BRANCH   1   2
ATOM      2  C   UNL     1       8.407  -1.914  -2.877  1.00  0.00     0.303 C 
ATOM      3  O   UNL     1       7.307  -2.418  -3.213  1.00  0.00    -0.252 OA
BRANCH   2   4
ATOM      4  O   UNL     1       9.566  -2.564  -3.269  1.00  0.00    -0.481 OA
ATOM      5  H   UNL     1      10.375  -2.011  -3.564  1.00  0.00     0.296 HD
ENDBRANCH   2   4
ENDBRANCH   1   2
BRANCH   1   6
ATOM      6  C   UNL     1       7.112  -0.027  -2.104  1.00  0.00     0.047 C 
BRANCH   6   7
ATOM      7  C   UNL     1       6.514   0.137  -0.780  1.00  0.00    -0.047 A 
ATOM      8  C   UNL     1       6.684  -0.821   0.192  1.00  0.00     0.004 A 
ATOM      9  C   UNL     1       5.777   1.268  -0.512  1.00  0.00     0.004 A 
ATOM     10  C   UNL     1       6.086  -0.597   1.434  1.00  0.00     0.000 A 
ATOM     11  C   UNL     1       5.186   1.487   0.717  1.00  0.00     0.000 A 
ATOM     12  C   UNL     1       5.351   0.531   1.696  1.00  0.00     0.000 A 
ENDBRANCH   6   7
ENDBRANCH   1   6
TORSDOF 4
ENDMDL
MODEL 3
REMARK VINA RESULT:      -6.8      3.376      5.046
REMARK SMILES O=C(O)CCc1ccccc1
REMARK SMILES IDX 4 1 2 2 1 3 3 4 5 6 6 7 7 8 11 9 8 10 10 11 9 12
REMARK H PARENT 3 5
REMARK Flexibility Score: inf
ROOT
ATOM      1  C   UNL     1       5.037   1.778   0.711  1.00  0.00     0.127 C 
ENDROOT
BRANCH   1   2
ATOM      2  C   UNL     1       4.495   1.103   1.914  1.00  0.00     0.303 C 
ATOM      3  O   UNL     1       5.132   0.185   2.488  1.00  0.00    -0.252 OA
BRANCH   2   4
ATOM      4  O   UNL     1       3.266   1.467   2.440  1.00  0.00    -0.481 OA
ATOM      5  H   UNL     1       3.085   1.321   3.437  1.00  0.00     0.296 HD
ENDBRANCH   2   4
ENDBRANCH   1   2
BRANCH   1   6
ATOM      6  C   UNL     1       6.533   1.738   0.783  1.00  0.00     0.047 C 
BRANCH   6   7
ATOM      7  C   UNL     1       7.162   1.007  -0.317  1.00  0.00    -0.047 A 
ATOM      8  C   UNL     1       8.469   1.251  -0.666  1.00  0.00     0.004 A 
ATOM      9  C   UNL     1       6.429   0.065  -1.002  1.00  0.00     0.004 A 
ATOM     10  C   UNL     1       9.005   0.515  -1.726  1.00  0.00     0.000 A 
ATOM     11  C   UNL     1       6.960  -0.661  -2.049  1.00  0.00     0.000 A 
ATOM     12  C   UNL     1       8.270  -0.422  -2.406  1.00  0.00     0.000 A 
ENDBRANCH   6   7
ENDBRANCH   1   6
TORSDOF 4
ENDMDL
MODEL 4
REMARK VINA RESULT:      -6.7      3.790      4.989
REMARK SMILES O=C(O)CCc1ccccc1
REMARK SMILES IDX 4 1 2 2 1 3 3 4 5 6 6 7 7 8 11 9 8 10 10 11 9 12
REMARK H PARENT 3 5
REMARK Flexibility Score: inf
ROOT
ATOM      1  C   UNL     1       5.399   2.903   0.022  1.00  0.00     0.127 C 
ENDROOT
BRANCH   1   2
ATOM      2  C   UNL     1       6.208   3.879   0.791  1.00  0.00     0.303 C 
ATOM      3  O   UNL     1       6.901   4.751   0.210  1.00  0.00    -0.252 OA
BRANCH   2   4
ATOM      4  O   UNL     1       6.222   3.855   2.176  1.00  0.00    -0.481 OA
ATOM      5  H   UNL     1       6.322   4.734   2.691  1.00  0.00     0.296 HD
ENDBRANCH   2   4
ENDBRANCH   1   2
BRANCH   1   6
ATOM      6  C   UNL     1       4.910   1.849   0.968  1.00  0.00     0.047 C 
BRANCH   6   7
ATOM      7  C   UNL     1       5.704   0.621   0.953  1.00  0.00    -0.047 A 
ATOM      8  C   UNL     1       5.792  -0.174   2.072  1.00  0.00     0.004 A 
ATOM      9  C   UNL     1       6.365   0.264  -0.200  1.00  0.00     0.004 A 
ATOM     10  C   UNL     1       6.567  -1.332   1.984  1.00  0.00     0.000 A 
ATOM     11  C   UNL     1       7.131  -0.882  -0.284  1.00  0.00     0.000 A 
ATOM     12  C   UNL     1       7.225  -1.683   0.833  1.00  0.00     0.000 A 
ENDBRANCH   6   7
ENDBRANCH   1   6
TORSDOF 4
ENDMDL
MODEL 5
REMARK VINA RESULT:      -6.7      1.929      2.678
REMARK SMILES O=C(O)CCc1ccccc1
REMARK SMILES IDX 4 1 2 2 1 3 3 4 5 6 6 7 7 8 11 9 8 10 10 11 9 12
REMARK H PARENT 3 5
REMARK Flexibility Score: inf
ROOT
ATOM      1  C   UNL     1       8.182   0.274  -2.219  1.00  0.00     0.127 C 
ENDROOT
BRANCH   1   2
ATOM      2  C   UNL     1       9.315   0.380  -1.270  1.00  0.00     0.303 C 
ATOM      3  O   UNL     1       9.427  -0.409  -0.299  1.00  0.00    -0.252 OA
BRANCH   2   4
ATOM      4  O   UNL     1      10.285   1.357  -1.428  1.00  0.00    -0.481 OA
ATOM      5  H   UNL     1      11.065   1.189  -2.070  1.00  0.00     0.296 HD
ENDBRANCH   2   4
ENDBRANCH   1   2
BRANCH   1   6
ATOM      6  C   UNL     1       7.072  -0.474  -1.545  1.00  0.00     0.047 C 
BRANCH   6   7
ATOM      7  C   UNL     1       6.305   0.329  -0.595  1.00  0.00    -0.047 A 
ATOM      8  C   UNL     1       6.102  -0.108   0.693  1.00  0.00     0.004 A 
ATOM      9  C   UNL     1       5.785   1.536  -1.003  1.00  0.00     0.004 A 
ATOM     10  C   UNL     1       5.360   0.711   1.547  1.00  0.00     0.000 A 
ATOM     11  C   UNL     1       5.052   2.345  -0.157  1.00  0.00     0.000 A 
ATOM     12  C   UNL     1       4.843   1.914   1.135  1.00  0.00     0.000 A 
ENDBRANCH   6   7
ENDBRANCH   1   6
TORSDOF 4
ENDMDL
