@<TRIPOS>MOLECULE
/home/cewinharhar/GITHUB/reincatalyze/data/processed/docking_pred/2023-Apr-26-1657_maxeplen10_maxtrainstep1000_exh32_gamma099_lrac9e-4_lrcr1e-3/d3a7bace4d7284fd134c29c8ba069397c7215f06_ligand_2.pdbqt
 12 12 0 0 0
SMALL
GASTEIGER

@<TRIPOS>ATOM
      1  C          8.4680   -0.6630   -2.0860 C.3     1  UNL1        0.1270
      2  C          8.4070   -1.9140   -2.8770 C.2     1  UNL1        0.3030
      3  O          7.3070   -2.4180   -3.2130 O.2     1  UNL1       -0.2520
      4  O          9.5660   -2.5640   -3.2690 O.3     1  UNL1       -0.4810
      5  H         10.3750   -2.0110   -3.5640 H       1  UNL1        0.2960
      6  C          7.1120   -0.0270   -2.1040 C.3     1  UNL1        0.0470
      7  C          6.5140    0.1370   -0.7800 C.2     1  UNL1       -0.0470
      8  C          6.6840   -0.8210    0.1920 C.2     1  UNL1        0.0040
      9  C          5.7770    1.2680   -0.5120 C.2     1  UNL1        0.0040
     10  C          6.0860   -0.5970    1.4340 C.2     1  UNL1        0.0000
     11  C          5.1860    1.4870    0.7170 C.2     1  UNL1        0.0000
     12  C          5.3510    0.5310    1.6960 C.2     1  UNL1        0.0000
@<TRIPOS>BOND
     1     5     4    1
     2     4     2    1
     3     3     2    2
     4     2     1    1
     5     6     1    1
     6     6     7    1
     7     7     9    2
     8     7     8    1
     9     9    11    1
    10     8    10    2
    11    11    12    2
    12    10    12    1
