@<TRIPOS>MOLECULE
/home/cewinharhar/GITHUB/reincatalyze/data/processed/docking_pred/2023-Apr-26-1657_maxeplen10_maxtrainstep1000_exh32_gamma099_lrac9e-4_lrcr1e-3/d3a7bace4d7284fd134c29c8ba069397c7215f06_ligand_2.pdbqt
 12 12 0 0 0
SMALL
GASTEIGER

@<TRIPOS>ATOM
      1  C          8.1820    0.2740   -2.2190 C.3     1  UNL1        0.1270
      2  C          9.3150    0.3800   -1.2700 C.2     1  UNL1        0.3030
      3  O          9.4270   -0.4090   -0.2990 O.2     1  UNL1       -0.2520
      4  O         10.2850    1.3570   -1.4280 O.3     1  UNL1       -0.4810
      5  H         11.0650    1.1890   -2.0700 H       1  UNL1        0.2960
      6  C          7.0720   -0.4740   -1.5450 C.3     1  UNL1        0.0470
      7  C          6.3050    0.3290   -0.5950 C.2     1  UNL1       -0.0470
      8  C          6.1020   -0.1080    0.6930 C.2     1  UNL1        0.0040
      9  C          5.7850    1.5360   -1.0030 C.2     1  UNL1        0.0040
     10  C          5.3600    0.7110    1.5470 C.2     1  UNL1        0.0000
     11  C          5.0520    2.3450   -0.1570 C.2     1  UNL1        0.0000
     12  C          4.8430    1.9140    1.1350 C.2     1  UNL1        0.0000
@<TRIPOS>BOND
     1     1     6    1
     2     1     2    1
     3     5     4    1
     4     6     7    1
     5     4     2    1
     6     2     3    2
     7     9     7    2
     8     9    11    1
     9     7     8    1
    10    11    12    2
    11     8    10    2
    12    12    10    1
