@<TRIPOS>MOLECULE
/home/cewinharhar/GITHUB/reincatalyze/data/processed/docking_pred/2023-Apr-26-1657_maxeplen10_maxtrainstep1000_exh32_gamma099_lrac9e-4_lrcr1e-3/d3a7bace4d7284fd134c29c8ba069397c7215f06_ligand_2.pdbqt
 12 12 0 0 0
SMALL
GASTEIGER

@<TRIPOS>ATOM
      1  C          8.4270   -0.6040   -2.1540 C.3     1  UNL1        0.1270
      2  C          8.4740   -1.8800   -2.9080 C.2     1  UNL1        0.3030
      3  O          9.5590   -2.4780   -3.1080 O.2     1  UNL1       -0.2520
      4  O          7.3160   -2.4470   -3.4140 O.3     1  UNL1       -0.4810
      5  H          6.4440   -1.9120   -3.3910 H       1  UNL1        0.2960
      6  C          7.0070   -0.1280   -2.1220 C.3     1  UNL1        0.0470
      7  C          6.4700    0.0490   -0.7740 C.2     1  UNL1       -0.0470
      8  C          5.8410    1.2190   -0.4150 C.2     1  UNL1        0.0040
      9  C          6.5980   -0.9720    0.1390 C.2     1  UNL1        0.0040
     10  C          5.3520    1.3180    0.8890 C.2     1  UNL1        0.0000
     11  C          6.1140   -0.8720    1.4280 C.2     1  UNL1        0.0000
     12  C          5.4830    0.2960    1.7960 C.2     1  UNL1        0.0000
@<TRIPOS>BOND
     1     4     5    1
     2     4     2    1
     3     3     2    2
     4     2     1    1
     5     1     6    1
     6     6     7    1
     7     7     8    2
     8     7     9    1
     9     8    10    1
    10     9    11    2
    11    10    12    2
    12    11    12    1
