@<TRIPOS>MOLECULE
/home/cewinharhar/GITHUB/reincatalyze/data/processed/docking_pred/2023-Apr-26-1657_maxeplen10_maxtrainstep1000_exh32_gamma099_lrac9e-4_lrcr1e-3/d3a7bace4d7284fd134c29c8ba069397c7215f06_ligand_2.pdbqt
 12 12 0 0 0
SMALL
GASTEIGER

@<TRIPOS>ATOM
      1  C          5.0370    1.7780    0.7110 C.3     1  UNL1        0.1270
      2  C          4.4950    1.1030    1.9140 C.2     1  UNL1        0.3030
      3  O          5.1320    0.1850    2.4880 O.2     1  UNL1       -0.2520
      4  O          3.2660    1.4670    2.4400 O.3     1  UNL1       -0.4810
      5  H          3.0850    1.3210    3.4370 H       1  UNL1        0.2960
      6  C          6.5330    1.7380    0.7830 C.3     1  UNL1        0.0470
      7  C          7.1620    1.0070   -0.3170 C.2     1  UNL1       -0.0470
      8  C          8.4690    1.2510   -0.6660 C.2     1  UNL1        0.0040
      9  C          6.4290    0.0650   -1.0020 C.2     1  UNL1        0.0040
     10  C          9.0050    0.5150   -1.7260 C.2     1  UNL1        0.0000
     11  C          6.9600   -0.6610   -2.0490 C.2     1  UNL1        0.0000
     12  C          8.2700   -0.4220   -2.4060 C.2     1  UNL1        0.0000
@<TRIPOS>BOND
     1    12    11    2
     2    12    10    1
     3    11     9    1
     4    10     8    2
     5     9     7    2
     6     8     7    1
     7     7     6    1
     8     1     6    1
     9     1     2    1
    10     2     4    1
    11     2     3    2
    12     4     5    1
