MODEL 1
REMARK VINA RESULT:      -7.3      0.000      0.000
REMARK SMILES O=C(O)CCc1ccccc1
REMARK SMILES IDX 4 1 2 2 1 3 3 4 5 6 6 7 7 8 11 9 8 10 10 11 9 12
REMARK H PARENT 3 5
REMARK Flexibility Score: inf
ROOT
ATOM      1  C   UNL     1       8.428  -0.614  -2.184  1.00  0.00     0.127 C 
ENDROOT
BRANCH   1   2
ATOM      2  C   UNL     1       8.470  -1.900  -2.919  1.00  0.00     0.303 C 
ATOM      3  O   UNL     1       9.551  -2.515  -3.092  1.00  0.00    -0.252 OA
BRANCH   2   4
ATOM      4  O   UNL     1       7.313  -2.460  -3.437  1.00  0.00    -0.481 OA
ATOM      5  H   UNL     1       6.742  -3.068  -2.843  1.00  0.00     0.296 HD
ENDBRANCH   2   4
ENDBRANCH   1   2
BRANCH   1   6
ATOM      6  C   UNL     1       7.007  -0.139  -2.145  1.00  0.00     0.047 C 
BRANCH   6   7
ATOM      7  C   UNL     1       6.473   0.028  -0.795  1.00  0.00    -0.047 A 
ATOM      8  C   UNL     1       6.611  -0.967   0.145  1.00  0.00     0.004 A 
ATOM      9  C   UNL     1       5.828   1.199  -0.469  1.00  0.00     0.004 A 
ATOM     10  C   UNL     1       6.077  -0.737   1.415  1.00  0.00     0.000 A 
ATOM     11  C   UNL     1       5.300   1.424   0.787  1.00  0.00     0.000 A 
ATOM     12  C   UNL     1       5.434   0.432   1.734  1.00  0.00     0.000 A 
ENDBRANCH   6   7
ENDBRANCH   1   6
TORSDOF 4
ENDMDL
MODEL 2
REMARK VINA RESULT:      -7.2      0.131      1.732
REMARK SMILES O=C(O)CCc1ccccc1
REMARK SMILES IDX 4 1 2 2 1 3 3 4 5 6 6 7 7 8 11 9 8 10 10 11 9 12
REMARK H PARENT 3 5
REMARK Flexibility Score: inf
ROOT
ATOM      1  C   UNL     1       8.405  -0.613  -2.122  1.00  0.00     0.127 C 
ENDROOT
BRANCH   1   2
ATOM      2  C   UNL     1       8.382  -1.882  -2.886  1.00  0.00     0.303 C 
ATOM      3  O   UNL     1       7.299  -2.416  -3.229  1.00  0.00    -0.252 OA
BRANCH   2   4
ATOM      4  O   UNL     1       9.561  -2.516  -3.245  1.00  0.00    -0.481 OA
ATOM      5  H   UNL     1       9.742  -3.465  -2.907  1.00  0.00     0.296 HD
ENDBRANCH   2   4
ENDBRANCH   1   2
BRANCH   1   6
ATOM      6  C   UNL     1       7.014  -0.057  -2.091  1.00  0.00     0.047 C 
BRANCH   6   7
ATOM      7  C   UNL     1       6.463   0.093  -0.745  1.00  0.00    -0.047 A 
ATOM      8  C   UNL     1       5.822   1.251  -0.372  1.00  0.00     0.004 A 
ATOM      9  C   UNL     1       6.590  -0.943   0.151  1.00  0.00     0.004 A 
ATOM     10  C   UNL     1       5.319   1.324   0.929  1.00  0.00     0.000 A 
ATOM     11  C   UNL     1       6.092  -0.869   1.437  1.00  0.00     0.000 A 
ATOM     12  C   UNL     1       5.450   0.288   1.819  1.00  0.00     0.000 A 
ENDBRANCH   6   7
ENDBRANCH   1   6
TORSDOF 4
ENDMDL
MODEL 3
REMARK VINA RESULT:      -7.1      0.854      1.046
REMARK SMILES O=C(O)CCc1ccccc1
REMARK SMILES IDX 4 1 2 2 1 3 3 4 5 6 6 7 7 8 11 9 8 10 10 11 9 12
REMARK H PARENT 3 5
REMARK Flexibility Score: inf
ROOT
ATOM      1  C   UNL     1       7.262  -1.288  -2.271  1.00  0.00     0.127 C 
ENDROOT
BRANCH   1   2
ATOM      2  C   UNL     1       8.719  -1.404  -2.519  1.00  0.00     0.303 C 
ATOM      3  O   UNL     1       9.524  -0.546  -2.079  1.00  0.00    -0.252 OA
BRANCH   2   4
ATOM      4  O   UNL     1       9.233  -2.466  -3.245  1.00  0.00    -0.481 OA
ATOM      5  H   UNL     1       8.900  -2.628  -4.199  1.00  0.00     0.296 HD
ENDBRANCH   2   4
ENDBRANCH   1   2
BRANCH   1   6
ATOM      6  C   UNL     1       6.954   0.138  -1.932  1.00  0.00     0.047 C 
BRANCH   6   7
ATOM      7  C   UNL     1       6.334   0.317  -0.621  1.00  0.00    -0.047 A 
ATOM      8  C   UNL     1       6.474  -0.638   0.360  1.00  0.00     0.004 A 
ATOM      9  C   UNL     1       5.606   1.458  -0.372  1.00  0.00     0.004 A 
ATOM     10  C   UNL     1       5.855  -0.400   1.589  1.00  0.00     0.000 A 
ATOM     11  C   UNL     1       4.995   1.691   0.844  1.00  0.00     0.000 A 
ATOM     12  C   UNL     1       5.130   0.739   1.831  1.00  0.00     0.000 A 
ENDBRANCH   6   7
ENDBRANCH   1   6
TORSDOF 4
ENDMDL
MODEL 4
REMARK VINA RESULT:      -6.7      3.352      5.050
REMARK SMILES O=C(O)CCc1ccccc1
REMARK SMILES IDX 4 1 2 2 1 3 3 4 5 6 6 7 7 8 11 9 8 10 10 11 9 12
REMARK H PARENT 3 5
REMARK Flexibility Score: inf
ROOT
ATOM      1  C   UNL     1       5.062   1.718   0.702  1.00  0.00     0.127 C 
ENDROOT
BRANCH   1   2
ATOM      2  C   UNL     1       4.584   1.032   1.926  1.00  0.00     0.303 C 
ATOM      3  O   UNL     1       5.282   0.157   2.495  1.00  0.00    -0.252 OA
BRANCH   2   4
ATOM      4  O   UNL     1       3.351   1.340   2.477  1.00  0.00    -0.481 OA
ATOM      5  H   UNL     1       2.901   2.227   2.234  1.00  0.00     0.296 HD
ENDBRANCH   2   4
ENDBRANCH   1   2
BRANCH   1   6
ATOM      6  C   UNL     1       6.560   1.746   0.732  1.00  0.00     0.047 C 
BRANCH   6   7
ATOM      7  C   UNL     1       7.190   1.000  -0.355  1.00  0.00    -0.047 A 
ATOM      8  C   UNL     1       8.509   1.212  -0.683  1.00  0.00     0.004 A 
ATOM      9  C   UNL     1       6.448   0.074  -1.053  1.00  0.00     0.004 A 
ATOM     10  C   UNL     1       9.046   0.463  -1.732  1.00  0.00     0.000 A 
ATOM     11  C   UNL     1       6.980  -0.665  -2.090  1.00  0.00     0.000 A 
ATOM     12  C   UNL     1       8.301  -0.458  -2.424  1.00  0.00     0.000 A 
ENDBRANCH   6   7
ENDBRANCH   1   6
TORSDOF 4
ENDMDL
MODEL 5
REMARK VINA RESULT:      -6.6      1.920      2.651
REMARK SMILES O=C(O)CCc1ccccc1
REMARK SMILES IDX 4 1 2 2 1 3 3 4 5 6 6 7 7 8 11 9 8 10 10 11 9 12
REMARK H PARENT 3 5
REMARK Flexibility Score: inf
ROOT
ATOM      1  C   UNL     1       8.229   0.302  -2.246  1.00  0.00     0.127 C 
ENDROOT
BRANCH   1   2
ATOM      2  C   UNL     1       9.349   0.358  -1.277  1.00  0.00     0.303 C 
ATOM      3  O   UNL     1       9.403  -0.428  -0.299  1.00  0.00    -0.252 OA
BRANCH   2   4
ATOM      4  O   UNL     1      10.370   1.283  -1.424  1.00  0.00    -0.481 OA
ATOM      5  H   UNL     1      10.372   1.901  -2.240  1.00  0.00     0.296 HD
ENDBRANCH   2   4
ENDBRANCH   1   2
BRANCH   1   6
ATOM      6  C   UNL     1       7.094  -0.441  -1.611  1.00  0.00     0.047 C 
BRANCH   6   7
ATOM      7  C   UNL     1       6.315   0.359  -0.666  1.00  0.00    -0.047 A 
ATOM      8  C   UNL     1       5.797   1.578  -1.037  1.00  0.00     0.004 A 
ATOM      9  C   UNL     1       6.100  -0.123   0.604  1.00  0.00     0.004 A 
ATOM     10  C   UNL     1       5.062   2.287  -0.084  1.00  0.00     0.000 A 
ATOM     11  C   UNL     1       5.373   0.579   1.545  1.00  0.00     0.000 A 
ATOM     12  C   UNL     1       4.852   1.802   1.182  1.00  0.00     0.000 A 
ENDBRANCH   6   7
ENDBRANCH   1   6
TORSDOF 4
ENDMDL
