@<TRIPOS>MOLECULE
/home/cewinharhar/GITHUB/reincatalyze/data/processed/docking_pred/2023-Apr-26-1657_maxeplen10_maxtrainstep1000_exh32_gamma099_lrac9e-4_lrcr1e-3/d4292dbdc665c4d20b6271b363b9823f318ec372_ligand_2.pdbqt
 12 12 0 0 0
SMALL
GASTEIGER

@<TRIPOS>ATOM
      1  C          5.0620    1.7180    0.7020 C.3     1  UNL1        0.1270
      2  C          4.5840    1.0320    1.9260 C.2     1  UNL1        0.3030
      3  O          5.2820    0.1570    2.4950 O.2     1  UNL1       -0.2520
      4  O          3.3510    1.3400    2.4770 O.3     1  UNL1       -0.4810
      5  H          2.9010    2.2270    2.2340 H       1  UNL1        0.2960
      6  C          6.5600    1.7460    0.7320 C.3     1  UNL1        0.0470
      7  C          7.1900    1.0000   -0.3550 C.2     1  UNL1       -0.0470
      8  C          8.5090    1.2120   -0.6830 C.2     1  UNL1        0.0040
      9  C          6.4480    0.0740   -1.0530 C.2     1  UNL1        0.0040
     10  C          9.0460    0.4630   -1.7320 C.2     1  UNL1        0.0000
     11  C          6.9800   -0.6650   -2.0900 C.2     1  UNL1        0.0000
     12  C          8.3010   -0.4580   -2.4240 C.2     1  UNL1        0.0000
@<TRIPOS>BOND
     1    12    11    2
     2    12    10    1
     3    11     9    1
     4    10     8    2
     5     9     7    2
     6     8     7    1
     7     7     6    1
     8     1     6    1
     9     1     2    1
    10     2     4    1
    11     2     3    2
    12     5     4    1
