@<TRIPOS>MOLECULE
/home/cewinharhar/GITHUB/reincatalyze/data/processed/docking_pred/2023-Apr-26-1657_maxeplen10_maxtrainstep1000_exh32_gamma099_lrac9e-4_lrcr1e-3/d4292dbdc665c4d20b6271b363b9823f318ec372_ligand_2.pdbqt
 12 12 0 0 0
SMALL
GASTEIGER

@<TRIPOS>ATOM
      1  C          8.2290    0.3020   -2.2460 C.3     1  UNL1        0.1270
      2  C          9.3490    0.3580   -1.2770 C.2     1  UNL1        0.3030
      3  O          9.4030   -0.4280   -0.2990 O.2     1  UNL1       -0.2520
      4  O         10.3700    1.2830   -1.4240 O.3     1  UNL1       -0.4810
      5  H         10.3720    1.9010   -2.2400 H       1  UNL1        0.2960
      6  C          7.0940   -0.4410   -1.6110 C.3     1  UNL1        0.0470
      7  C          6.3150    0.3590   -0.6660 C.2     1  UNL1       -0.0470
      8  C          5.7970    1.5780   -1.0370 C.2     1  UNL1        0.0040
      9  C          6.1000   -0.1230    0.6040 C.2     1  UNL1        0.0040
     10  C          5.0620    2.2870   -0.0840 C.2     1  UNL1        0.0000
     11  C          5.3730    0.5790    1.5450 C.2     1  UNL1        0.0000
     12  C          4.8520    1.8020    1.1820 C.2     1  UNL1        0.0000
@<TRIPOS>BOND
     1     1     6    1
     2     1     2    1
     3     5     4    1
     4     6     7    1
     5     4     2    1
     6     2     3    2
     7     8     7    2
     8     8    10    1
     9     7     9    1
    10    10    12    2
    11     9    11    2
    12    12    11    1
