@<TRIPOS>MOLECULE
/home/cewinharhar/GITHUB/reincatalyze/data/processed/docking_pred/2023-Apr-26-1657_maxeplen10_maxtrainstep1000_exh32_gamma099_lrac9e-4_lrcr1e-3/d4292dbdc665c4d20b6271b363b9823f318ec372_ligand_2.pdbqt
 12 12 0 0 0
SMALL
GASTEIGER

@<TRIPOS>ATOM
      1  C          8.4050   -0.6130   -2.1220 C.3     1  UNL1        0.1270
      2  C          8.3820   -1.8820   -2.8860 C.2     1  UNL1        0.3030
      3  O          7.2990   -2.4160   -3.2290 O.2     1  UNL1       -0.2520
      4  O          9.5610   -2.5160   -3.2450 O.3     1  UNL1       -0.4810
      5  H          9.7420   -3.4650   -2.9070 H       1  UNL1        0.2960
      6  C          7.0140   -0.0570   -2.0910 C.3     1  UNL1        0.0470
      7  C          6.4630    0.0930   -0.7450 C.2     1  UNL1       -0.0470
      8  C          5.8220    1.2510   -0.3720 C.2     1  UNL1        0.0040
      9  C          6.5900   -0.9430    0.1510 C.2     1  UNL1        0.0040
     10  C          5.3190    1.3240    0.9290 C.2     1  UNL1        0.0000
     11  C          6.0920   -0.8690    1.4370 C.2     1  UNL1        0.0000
     12  C          5.4500    0.2880    1.8190 C.2     1  UNL1        0.0000
@<TRIPOS>BOND
     1     4     5    1
     2     4     2    1
     3     3     2    2
     4     2     1    1
     5     1     6    1
     6     6     7    1
     7     7     8    2
     8     7     9    1
     9     8    10    1
    10     9    11    2
    11    10    12    2
    12    11    12    1
