@<TRIPOS>MOLECULE
/home/cewinharhar/GITHUB/reincatalyze/data/processed/docking_pred/2023-Apr-26-1657_maxeplen10_maxtrainstep1000_exh32_gamma099_lrac9e-4_lrcr1e-3/d4292dbdc665c4d20b6271b363b9823f318ec372_ligand_2.pdbqt
 12 12 0 0 0
SMALL
GASTEIGER

@<TRIPOS>ATOM
      1  C          7.2620   -1.2880   -2.2710 C.3     1  UNL1        0.1270
      2  C          8.7190   -1.4040   -2.5190 C.2     1  UNL1        0.3030
      3  O          9.5240   -0.5460   -2.0790 O.2     1  UNL1       -0.2520
      4  O          9.2330   -2.4660   -3.2450 O.3     1  UNL1       -0.4810
      5  H          8.9000   -2.6280   -4.1990 H       1  UNL1        0.2960
      6  C          6.9540    0.1380   -1.9320 C.3     1  UNL1        0.0470
      7  C          6.3340    0.3170   -0.6210 C.2     1  UNL1       -0.0470
      8  C          6.4740   -0.6380    0.3600 C.2     1  UNL1        0.0040
      9  C          5.6060    1.4580   -0.3720 C.2     1  UNL1        0.0040
     10  C          5.8550   -0.4000    1.5890 C.2     1  UNL1        0.0000
     11  C          4.9950    1.6910    0.8440 C.2     1  UNL1        0.0000
     12  C          5.1300    0.7390    1.8310 C.2     1  UNL1        0.0000
@<TRIPOS>BOND
     1     5     4    1
     2     4     2    1
     3     2     1    1
     4     2     3    2
     5     1     6    1
     6     6     7    1
     7     7     9    2
     8     7     8    1
     9     9    11    1
    10     8    10    2
    11    11    12    2
    12    10    12    1
