@<TRIPOS>MOLECULE
/home/cewinharhar/GITHUB/reincatalyze/data/processed/docking_pred/2023-Apr-26-1657_maxeplen10_maxtrainstep1000_exh32_gamma099_lrac9e-4_lrcr1e-3/d475abeaf77d1f7cad9c775310647ad941a1fd31_ligand_2.pdbqt
 12 12 0 0 0
SMALL
GASTEIGER

@<TRIPOS>ATOM
      1  C          5.4180    2.8520    0.0530 C.3     1  UNL1        0.1270
      2  C          6.2190    3.7980    0.8660 C.2     1  UNL1        0.3030
      3  O          6.2180    3.7410    2.1210 O.2     1  UNL1       -0.2520
      4  O          6.9940    4.7750    0.2610 O.3     1  UNL1       -0.4810
      5  H          7.1610    4.7270   -0.7480 H       1  UNL1        0.2960
      6  C          4.9250    1.7600    0.9520 C.3     1  UNL1        0.0470
      7  C          5.7520    0.5540    0.9310 C.2     1  UNL1       -0.0470
      8  C          6.5000    0.2340   -0.1770 C.2     1  UNL1        0.0040
      9  C          5.7770   -0.2620    2.0380 C.2     1  UNL1        0.0040
     10  C          7.2670   -0.9320   -0.1270 C.2     1  UNL1        0.0000
     11  C          6.5350   -1.4150    2.0870 C.2     1  UNL1        0.0000
     12  C          7.2880   -1.7430    0.9800 C.2     1  UNL1        0.0000
@<TRIPOS>BOND
     1     5     4    1
     2     8    10    1
     3     8     7    2
     4    10    12    2
     5     1     2    1
     6     1     6    1
     7     4     2    1
     8     2     3    2
     9     7     6    1
    10     7     9    1
    11    12    11    1
    12     9    11    2
