@<TRIPOS>MOLECULE
/home/cewinharhar/GITHUB/reincatalyze/data/processed/docking_pred/2023-Apr-26-1657_maxeplen10_maxtrainstep1000_exh32_gamma099_lrac9e-4_lrcr1e-3/d475abeaf77d1f7cad9c775310647ad941a1fd31_ligand_2.pdbqt
 12 12 0 0 0
SMALL
GASTEIGER

@<TRIPOS>ATOM
      1  C          4.9940    1.8090    0.7050 C.3     1  UNL1        0.1270
      2  C          4.4830    1.1220    1.9150 C.2     1  UNL1        0.3030
      3  O          5.1470    0.2170    2.4790 O.2     1  UNL1       -0.2520
      4  O          3.2540    1.4600    2.4580 O.3     1  UNL1       -0.4810
      5  H          2.4370    0.8810    2.2470 H       1  UNL1        0.2960
      6  C          6.4910    1.7950    0.7530 C.3     1  UNL1        0.0470
      7  C          7.1140    1.0410   -0.3340 C.2     1  UNL1       -0.0470
      8  C          6.3820    0.1410   -1.0750 C.2     1  UNL1        0.0040
      9  C          8.4460    1.2410   -0.6130 C.2     1  UNL1        0.0040
     10  C          7.0420   -0.5430   -2.0990 C.2     1  UNL1        0.0000
     11  C          9.0960    0.5630   -1.6260 C.2     1  UNL1        0.0000
     12  C          8.3710   -0.3400   -2.3720 C.2     1  UNL1        0.0000
@<TRIPOS>BOND
     1    12    10    2
     2    12    11    1
     3    10     8    1
     4    11     9    2
     5     8     7    2
     6     9     7    1
     7     7     6    1
     8     1     6    1
     9     1     2    1
    10     2     4    1
    11     2     3    2
    12     5     4    1
