@<TRIPOS>MOLECULE
/home/cewinharhar/GITHUB/reincatalyze/data/processed/docking_pred/2023-Apr-26-1657_maxeplen10_maxtrainstep1000_exh32_gamma099_lrac9e-4_lrcr1e-3/d475abeaf77d1f7cad9c775310647ad941a1fd31_ligand_2.pdbqt
 12 12 0 0 0
SMALL
GASTEIGER

@<TRIPOS>ATOM
      1  C          8.4470   -0.6080   -2.1630 C.3     1  UNL1        0.1270
      2  C          8.4700   -1.8940   -2.8990 C.2     1  UNL1        0.3030
      3  O          9.5420   -2.5240   -3.0760 O.2     1  UNL1       -0.2520
      4  O          7.3040   -2.4380   -3.4150 O.3     1  UNL1       -0.4810
      5  H          6.5560   -2.7170   -2.7750 H       1  UNL1        0.2960
      6  C          7.0340   -0.1100   -2.1300 C.3     1  UNL1        0.0470
      7  C          6.4870    0.0400   -0.7830 C.2     1  UNL1       -0.0470
      8  C          6.6040   -0.9720    0.1410 C.2     1  UNL1        0.0040
      9  C          5.8530    1.2130   -0.4430 C.2     1  UNL1        0.0040
     10  C          6.0590   -0.7590    1.4090 C.2     1  UNL1        0.0000
     11  C          5.3140    1.4210    0.8110 C.2     1  UNL1        0.0000
     12  C          5.4260    0.4120    1.7420 C.2     1  UNL1        0.0000
@<TRIPOS>BOND
     1     4     2    1
     2     4     5    1
     3     3     2    2
     4     2     1    1
     5     1     6    1
     6     6     7    1
     7     7     9    2
     8     7     8    1
     9     9    11    1
    10     8    10    2
    11    11    12    2
    12    10    12    1
