@<TRIPOS>MOLECULE
/home/cewinharhar/GITHUB/reincatalyze/data/processed/docking_pred/2023-Apr-26-1657_maxeplen10_maxtrainstep1000_exh32_gamma099_lrac9e-4_lrcr1e-3/d475abeaf77d1f7cad9c775310647ad941a1fd31_ligand_2.pdbqt
 12 12 0 0 0
SMALL
GASTEIGER

@<TRIPOS>ATOM
      1  C          8.4700   -0.5740   -2.2220 C.3     1  UNL1        0.1270
      2  C          8.4960   -1.8750   -2.9310 C.2     1  UNL1        0.3030
      3  O          9.5700   -2.5060   -3.0940 O.2     1  UNL1       -0.2520
      4  O          7.3320   -2.4320   -3.4350 O.3     1  UNL1       -0.4810
      5  H          7.3840   -3.3040   -3.9680 H       1  UNL1        0.2960
      6  C          7.0550   -0.0810   -2.1940 C.3     1  UNL1        0.0470
      7  C          6.5100    0.0830   -0.8480 C.2     1  UNL1       -0.0470
      8  C          5.8610    1.2420   -0.4880 C.2     1  UNL1        0.0040
      9  C          6.6490   -0.9390    0.0630 C.2     1  UNL1        0.0040
     10  C          5.3640    1.3290    0.8140 C.2     1  UNL1        0.0000
     11  C          6.1570   -0.8510    1.3500 C.2     1  UNL1        0.0000
     12  C          5.5070    0.3070    1.7180 C.2     1  UNL1        0.0000
@<TRIPOS>BOND
     1     5     4    1
     2     4     2    1
     3     3     2    2
     4     2     1    1
     5     1     6    1
     6     6     7    1
     7     7     8    2
     8     7     9    1
     9     8    10    1
    10     9    11    2
    11    10    12    2
    12    11    12    1
