MODEL 1
REMARK VINA RESULT:      -7.4      0.000      0.000
REMARK SMILES O=C(O)CCc1ccccc1
REMARK SMILES IDX 4 1 2 2 1 3 3 4 5 6 6 7 7 8 11 9 8 10 10 11 9 12
REMARK H PARENT 3 5
REMARK Flexibility Score: inf
ROOT
ATOM      1  C   UNL     1       8.447  -0.608  -2.163  1.00  0.00     0.127 C 
ENDROOT
BRANCH   1   2
ATOM      2  C   UNL     1       8.470  -1.894  -2.899  1.00  0.00     0.303 C 
ATOM      3  O   UNL     1       9.542  -2.524  -3.076  1.00  0.00    -0.252 OA
BRANCH   2   4
ATOM      4  O   UNL     1       7.304  -2.438  -3.415  1.00  0.00    -0.481 OA
ATOM      5  H   UNL     1       6.556  -2.717  -2.775  1.00  0.00     0.296 HD
ENDBRANCH   2   4
ENDBRANCH   1   2
BRANCH   1   6
ATOM      6  C   UNL     1       7.034  -0.110  -2.130  1.00  0.00     0.047 C 
BRANCH   6   7
ATOM      7  C   UNL     1       6.487   0.040  -0.783  1.00  0.00    -0.047 A 
ATOM      8  C   UNL     1       6.604  -0.972   0.141  1.00  0.00     0.004 A 
ATOM      9  C   UNL     1       5.853   1.213  -0.443  1.00  0.00     0.004 A 
ATOM     10  C   UNL     1       6.059  -0.759   1.409  1.00  0.00     0.000 A 
ATOM     11  C   UNL     1       5.314   1.421   0.811  1.00  0.00     0.000 A 
ATOM     12  C   UNL     1       5.426   0.412   1.742  1.00  0.00     0.000 A 
ENDBRANCH   6   7
ENDBRANCH   1   6
TORSDOF 4
ENDMDL
MODEL 2
REMARK VINA RESULT:      -7.3      0.088      1.439
REMARK SMILES O=C(O)CCc1ccccc1
REMARK SMILES IDX 4 1 2 2 1 3 3 4 5 6 6 7 7 8 11 9 8 10 10 11 9 12
REMARK H PARENT 3 5
REMARK Flexibility Score: inf
ROOT
ATOM      1  C   UNL     1       8.470  -0.574  -2.222  1.00  0.00     0.127 C 
ENDROOT
BRANCH   1   2
ATOM      2  C   UNL     1       8.496  -1.875  -2.931  1.00  0.00     0.303 C 
ATOM      3  O   UNL     1       9.570  -2.506  -3.094  1.00  0.00    -0.252 OA
BRANCH   2   4
ATOM      4  O   UNL     1       7.332  -2.432  -3.435  1.00  0.00    -0.481 OA
ATOM      5  H   UNL     1       7.384  -3.304  -3.968  1.00  0.00     0.296 HD
ENDBRANCH   2   4
ENDBRANCH   1   2
BRANCH   1   6
ATOM      6  C   UNL     1       7.055  -0.081  -2.194  1.00  0.00     0.047 C 
BRANCH   6   7
ATOM      7  C   UNL     1       6.510   0.083  -0.848  1.00  0.00    -0.047 A 
ATOM      8  C   UNL     1       5.861   1.242  -0.488  1.00  0.00     0.004 A 
ATOM      9  C   UNL     1       6.649  -0.939   0.063  1.00  0.00     0.004 A 
ATOM     10  C   UNL     1       5.364   1.329   0.814  1.00  0.00     0.000 A 
ATOM     11  C   UNL     1       6.157  -0.851   1.350  1.00  0.00     0.000 A 
ATOM     12  C   UNL     1       5.507   0.307   1.718  1.00  0.00     0.000 A 
ENDBRANCH   6   7
ENDBRANCH   1   6
TORSDOF 4
ENDMDL
MODEL 3
REMARK VINA RESULT:      -6.8      3.373      5.061
REMARK SMILES O=C(O)CCc1ccccc1
REMARK SMILES IDX 4 1 2 2 1 3 3 4 5 6 6 7 7 8 11 9 8 10 10 11 9 12
REMARK H PARENT 3 5
REMARK Flexibility Score: inf
ROOT
ATOM      1  C   UNL     1       4.994   1.809   0.705  1.00  0.00     0.127 C 
ENDROOT
BRANCH   1   2
ATOM      2  C   UNL     1       4.483   1.122   1.915  1.00  0.00     0.303 C 
ATOM      3  O   UNL     1       5.147   0.217   2.479  1.00  0.00    -0.252 OA
BRANCH   2   4
ATOM      4  O   UNL     1       3.254   1.460   2.458  1.00  0.00    -0.481 OA
ATOM      5  H   UNL     1       2.437   0.881   2.247  1.00  0.00     0.296 HD
ENDBRANCH   2   4
ENDBRANCH   1   2
BRANCH   1   6
ATOM      6  C   UNL     1       6.491   1.795   0.753  1.00  0.00     0.047 C 
BRANCH   6   7
ATOM      7  C   UNL     1       7.114   1.041  -0.334  1.00  0.00    -0.047 A 
ATOM      8  C   UNL     1       6.382   0.141  -1.075  1.00  0.00     0.004 A 
ATOM      9  C   UNL     1       8.446   1.241  -0.613  1.00  0.00     0.004 A 
ATOM     10  C   UNL     1       7.042  -0.543  -2.099  1.00  0.00     0.000 A 
ATOM     11  C   UNL     1       9.096   0.563  -1.626  1.00  0.00     0.000 A 
ATOM     12  C   UNL     1       8.371  -0.340  -2.372  1.00  0.00     0.000 A 
ENDBRANCH   6   7
ENDBRANCH   1   6
TORSDOF 4
ENDMDL
MODEL 4
REMARK VINA RESULT:      -6.7      1.907      2.272
REMARK SMILES O=C(O)CCc1ccccc1
REMARK SMILES IDX 4 1 2 2 1 3 3 4 5 6 6 7 7 8 11 9 8 10 10 11 9 12
REMARK H PARENT 3 5
REMARK Flexibility Score: inf
ROOT
ATOM      1  C   UNL     1       8.161   0.257  -2.213  1.00  0.00     0.127 C 
ENDROOT
BRANCH   1   2
ATOM      2  C   UNL     1       9.313   0.370  -1.288  1.00  0.00     0.303 C 
ATOM      3  O   UNL     1       9.439  -0.404  -0.307  1.00  0.00    -0.252 OA
BRANCH   2   4
ATOM      4  O   UNL     1      10.287   1.336  -1.482  1.00  0.00    -0.481 OA
ATOM      5  H   UNL     1      10.847   1.651  -0.685  1.00  0.00     0.296 HD
ENDBRANCH   2   4
ENDBRANCH   1   2
BRANCH   1   6
ATOM      6  C   UNL     1       7.081  -0.522  -1.526  1.00  0.00     0.047 C 
BRANCH   6   7
ATOM      7  C   UNL     1       6.312   0.255  -0.556  1.00  0.00    -0.047 A 
ATOM      8  C   UNL     1       6.096  -0.222   0.716  1.00  0.00     0.004 A 
ATOM      9  C   UNL     1       5.803   1.478  -0.928  1.00  0.00     0.004 A 
ATOM     10  C   UNL     1       5.354   0.574   1.590  1.00  0.00     0.000 A 
ATOM     11  C   UNL     1       5.068   2.264  -0.063  1.00  0.00     0.000 A 
ATOM     12  C   UNL     1       4.848   1.793   1.213  1.00  0.00     0.000 A 
ENDBRANCH   6   7
ENDBRANCH   1   6
TORSDOF 4
ENDMDL
MODEL 5
REMARK VINA RESULT:      -6.6      3.820      5.004
REMARK SMILES O=C(O)CCc1ccccc1
REMARK SMILES IDX 4 1 2 2 1 3 3 4 5 6 6 7 7 8 11 9 8 10 10 11 9 12
REMARK H PARENT 3 5
REMARK Flexibility Score: inf
ROOT
ATOM      1  C   UNL     1       5.418   2.852   0.053  1.00  0.00     0.127 C 
ENDROOT
BRANCH   1   2
ATOM      2  C   UNL     1       6.219   3.798   0.866  1.00  0.00     0.303 C 
ATOM      3  O   UNL     1       6.218   3.741   2.121  1.00  0.00    -0.252 OA
BRANCH   2   4
ATOM      4  O   UNL     1       6.994   4.775   0.261  1.00  0.00    -0.481 OA
ATOM      5  H   UNL     1       7.161   4.727  -0.748  1.00  0.00     0.296 HD
ENDBRANCH   2   4
ENDBRANCH   1   2
BRANCH   1   6
ATOM      6  C   UNL     1       4.925   1.760   0.952  1.00  0.00     0.047 C 
BRANCH   6   7
ATOM      7  C   UNL     1       5.752   0.554   0.931  1.00  0.00    -0.047 A 
ATOM      8  C   UNL     1       6.500   0.234  -0.177  1.00  0.00     0.004 A 
ATOM      9  C   UNL     1       5.777  -0.262   2.038  1.00  0.00     0.004 A 
ATOM     10  C   UNL     1       7.267  -0.932  -0.127  1.00  0.00     0.000 A 
ATOM     11  C   UNL     1       6.535  -1.415   2.087  1.00  0.00     0.000 A 
ATOM     12  C   UNL     1       7.288  -1.743   0.980  1.00  0.00     0.000 A 
ENDBRANCH   6   7
ENDBRANCH   1   6
TORSDOF 4
ENDMDL
