@<TRIPOS>MOLECULE
/home/cewinharhar/GITHUB/reincatalyze/data/processed/docking_pred/2023-Apr-26-1657_maxeplen10_maxtrainstep1000_exh32_gamma099_lrac9e-4_lrcr1e-3/d475abeaf77d1f7cad9c775310647ad941a1fd31_ligand_2.pdbqt
 12 12 0 0 0
SMALL
GASTEIGER

@<TRIPOS>ATOM
      1  C          8.1610    0.2570   -2.2130 C.3     1  UNL1        0.1270
      2  C          9.3130    0.3700   -1.2880 C.2     1  UNL1        0.3030
      3  O          9.4390   -0.4040   -0.3070 O.2     1  UNL1       -0.2520
      4  O         10.2870    1.3360   -1.4820 O.3     1  UNL1       -0.4810
      5  H         10.8470    1.6510   -0.6850 H       1  UNL1        0.2960
      6  C          7.0810   -0.5220   -1.5260 C.3     1  UNL1        0.0470
      7  C          6.3120    0.2550   -0.5560 C.2     1  UNL1       -0.0470
      8  C          6.0960   -0.2220    0.7160 C.2     1  UNL1        0.0040
      9  C          5.8030    1.4780   -0.9280 C.2     1  UNL1        0.0040
     10  C          5.3540    0.5740    1.5900 C.2     1  UNL1        0.0000
     11  C          5.0680    2.2640   -0.0630 C.2     1  UNL1        0.0000
     12  C          4.8480    1.7930    1.2130 C.2     1  UNL1        0.0000
@<TRIPOS>BOND
     1     1     6    1
     2     1     2    1
     3     6     7    1
     4     4     2    1
     5     4     5    1
     6     2     3    2
     7     9     7    2
     8     9    11    1
     9     7     8    1
    10    11    12    2
    11     8    10    2
    12    12    10    1
