@<TRIPOS>MOLECULE
/home/cewinharhar/GITHUB/reincatalyze/data/processed/docking_pred/2023-Apr-26-1657_maxeplen10_maxtrainstep1000_exh32_gamma099_lrac9e-4_lrcr1e-3/d4c602a3745b48528a2ec664cc6a2c0711254731_ligand_2.pdbqt
 12 12 0 0 0
SMALL
GASTEIGER

@<TRIPOS>ATOM
      1  C          8.1960    0.2500   -2.1520 C.3     1  UNL1        0.1270
      2  C          9.3560    0.3800   -1.2380 C.2     1  UNL1        0.3030
      3  O          9.4730   -0.3550   -0.2260 O.2     1  UNL1       -0.2520
      4  O         10.3460    1.3190   -1.4770 O.3     1  UNL1       -0.4810
      5  H         11.2390    1.0150   -1.8750 H       1  UNL1        0.2960
      6  C          7.1420   -0.5610   -1.4610 C.3     1  UNL1        0.0470
      7  C          6.3570    0.1920   -0.4850 C.2     1  UNL1       -0.0470
      8  C          6.1670   -0.2920    0.7890 C.2     1  UNL1        0.0040
      9  C          5.8060    1.3980   -0.8530 C.2     1  UNL1        0.0040
     10  C          5.4070    0.4810    1.6690 C.2     1  UNL1        0.0000
     11  C          5.0550    2.1600    0.0190 C.2     1  UNL1        0.0000
     12  C          4.8600    1.6830    1.2970 C.2     1  UNL1        0.0000
@<TRIPOS>BOND
     1     1     6    1
     2     1     2    1
     3     5     4    1
     4     4     2    1
     5     6     7    1
     6     2     3    2
     7     9     7    2
     8     9    11    1
     9     7     8    1
    10    11    12    2
    11     8    10    2
    12    12    10    1
