MODEL 1
REMARK VINA RESULT:      -7.4      0.000      0.000
REMARK SMILES O=C(O)CCc1ccccc1
REMARK SMILES IDX 4 1 2 2 1 3 3 4 5 6 6 7 7 8 11 9 8 10 10 11 9 12
REMARK H PARENT 3 5
REMARK Flexibility Score: inf
ROOT
ATOM      1  C   UNL     1       8.461  -0.637  -2.117  1.00  0.00     0.127 C 
ENDROOT
BRANCH   1   2
ATOM      2  C   UNL     1       8.492  -1.894  -2.900  1.00  0.00     0.303 C 
ATOM      3  O   UNL     1       9.571  -2.501  -3.114  1.00  0.00    -0.252 OA
BRANCH   2   4
ATOM      4  O   UNL     1       7.328  -2.436  -3.420  1.00  0.00    -0.481 OA
ATOM      5  H   UNL     1       7.381  -3.038  -4.247  1.00  0.00     0.296 HD
ENDBRANCH   2   4
ENDBRANCH   1   2
BRANCH   1   6
ATOM      6  C   UNL     1       7.055  -0.119  -2.114  1.00  0.00     0.047 C 
BRANCH   6   7
ATOM      7  C   UNL     1       6.489   0.058  -0.778  1.00  0.00    -0.047 A 
ATOM      8  C   UNL     1       6.609  -0.929   0.173  1.00  0.00     0.004 A 
ATOM      9  C   UNL     1       5.832   1.229  -0.476  1.00  0.00     0.004 A 
ATOM     10  C   UNL     1       6.045  -0.692   1.428  1.00  0.00     0.000 A 
ATOM     11  C   UNL     1       5.275   1.461   0.765  1.00  0.00     0.000 A 
ATOM     12  C   UNL     1       5.390   0.477   1.723  1.00  0.00     0.000 A 
ENDBRANCH   6   7
ENDBRANCH   1   6
TORSDOF 4
ENDMDL
MODEL 2
REMARK VINA RESULT:      -7.3      0.119      1.440
REMARK SMILES O=C(O)CCc1ccccc1
REMARK SMILES IDX 4 1 2 2 1 3 3 4 5 6 6 7 7 8 11 9 8 10 10 11 9 12
REMARK H PARENT 3 5
REMARK Flexibility Score: inf
ROOT
ATOM      1  C   UNL     1       8.434  -0.577  -2.190  1.00  0.00     0.127 C 
ENDROOT
BRANCH   1   2
ATOM      2  C   UNL     1       8.479  -1.867  -2.917  1.00  0.00     0.303 C 
ATOM      3  O   UNL     1       9.563  -2.477  -3.094  1.00  0.00    -0.252 OA
BRANCH   2   4
ATOM      4  O   UNL     1       7.322  -2.438  -3.422  1.00  0.00    -0.481 OA
ATOM      5  H   UNL     1       7.370  -2.986  -4.285  1.00  0.00     0.296 HD
ENDBRANCH   2   4
ENDBRANCH   1   2
BRANCH   1   6
ATOM      6  C   UNL     1       7.012  -0.109  -2.149  1.00  0.00     0.047 C 
BRANCH   6   7
ATOM      7  C   UNL     1       6.481   0.062  -0.797  1.00  0.00    -0.047 A 
ATOM      8  C   UNL     1       5.862   1.233  -0.427  1.00  0.00     0.004 A 
ATOM      9  C   UNL     1       6.605  -0.967   0.107  1.00  0.00     0.004 A 
ATOM     10  C   UNL     1       5.378   1.326   0.880  1.00  0.00     0.000 A 
ATOM     11  C   UNL     1       6.126  -0.874   1.399  1.00  0.00     0.000 A 
ATOM     12  C   UNL     1       5.505   0.297   1.778  1.00  0.00     0.000 A 
ENDBRANCH   6   7
ENDBRANCH   1   6
TORSDOF 4
ENDMDL
MODEL 3
REMARK VINA RESULT:      -6.8      3.372      5.069
REMARK SMILES O=C(O)CCc1ccccc1
REMARK SMILES IDX 4 1 2 2 1 3 3 4 5 6 6 7 7 8 11 9 8 10 10 11 9 12
REMARK H PARENT 3 5
REMARK Flexibility Score: inf
ROOT
ATOM      1  C   UNL     1       5.020   1.793   0.711  1.00  0.00     0.127 C 
ENDROOT
BRANCH   1   2
ATOM      2  C   UNL     1       4.488   1.111   1.915  1.00  0.00     0.303 C 
ATOM      3  O   UNL     1       5.135   0.197   2.484  1.00  0.00    -0.252 OA
BRANCH   2   4
ATOM      4  O   UNL     1       3.259   1.466   2.447  1.00  0.00    -0.481 OA
ATOM      5  H   UNL     1       3.072   2.449   2.664  1.00  0.00     0.296 HD
ENDBRANCH   2   4
ENDBRANCH   1   2
BRANCH   1   6
ATOM      6  C   UNL     1       6.516   1.745   0.766  1.00  0.00     0.047 C 
BRANCH   6   7
ATOM      7  C   UNL     1       7.128   1.000  -0.333  1.00  0.00    -0.047 A 
ATOM      8  C   UNL     1       6.398   0.082  -1.053  1.00  0.00     0.004 A 
ATOM      9  C   UNL     1       8.449   1.226  -0.644  1.00  0.00     0.004 A 
ATOM     10  C   UNL     1       7.047  -0.593  -2.089  1.00  0.00     0.000 A 
ATOM     11  C   UNL     1       9.089   0.557  -1.669  1.00  0.00     0.000 A 
ATOM     12  C   UNL     1       8.365  -0.364  -2.394  1.00  0.00     0.000 A 
ENDBRANCH   6   7
ENDBRANCH   1   6
TORSDOF 4
ENDMDL
MODEL 4
REMARK VINA RESULT:      -6.7      3.833      5.008
REMARK SMILES O=C(O)CCc1ccccc1
REMARK SMILES IDX 4 1 2 2 1 3 3 4 5 6 6 7 7 8 11 9 8 10 10 11 9 12
REMARK H PARENT 3 5
REMARK Flexibility Score: inf
ROOT
ATOM      1  C   UNL     1       5.394   2.910   0.006  1.00  0.00     0.127 C 
ENDROOT
BRANCH   1   2
ATOM      2  C   UNL     1       6.211   3.879   0.774  1.00  0.00     0.303 C 
ATOM      3  O   UNL     1       6.876   4.773   0.195  1.00  0.00    -0.252 OA
BRANCH   2   4
ATOM      4  O   UNL     1       6.264   3.823   2.157  1.00  0.00    -0.481 OA
ATOM      5  H   UNL     1       6.643   4.620   2.677  1.00  0.00     0.296 HD
ENDBRANCH   2   4
ENDBRANCH   1   2
BRANCH   1   6
ATOM      6  C   UNL     1       4.889   1.865   0.953  1.00  0.00     0.047 C 
BRANCH   6   7
ATOM      7  C   UNL     1       5.684   0.637   0.962  1.00  0.00    -0.047 A 
ATOM      8  C   UNL     1       6.364   0.232  -0.163  1.00  0.00     0.004 A 
ATOM      9  C   UNL     1       5.747  -0.113   2.113  1.00  0.00     0.004 A 
ATOM     10  C   UNL     1       7.104  -0.950  -0.082  1.00  0.00     0.000 A 
ATOM     11  C   UNL     1       6.479  -1.281   2.191  1.00  0.00     0.000 A 
ATOM     12  C   UNL     1       7.163  -1.695   1.069  1.00  0.00     0.000 A 
ENDBRANCH   6   7
ENDBRANCH   1   6
TORSDOF 4
ENDMDL
MODEL 5
REMARK VINA RESULT:      -6.6      1.935      2.261
REMARK SMILES O=C(O)CCc1ccccc1
REMARK SMILES IDX 4 1 2 2 1 3 3 4 5 6 6 7 7 8 11 9 8 10 10 11 9 12
REMARK H PARENT 3 5
REMARK Flexibility Score: inf
ROOT
ATOM      1  C   UNL     1       8.196   0.250  -2.152  1.00  0.00     0.127 C 
ENDROOT
BRANCH   1   2
ATOM      2  C   UNL     1       9.356   0.380  -1.238  1.00  0.00     0.303 C 
ATOM      3  O   UNL     1       9.473  -0.355  -0.226  1.00  0.00    -0.252 OA
BRANCH   2   4
ATOM      4  O   UNL     1      10.346   1.319  -1.477  1.00  0.00    -0.481 OA
ATOM      5  H   UNL     1      11.239   1.015  -1.875  1.00  0.00     0.296 HD
ENDBRANCH   2   4
ENDBRANCH   1   2
BRANCH   1   6
ATOM      6  C   UNL     1       7.142  -0.561  -1.461  1.00  0.00     0.047 C 
BRANCH   6   7
ATOM      7  C   UNL     1       6.357   0.192  -0.485  1.00  0.00    -0.047 A 
ATOM      8  C   UNL     1       6.167  -0.292   0.789  1.00  0.00     0.004 A 
ATOM      9  C   UNL     1       5.806   1.398  -0.853  1.00  0.00     0.004 A 
ATOM     10  C   UNL     1       5.407   0.481   1.669  1.00  0.00     0.000 A 
ATOM     11  C   UNL     1       5.055   2.160   0.019  1.00  0.00     0.000 A 
ATOM     12  C   UNL     1       4.860   1.683   1.297  1.00  0.00     0.000 A 
ENDBRANCH   6   7
ENDBRANCH   1   6
TORSDOF 4
ENDMDL
