@<TRIPOS>MOLECULE
/home/cewinharhar/GITHUB/reincatalyze/data/processed/docking_pred/2023-Apr-26-1657_maxeplen10_maxtrainstep1000_exh32_gamma099_lrac9e-4_lrcr1e-3/d4c602a3745b48528a2ec664cc6a2c0711254731_ligand_2.pdbqt
 12 12 0 0 0
SMALL
GASTEIGER

@<TRIPOS>ATOM
      1  C          5.3940    2.9100    0.0060 C.3     1  UNL1        0.1270
      2  C          6.2110    3.8790    0.7740 C.2     1  UNL1        0.3030
      3  O          6.8760    4.7730    0.1950 O.2     1  UNL1       -0.2520
      4  O          6.2640    3.8230    2.1570 O.3     1  UNL1       -0.4810
      5  H          6.6430    4.6200    2.6770 H       1  UNL1        0.2960
      6  C          4.8890    1.8650    0.9530 C.3     1  UNL1        0.0470
      7  C          5.6840    0.6370    0.9620 C.2     1  UNL1       -0.0470
      8  C          6.3640    0.2320   -0.1630 C.2     1  UNL1        0.0040
      9  C          5.7470   -0.1130    2.1130 C.2     1  UNL1        0.0040
     10  C          7.1040   -0.9500   -0.0820 C.2     1  UNL1        0.0000
     11  C          6.4790   -1.2810    2.1910 C.2     1  UNL1        0.0000
     12  C          7.1630   -1.6950    1.0690 C.2     1  UNL1        0.0000
@<TRIPOS>BOND
     1     8    10    1
     2     8     7    2
     3    10    12    2
     4     1     2    1
     5     1     6    1
     6     3     2    2
     7     2     4    1
     8     6     7    1
     9     7     9    1
    10    12    11    1
    11     9    11    2
    12     4     5    1
