@<TRIPOS>MOLECULE
/home/cewinharhar/GITHUB/reincatalyze/data/processed/docking_pred/2023-Apr-26-1657_maxeplen10_maxtrainstep1000_exh32_gamma099_lrac9e-4_lrcr1e-3/d4c602a3745b48528a2ec664cc6a2c0711254731_ligand_2.pdbqt
 12 12 0 0 0
SMALL
GASTEIGER

@<TRIPOS>ATOM
      1  C          8.4340   -0.5770   -2.1900 C.3     1  UNL1        0.1270
      2  C          8.4790   -1.8670   -2.9170 C.2     1  UNL1        0.3030
      3  O          9.5630   -2.4770   -3.0940 O.2     1  UNL1       -0.2520
      4  O          7.3220   -2.4380   -3.4220 O.3     1  UNL1       -0.4810
      5  H          7.3700   -2.9860   -4.2850 H       1  UNL1        0.2960
      6  C          7.0120   -0.1090   -2.1490 C.3     1  UNL1        0.0470
      7  C          6.4810    0.0620   -0.7970 C.2     1  UNL1       -0.0470
      8  C          5.8620    1.2330   -0.4270 C.2     1  UNL1        0.0040
      9  C          6.6050   -0.9670    0.1070 C.2     1  UNL1        0.0040
     10  C          5.3780    1.3260    0.8800 C.2     1  UNL1        0.0000
     11  C          6.1260   -0.8740    1.3990 C.2     1  UNL1        0.0000
     12  C          5.5050    0.2970    1.7780 C.2     1  UNL1        0.0000
@<TRIPOS>BOND
     1     5     4    1
     2     4     2    1
     3     3     2    2
     4     2     1    1
     5     1     6    1
     6     6     7    1
     7     7     8    2
     8     7     9    1
     9     8    10    1
    10     9    11    2
    11    10    12    2
    12    11    12    1
