@<TRIPOS>MOLECULE
/home/cewinharhar/GITHUB/reincatalyze/data/processed/docking_pred/2023-Apr-26-1657_maxeplen10_maxtrainstep1000_exh32_gamma099_lrac9e-4_lrcr1e-3/d4c602a3745b48528a2ec664cc6a2c0711254731_ligand_2.pdbqt
 12 12 0 0 0
SMALL
GASTEIGER

@<TRIPOS>ATOM
      1  C          8.4610   -0.6370   -2.1170 C.3     1  UNL1        0.1270
      2  C          8.4920   -1.8940   -2.9000 C.2     1  UNL1        0.3030
      3  O          9.5710   -2.5010   -3.1140 O.2     1  UNL1       -0.2520
      4  O          7.3280   -2.4360   -3.4200 O.3     1  UNL1       -0.4810
      5  H          7.3810   -3.0380   -4.2470 H       1  UNL1        0.2960
      6  C          7.0550   -0.1190   -2.1140 C.3     1  UNL1        0.0470
      7  C          6.4890    0.0580   -0.7780 C.2     1  UNL1       -0.0470
      8  C          6.6090   -0.9290    0.1730 C.2     1  UNL1        0.0040
      9  C          5.8320    1.2290   -0.4760 C.2     1  UNL1        0.0040
     10  C          6.0450   -0.6920    1.4280 C.2     1  UNL1        0.0000
     11  C          5.2750    1.4610    0.7650 C.2     1  UNL1        0.0000
     12  C          5.3900    0.4770    1.7230 C.2     1  UNL1        0.0000
@<TRIPOS>BOND
     1     5     4    1
     2     4     2    1
     3     3     2    2
     4     2     1    1
     5     1     6    1
     6     6     7    1
     7     7     9    2
     8     7     8    1
     9     9    11    1
    10     8    10    2
    11    11    12    2
    12    10    12    1
