@<TRIPOS>MOLECULE
/home/cewinharhar/GITHUB/reincatalyze/data/processed/docking_pred/2023-Apr-26-1657_maxeplen10_maxtrainstep1000_exh32_gamma099_lrac9e-4_lrcr1e-3/d4c602a3745b48528a2ec664cc6a2c0711254731_ligand_2.pdbqt
 12 12 0 0 0
SMALL
GASTEIGER

@<TRIPOS>ATOM
      1  C          5.0200    1.7930    0.7110 C.3     1  UNL1        0.1270
      2  C          4.4880    1.1110    1.9150 C.2     1  UNL1        0.3030
      3  O          5.1350    0.1970    2.4840 O.2     1  UNL1       -0.2520
      4  O          3.2590    1.4660    2.4470 O.3     1  UNL1       -0.4810
      5  H          3.0720    2.4490    2.6640 H       1  UNL1        0.2960
      6  C          6.5160    1.7450    0.7660 C.3     1  UNL1        0.0470
      7  C          7.1280    1.0000   -0.3330 C.2     1  UNL1       -0.0470
      8  C          6.3980    0.0820   -1.0530 C.2     1  UNL1        0.0040
      9  C          8.4490    1.2260   -0.6440 C.2     1  UNL1        0.0040
     10  C          7.0470   -0.5930   -2.0890 C.2     1  UNL1        0.0000
     11  C          9.0890    0.5570   -1.6690 C.2     1  UNL1        0.0000
     12  C          8.3650   -0.3640   -2.3940 C.2     1  UNL1        0.0000
@<TRIPOS>BOND
     1    12    10    2
     2    12    11    1
     3    10     8    1
     4    11     9    2
     5     8     7    2
     6     9     7    1
     7     7     6    1
     8     1     6    1
     9     1     2    1
    10     2     4    1
    11     2     3    2
    12     4     5    1
