@<TRIPOS>MOLECULE
/home/cewinharhar/GITHUB/reincatalyze/data/processed/docking_pred/2023-Apr-26-1657_maxeplen10_maxtrainstep1000_exh32_gamma099_lrac9e-4_lrcr1e-3/d68da6ca94917019a71bc3feefe4e6b6d631e6ad_ligand_2.pdbqt
 12 12 0 0 0
SMALL
GASTEIGER

@<TRIPOS>ATOM
      1  C          8.4790   -0.6910   -2.0570 C.3     1  UNL1        0.1270
      2  C          8.4940   -1.9250   -2.8770 C.2     1  UNL1        0.3030
      3  O          9.5630   -2.5440   -3.1020 O.2     1  UNL1       -0.2520
      4  O          7.3230   -2.4310   -3.4190 O.3     1  UNL1       -0.4810
      5  H          6.4580   -1.8920   -3.3340 H       1  UNL1        0.2960
      6  C          7.0880   -0.1330   -2.0700 C.3     1  UNL1        0.0470
      7  C          6.5030    0.0360   -0.7410 C.2     1  UNL1       -0.0470
      8  C          6.6060   -0.9580    0.2040 C.2     1  UNL1        0.0040
      9  C          5.8450    1.2070   -0.4410 C.2     1  UNL1        0.0040
     10  C          6.0240   -0.7270    1.4530 C.2     1  UNL1        0.0000
     11  C          5.2700    1.4330    0.7930 C.2     1  UNL1        0.0000
     12  C          5.3680    0.4420    1.7460 C.2     1  UNL1        0.0000
@<TRIPOS>BOND
     1     4     5    1
     2     4     2    1
     3     3     2    2
     4     2     1    1
     5     6     1    1
     6     6     7    1
     7     7     9    2
     8     7     8    1
     9     9    11    1
    10     8    10    2
    11    11    12    2
    12    10    12    1
