@<TRIPOS>MOLECULE
/home/cewinharhar/GITHUB/reincatalyze/data/processed/docking_pred/2023-Apr-26-1657_maxeplen10_maxtrainstep1000_exh32_gamma099_lrac9e-4_lrcr1e-3/d68da6ca94917019a71bc3feefe4e6b6d631e6ad_ligand_2.pdbqt
 12 12 0 0 0
SMALL
GASTEIGER

@<TRIPOS>ATOM
      1  C          8.4010   -0.6930   -2.0360 C.3     1  UNL1        0.1270
      2  C          8.3740   -1.9140   -2.8750 C.2     1  UNL1        0.3030
      3  O          7.2880   -2.4180   -3.2550 O.2     1  UNL1       -0.2520
      4  O          9.5490   -2.5350   -3.2630 O.3     1  UNL1       -0.4810
      5  H          9.7310   -3.4970   -2.9630 H       1  UNL1        0.2960
      6  C          7.0340   -0.0810   -2.0500 C.3     1  UNL1        0.0470
      7  C          6.4530    0.1070   -0.7220 C.2     1  UNL1       -0.0470
      8  C          5.8010    1.2740   -0.3980 C.2     1  UNL1        0.0040
      9  C          6.5620   -0.9020    0.2070 C.2     1  UNL1        0.0040
     10  C          5.2690    1.3840    0.8890 C.2     1  UNL1        0.0000
     11  C          6.0360   -0.7910    1.4790 C.2     1  UNL1        0.0000
     12  C          5.3820    0.3750    1.8120 C.2     1  UNL1        0.0000
@<TRIPOS>BOND
     1     4     5    1
     2     4     2    1
     3     3     2    2
     4     2     1    1
     5     6     1    1
     6     6     7    1
     7     7     8    2
     8     7     9    1
     9     8    10    1
    10     9    11    2
    11    10    12    2
    12    11    12    1
