MODEL 1
REMARK VINA RESULT:      -7.3      0.000      0.000
REMARK SMILES O=C(O)CCc1ccccc1
REMARK SMILES IDX 4 1 2 2 1 3 3 4 5 6 6 7 7 8 11 9 8 10 10 11 9 12
REMARK H PARENT 3 5
REMARK Flexibility Score: inf
ROOT
ATOM      1  C   UNL     1       8.479  -0.691  -2.057  1.00  0.00     0.127 C 
ENDROOT
BRANCH   1   2
ATOM      2  C   UNL     1       8.494  -1.925  -2.877  1.00  0.00     0.303 C 
ATOM      3  O   UNL     1       9.563  -2.544  -3.102  1.00  0.00    -0.252 OA
BRANCH   2   4
ATOM      4  O   UNL     1       7.323  -2.431  -3.419  1.00  0.00    -0.481 OA
ATOM      5  H   UNL     1       6.458  -1.892  -3.334  1.00  0.00     0.296 HD
ENDBRANCH   2   4
ENDBRANCH   1   2
BRANCH   1   6
ATOM      6  C   UNL     1       7.088  -0.133  -2.070  1.00  0.00     0.047 C 
BRANCH   6   7
ATOM      7  C   UNL     1       6.503   0.036  -0.741  1.00  0.00    -0.047 A 
ATOM      8  C   UNL     1       6.606  -0.958   0.204  1.00  0.00     0.004 A 
ATOM      9  C   UNL     1       5.845   1.207  -0.441  1.00  0.00     0.004 A 
ATOM     10  C   UNL     1       6.024  -0.727   1.453  1.00  0.00     0.000 A 
ATOM     11  C   UNL     1       5.270   1.433   0.793  1.00  0.00     0.000 A 
ATOM     12  C   UNL     1       5.368   0.442   1.746  1.00  0.00     0.000 A 
ENDBRANCH   6   7
ENDBRANCH   1   6
TORSDOF 4
ENDMDL
MODEL 2
REMARK VINA RESULT:      -7.3      0.108      1.731
REMARK SMILES O=C(O)CCc1ccccc1
REMARK SMILES IDX 4 1 2 2 1 3 3 4 5 6 6 7 7 8 11 9 8 10 10 11 9 12
REMARK H PARENT 3 5
REMARK Flexibility Score: inf
ROOT
ATOM      1  C   UNL     1       8.401  -0.693  -2.036  1.00  0.00     0.127 C 
ENDROOT
BRANCH   1   2
ATOM      2  C   UNL     1       8.374  -1.914  -2.875  1.00  0.00     0.303 C 
ATOM      3  O   UNL     1       7.288  -2.418  -3.255  1.00  0.00    -0.252 OA
BRANCH   2   4
ATOM      4  O   UNL     1       9.549  -2.535  -3.263  1.00  0.00    -0.481 OA
ATOM      5  H   UNL     1       9.731  -3.497  -2.963  1.00  0.00     0.296 HD
ENDBRANCH   2   4
ENDBRANCH   1   2
BRANCH   1   6
ATOM      6  C   UNL     1       7.034  -0.081  -2.050  1.00  0.00     0.047 C 
BRANCH   6   7
ATOM      7  C   UNL     1       6.453   0.107  -0.722  1.00  0.00    -0.047 A 
ATOM      8  C   UNL     1       5.801   1.274  -0.398  1.00  0.00     0.004 A 
ATOM      9  C   UNL     1       6.562  -0.902   0.207  1.00  0.00     0.004 A 
ATOM     10  C   UNL     1       5.269   1.384   0.889  1.00  0.00     0.000 A 
ATOM     11  C   UNL     1       6.036  -0.791   1.479  1.00  0.00     0.000 A 
ATOM     12  C   UNL     1       5.382   0.375   1.812  1.00  0.00     0.000 A 
ENDBRANCH   6   7
ENDBRANCH   1   6
TORSDOF 4
ENDMDL
MODEL 3
REMARK VINA RESULT:      -6.8      0.833      1.646
REMARK SMILES O=C(O)CCc1ccccc1
REMARK SMILES IDX 4 1 2 2 1 3 3 4 5 6 6 7 7 8 11 9 8 10 10 11 9 12
REMARK H PARENT 3 5
REMARK Flexibility Score: inf
ROOT
ATOM      1  C   UNL     1       7.588  -1.734  -1.444  1.00  0.00     0.127 C 
ENDROOT
BRANCH   1   2
ATOM      2  C   UNL     1       8.357  -2.144  -2.642  1.00  0.00     0.303 C 
ATOM      3  O   UNL     1       9.101  -3.157  -2.622  1.00  0.00    -0.252 OA
BRANCH   2   4
ATOM      4  O   UNL     1       8.277  -1.419  -3.820  1.00  0.00    -0.481 OA
ATOM      5  H   UNL     1       8.260  -1.917  -4.714  1.00  0.00     0.296 HD
ENDBRANCH   2   4
ENDBRANCH   1   2
BRANCH   1   6
ATOM      6  C   UNL     1       7.215  -0.291  -1.596  1.00  0.00     0.047 C 
BRANCH   6   7
ATOM      7  C   UNL     1       6.426   0.240  -0.485  1.00  0.00    -0.047 A 
ATOM      8  C   UNL     1       5.768   1.442  -0.601  1.00  0.00     0.004 A 
ATOM      9  C   UNL     1       6.344  -0.480   0.684  1.00  0.00     0.004 A 
ATOM     10  C   UNL     1       5.032   1.887   0.500  1.00  0.00     0.000 A 
ATOM     11  C   UNL     1       5.617  -0.039   1.771  1.00  0.00     0.000 A 
ATOM     12  C   UNL     1       4.955   1.166   1.664  1.00  0.00     0.000 A 
ENDBRANCH   6   7
ENDBRANCH   1   6
TORSDOF 4
ENDMDL
MODEL 4
REMARK VINA RESULT:      -6.8      3.371      5.084
REMARK SMILES O=C(O)CCc1ccccc1
REMARK SMILES IDX 4 1 2 2 1 3 3 4 5 6 6 7 7 8 11 9 8 10 10 11 9 12
REMARK H PARENT 3 5
REMARK Flexibility Score: inf
ROOT
ATOM      1  C   UNL     1       5.017   1.795   0.701  1.00  0.00     0.127 C 
ENDROOT
BRANCH   1   2
ATOM      2  C   UNL     1       4.502   1.114   1.912  1.00  0.00     0.303 C 
ATOM      3  O   UNL     1       5.165   0.214   2.484  1.00  0.00    -0.252 OA
BRANCH   2   4
ATOM      4  O   UNL     1       3.270   1.455   2.448  1.00  0.00    -0.481 OA
ATOM      5  H   UNL     1       3.234   2.008   3.309  1.00  0.00     0.296 HD
ENDBRANCH   2   4
ENDBRANCH   1   2
BRANCH   1   6
ATOM      6  C   UNL     1       6.514   1.794   0.761  1.00  0.00     0.047 C 
BRANCH   6   7
ATOM      7  C   UNL     1       7.152   1.050  -0.324  1.00  0.00    -0.047 A 
ATOM      8  C   UNL     1       8.478   1.250  -0.629  1.00  0.00     0.004 A 
ATOM      9  C   UNL     1       6.410   0.139  -1.040  1.00  0.00     0.004 A 
ATOM     10  C   UNL     1       9.022   0.503  -1.676  1.00  0.00     0.000 A 
ATOM     11  C   UNL     1       6.949  -0.598  -2.075  1.00  0.00     0.000 A 
ATOM     12  C   UNL     1       8.277  -0.403  -2.388  1.00  0.00     0.000 A 
ENDBRANCH   6   7
ENDBRANCH   1   6
TORSDOF 4
ENDMDL
MODEL 5
REMARK VINA RESULT:      -6.7      3.828      4.912
REMARK SMILES O=C(O)CCc1ccccc1
REMARK SMILES IDX 4 1 2 2 1 3 3 4 5 6 6 7 7 8 11 9 8 10 10 11 9 12
REMARK H PARENT 3 5
REMARK Flexibility Score: inf
ROOT
ATOM      1  C   UNL     1       5.630   2.815  -0.075  1.00  0.00     0.127 C 
ENDROOT
BRANCH   1   2
ATOM      2  C   UNL     1       6.301   3.831   0.770  1.00  0.00     0.303 C 
ATOM      3  O   UNL     1       6.955   4.774   0.259  1.00  0.00    -0.252 OA
BRANCH   2   4
ATOM      4  O   UNL     1       6.225   3.768   2.152  1.00  0.00    -0.481 OA
ATOM      5  H   UNL     1       6.933   4.247   2.715  1.00  0.00     0.296 HD
ENDBRANCH   2   4
ENDBRANCH   1   2
BRANCH   1   6
ATOM      6  C   UNL     1       4.992   1.802   0.826  1.00  0.00     0.047 C 
BRANCH   6   7
ATOM      7  C   UNL     1       5.738   0.550   0.934  1.00  0.00    -0.047 A 
ATOM      8  C   UNL     1       5.777  -0.145   2.121  1.00  0.00     0.004 A 
ATOM      9  C   UNL     1       6.404   0.067  -0.168  1.00  0.00     0.004 A 
ATOM     10  C   UNL     1       6.508  -1.334   2.152  1.00  0.00     0.000 A 
ATOM     11  C   UNL     1       7.127  -1.109  -0.136  1.00  0.00     0.000 A 
ATOM     12  C   UNL     1       7.172  -1.810   1.050  1.00  0.00     0.000 A 
ENDBRANCH   6   7
ENDBRANCH   1   6
TORSDOF 4
ENDMDL
