@<TRIPOS>MOLECULE
/home/cewinharhar/GITHUB/reincatalyze/data/processed/docking_pred/2023-Apr-26-1657_maxeplen10_maxtrainstep1000_exh32_gamma099_lrac9e-4_lrcr1e-3/d68da6ca94917019a71bc3feefe4e6b6d631e6ad_ligand_2.pdbqt
 12 12 0 0 0
SMALL
GASTEIGER

@<TRIPOS>ATOM
      1  C          5.6300    2.8150   -0.0750 C.3     1  UNL1        0.1270
      2  C          6.3010    3.8310    0.7700 C.2     1  UNL1        0.3030
      3  O          6.9550    4.7740    0.2590 O.2     1  UNL1       -0.2520
      4  O          6.2250    3.7680    2.1520 O.3     1  UNL1       -0.4810
      5  H          6.9330    4.2470    2.7150 H       1  UNL1        0.2960
      6  C          4.9920    1.8020    0.8260 C.3     1  UNL1        0.0470
      7  C          5.7380    0.5500    0.9340 C.2     1  UNL1       -0.0470
      8  C          5.7770   -0.1450    2.1210 C.2     1  UNL1        0.0040
      9  C          6.4040    0.0670   -0.1680 C.2     1  UNL1        0.0040
     10  C          6.5080   -1.3340    2.1520 C.2     1  UNL1        0.0000
     11  C          7.1270   -1.1090   -0.1360 C.2     1  UNL1        0.0000
     12  C          7.1720   -1.8100    1.0500 C.2     1  UNL1        0.0000
@<TRIPOS>BOND
     1     9    11    1
     2     9     7    2
     3    11    12    2
     4     1     2    1
     5     1     6    1
     6     3     2    2
     7     2     4    1
     8     6     7    1
     9     7     8    1
    10    12    10    1
    11     8    10    2
    12     4     5    1
