@<TRIPOS>MOLECULE
/home/cewinharhar/GITHUB/reincatalyze/data/processed/docking_pred/2023-Apr-26-1657_maxeplen10_maxtrainstep1000_exh32_gamma099_lrac9e-4_lrcr1e-3/d68da6ca94917019a71bc3feefe4e6b6d631e6ad_ligand_2.pdbqt
 12 12 0 0 0
SMALL
GASTEIGER

@<TRIPOS>ATOM
      1  C          7.5880   -1.7340   -1.4440 C.3     1  UNL1        0.1270
      2  C          8.3570   -2.1440   -2.6420 C.2     1  UNL1        0.3030
      3  O          9.1010   -3.1570   -2.6220 O.2     1  UNL1       -0.2520
      4  O          8.2770   -1.4190   -3.8200 O.3     1  UNL1       -0.4810
      5  H          8.2600   -1.9170   -4.7140 H       1  UNL1        0.2960
      6  C          7.2150   -0.2910   -1.5960 C.3     1  UNL1        0.0470
      7  C          6.4260    0.2400   -0.4850 C.2     1  UNL1       -0.0470
      8  C          5.7680    1.4420   -0.6010 C.2     1  UNL1        0.0040
      9  C          6.3440   -0.4800    0.6840 C.2     1  UNL1        0.0040
     10  C          5.0320    1.8870    0.5000 C.2     1  UNL1        0.0000
     11  C          5.6170   -0.0390    1.7710 C.2     1  UNL1        0.0000
     12  C          4.9550    1.1660    1.6640 C.2     1  UNL1        0.0000
@<TRIPOS>BOND
     1     5     4    1
     2     4     2    1
     3     2     3    2
     4     2     1    1
     5     6     1    1
     6     6     7    1
     7     8     7    2
     8     8    10    1
     9     7     9    1
    10    10    12    2
    11     9    11    2
    12    12    11    1
