@<TRIPOS>MOLECULE
/home/cewinharhar/GITHUB/reincatalyze/data/processed/docking_pred/2023-Apr-26-1657_maxeplen10_maxtrainstep1000_exh32_gamma099_lrac9e-4_lrcr1e-3/d6fa7c89c21ca11aa73af88b15ecc664e93337c3_ligand_2.pdbqt
 12 12 0 0 0
SMALL
GASTEIGER

@<TRIPOS>ATOM
      1  C          4.9990    1.7510    0.6920 C.3     1  UNL1        0.1270
      2  C          4.4800    1.0950    1.9150 C.2     1  UNL1        0.3030
      3  O          5.1310    0.1900    2.4940 O.2     1  UNL1       -0.2520
      4  O          3.2580    1.4630    2.4540 O.3     1  UNL1       -0.4810
      5  H          2.3960    1.1240    2.0180 H       1  UNL1        0.2960
      6  C          6.4960    1.7310    0.7460 C.3     1  UNL1        0.0470
      7  C          7.1200    0.9740   -0.3380 C.2     1  UNL1       -0.0470
      8  C          6.4050    0.0300   -1.0390 C.2     1  UNL1        0.0040
      9  C          8.4360    1.2170   -0.6570 C.2     1  UNL1        0.0040
     10  C          7.0650   -0.6550   -2.0620 C.2     1  UNL1        0.0000
     11  C          9.0860    0.5400   -1.6690 C.2     1  UNL1        0.0000
     12  C          8.3780   -0.4080   -2.3750 C.2     1  UNL1        0.0000
@<TRIPOS>BOND
     1    12    10    2
     2    12    11    1
     3    10     8    1
     4    11     9    2
     5     8     7    2
     6     9     7    1
     7     7     6    1
     8     1     6    1
     9     1     2    1
    10     2     4    1
    11     2     3    2
    12     5     4    1
