MODEL 1
REMARK VINA RESULT:      -7.3      0.000      0.000
REMARK SMILES O=C(O)CCc1ccccc1
REMARK SMILES IDX 4 1 2 2 1 3 3 4 5 6 6 7 7 8 11 9 8 10 10 11 9 12
REMARK H PARENT 3 5
REMARK Flexibility Score: inf
ROOT
ATOM      1  C   UNL     1       8.408  -0.675  -2.089  1.00  0.00     0.127 C 
ENDROOT
BRANCH   1   2
ATOM      2  C   UNL     1       8.449  -1.925  -2.885  1.00  0.00     0.303 C 
ATOM      3  O   UNL     1       9.531  -2.522  -3.106  1.00  0.00    -0.252 OA
BRANCH   2   4
ATOM      4  O   UNL     1       7.288  -2.470  -3.410  1.00  0.00    -0.481 OA
ATOM      5  H   UNL     1       7.347  -3.313  -3.988  1.00  0.00     0.296 HD
ENDBRANCH   2   4
ENDBRANCH   1   2
BRANCH   1   6
ATOM      6  C   UNL     1       7.001  -0.162  -2.090  1.00  0.00     0.047 C 
BRANCH   6   7
ATOM      7  C   UNL     1       6.446   0.055  -0.755  1.00  0.00    -0.047 A 
ATOM      8  C   UNL     1       5.817   1.236  -0.438  1.00  0.00     0.004 A 
ATOM      9  C   UNL     1       6.558  -0.941   0.188  1.00  0.00     0.004 A 
ATOM     10  C   UNL     1       5.310   1.373   0.856  1.00  0.00     0.000 A 
ATOM     11  C   UNL     1       6.057  -0.803   1.467  1.00  0.00     0.000 A 
ATOM     12  C   UNL     1       5.425   0.377   1.793  1.00  0.00     0.000 A 
ENDBRANCH   6   7
ENDBRANCH   1   6
TORSDOF 4
ENDMDL
MODEL 2
REMARK VINA RESULT:      -7.3      0.099      1.440
REMARK SMILES O=C(O)CCc1ccccc1
REMARK SMILES IDX 4 1 2 2 1 3 3 4 5 6 6 7 7 8 11 9 8 10 10 11 9 12
REMARK H PARENT 3 5
REMARK Flexibility Score: inf
ROOT
ATOM      1  C   UNL     1       8.454  -0.617  -2.194  1.00  0.00     0.127 C 
ENDROOT
BRANCH   1   2
ATOM      2  C   UNL     1       8.487  -1.895  -2.944  1.00  0.00     0.303 C 
ATOM      3  O   UNL     1       9.566  -2.507  -3.140  1.00  0.00    -0.252 OA
BRANCH   2   4
ATOM      4  O   UNL     1       7.324  -2.451  -3.451  1.00  0.00    -0.481 OA
ATOM      5  H   UNL     1       7.360  -2.975  -4.330  1.00  0.00     0.296 HD
ENDBRANCH   2   4
ENDBRANCH   1   2
BRANCH   1   6
ATOM      6  C   UNL     1       7.039  -0.125  -2.164  1.00  0.00     0.047 C 
BRANCH   6   7
ATOM      7  C   UNL     1       6.499   0.050  -0.817  1.00  0.00    -0.047 A 
ATOM      8  C   UNL     1       6.611  -0.950   0.121  1.00  0.00     0.004 A 
ATOM      9  C   UNL     1       5.876   1.233  -0.493  1.00  0.00     0.004 A 
ATOM     10  C   UNL     1       6.073  -0.713   1.388  1.00  0.00     0.000 A 
ATOM     11  C   UNL     1       5.344   1.465   0.760  1.00  0.00     0.000 A 
ATOM     12  C   UNL     1       5.451   0.468   1.706  1.00  0.00     0.000 A 
ENDBRANCH   6   7
ENDBRANCH   1   6
TORSDOF 4
ENDMDL
MODEL 3
REMARK VINA RESULT:      -7.3      0.616      1.601
REMARK SMILES O=C(O)CCc1ccccc1
REMARK SMILES IDX 4 1 2 2 1 3 3 4 5 6 6 7 7 8 11 9 8 10 10 11 9 12
REMARK H PARENT 3 5
REMARK Flexibility Score: inf
ROOT
ATOM      1  C   UNL     1       8.206  -0.885  -1.910  1.00  0.00     0.127 C 
ENDROOT
BRANCH   1   2
ATOM      2  C   UNL     1       8.389  -1.997  -2.872  1.00  0.00     0.303 C 
ATOM      3  O   UNL     1       9.526  -2.478  -3.102  1.00  0.00    -0.252 OA
BRANCH   2   4
ATOM      4  O   UNL     1       7.306  -2.540  -3.545  1.00  0.00    -0.481 OA
ATOM      5  H   UNL     1       6.574  -1.918  -3.899  1.00  0.00     0.296 HD
ENDBRANCH   2   4
ENDBRANCH   1   2
BRANCH   1   6
ATOM      6  C   UNL     1       7.338  -1.369  -0.789  1.00  0.00     0.047 C 
BRANCH   6   7
ATOM      7  C   UNL     1       6.535  -0.320  -0.163  1.00  0.00    -0.047 A 
ATOM      8  C   UNL     1       6.108  -0.443   1.139  1.00  0.00     0.004 A 
ATOM      9  C   UNL     1       6.209   0.801  -0.892  1.00  0.00     0.004 A 
ATOM     10  C   UNL     1       5.346   0.598   1.672  1.00  0.00     0.000 A 
ATOM     11  C   UNL     1       5.455   1.829  -0.363  1.00  0.00     0.000 A 
ATOM     12  C   UNL     1       5.023   1.713   0.941  1.00  0.00     0.000 A 
ENDBRANCH   6   7
ENDBRANCH   1   6
TORSDOF 4
ENDMDL
MODEL 4
REMARK VINA RESULT:      -6.8      3.375      5.090
REMARK SMILES O=C(O)CCc1ccccc1
REMARK SMILES IDX 4 1 2 2 1 3 3 4 5 6 6 7 7 8 11 9 8 10 10 11 9 12
REMARK H PARENT 3 5
REMARK Flexibility Score: inf
ROOT
ATOM      1  C   UNL     1       4.999   1.751   0.692  1.00  0.00     0.127 C 
ENDROOT
BRANCH   1   2
ATOM      2  C   UNL     1       4.480   1.095   1.915  1.00  0.00     0.303 C 
ATOM      3  O   UNL     1       5.131   0.190   2.494  1.00  0.00    -0.252 OA
BRANCH   2   4
ATOM      4  O   UNL     1       3.258   1.463   2.454  1.00  0.00    -0.481 OA
ATOM      5  H   UNL     1       2.396   1.124   2.018  1.00  0.00     0.296 HD
ENDBRANCH   2   4
ENDBRANCH   1   2
BRANCH   1   6
ATOM      6  C   UNL     1       6.496   1.731   0.746  1.00  0.00     0.047 C 
BRANCH   6   7
ATOM      7  C   UNL     1       7.120   0.974  -0.338  1.00  0.00    -0.047 A 
ATOM      8  C   UNL     1       6.405   0.030  -1.039  1.00  0.00     0.004 A 
ATOM      9  C   UNL     1       8.436   1.217  -0.657  1.00  0.00     0.004 A 
ATOM     10  C   UNL     1       7.065  -0.655  -2.062  1.00  0.00     0.000 A 
ATOM     11  C   UNL     1       9.086   0.540  -1.669  1.00  0.00     0.000 A 
ATOM     12  C   UNL     1       8.378  -0.408  -2.375  1.00  0.00     0.000 A 
ENDBRANCH   6   7
ENDBRANCH   1   6
TORSDOF 4
ENDMDL
MODEL 5
REMARK VINA RESULT:      -6.7      3.817      4.923
REMARK SMILES O=C(O)CCc1ccccc1
REMARK SMILES IDX 4 1 2 2 1 3 3 4 5 6 6 7 7 8 11 9 8 10 10 11 9 12
REMARK H PARENT 3 5
REMARK Flexibility Score: inf
ROOT
ATOM      1  C   UNL     1       5.444   2.961  -0.035  1.00  0.00     0.127 C 
ENDROOT
BRANCH   1   2
ATOM      2  C   UNL     1       6.249   3.894   0.787  1.00  0.00     0.303 C 
ATOM      3  O   UNL     1       6.972   4.773   0.255  1.00  0.00    -0.252 OA
BRANCH   2   4
ATOM      4  O   UNL     1       6.227   3.822   2.171  1.00  0.00    -0.481 OA
ATOM      5  H   UNL     1       6.071   4.675   2.715  1.00  0.00     0.296 HD
ENDBRANCH   2   4
ENDBRANCH   1   2
BRANCH   1   6
ATOM      6  C   UNL     1       4.896   1.894   0.863  1.00  0.00     0.047 C 
BRANCH   6   7
ATOM      7  C   UNL     1       5.683   0.662   0.871  1.00  0.00    -0.047 A 
ATOM      8  C   UNL     1       6.321   0.228  -0.268  1.00  0.00     0.004 A 
ATOM      9  C   UNL     1       5.782  -0.064   2.035  1.00  0.00     0.004 A 
ATOM     10  C   UNL     1       7.056  -0.957  -0.187  1.00  0.00     0.000 A 
ATOM     11  C   UNL     1       6.508  -1.235   2.113  1.00  0.00     0.000 A 
ATOM     12  C   UNL     1       7.150  -1.677   0.977  1.00  0.00     0.000 A 
ENDBRANCH   6   7
ENDBRANCH   1   6
TORSDOF 4
ENDMDL
