@<TRIPOS>MOLECULE
/home/cewinharhar/GITHUB/reincatalyze/data/processed/docking_pred/2023-Apr-26-1657_maxeplen10_maxtrainstep1000_exh32_gamma099_lrac9e-4_lrcr1e-3/d6fa7c89c21ca11aa73af88b15ecc664e93337c3_ligand_2.pdbqt
 12 12 0 0 0
SMALL
GASTEIGER

@<TRIPOS>ATOM
      1  C          8.4080   -0.6750   -2.0890 C.3     1  UNL1        0.1270
      2  C          8.4490   -1.9250   -2.8850 C.2     1  UNL1        0.3030
      3  O          9.5310   -2.5220   -3.1060 O.2     1  UNL1       -0.2520
      4  O          7.2880   -2.4700   -3.4100 O.3     1  UNL1       -0.4810
      5  H          7.3470   -3.3130   -3.9880 H       1  UNL1        0.2960
      6  C          7.0010   -0.1620   -2.0900 C.3     1  UNL1        0.0470
      7  C          6.4460    0.0550   -0.7550 C.2     1  UNL1       -0.0470
      8  C          5.8170    1.2360   -0.4380 C.2     1  UNL1        0.0040
      9  C          6.5580   -0.9410    0.1880 C.2     1  UNL1        0.0040
     10  C          5.3100    1.3730    0.8560 C.2     1  UNL1        0.0000
     11  C          6.0570   -0.8030    1.4670 C.2     1  UNL1        0.0000
     12  C          5.4250    0.3770    1.7930 C.2     1  UNL1        0.0000
@<TRIPOS>BOND
     1     5     4    1
     2     4     2    1
     3     3     2    2
     4     2     1    1
     5     6     1    1
     6     6     7    1
     7     7     8    2
     8     7     9    1
     9     8    10    1
    10     9    11    2
    11    10    12    2
    12    11    12    1
