@<TRIPOS>MOLECULE
/home/cewinharhar/GITHUB/reincatalyze/data/processed/docking_pred/2023-Apr-26-1657_maxeplen10_maxtrainstep1000_exh32_gamma099_lrac9e-4_lrcr1e-3/d6fa7c89c21ca11aa73af88b15ecc664e93337c3_ligand_2.pdbqt
 12 12 0 0 0
SMALL
GASTEIGER

@<TRIPOS>ATOM
      1  C          8.2060   -0.8850   -1.9100 C.3     1  UNL1        0.1270
      2  C          8.3890   -1.9970   -2.8720 C.2     1  UNL1        0.3030
      3  O          9.5260   -2.4780   -3.1020 O.2     1  UNL1       -0.2520
      4  O          7.3060   -2.5400   -3.5450 O.3     1  UNL1       -0.4810
      5  H          6.5740   -1.9180   -3.8990 H       1  UNL1        0.2960
      6  C          7.3380   -1.3690   -0.7890 C.3     1  UNL1        0.0470
      7  C          6.5350   -0.3200   -0.1630 C.2     1  UNL1       -0.0470
      8  C          6.1080   -0.4430    1.1390 C.2     1  UNL1        0.0040
      9  C          6.2090    0.8010   -0.8920 C.2     1  UNL1        0.0040
     10  C          5.3460    0.5980    1.6720 C.2     1  UNL1        0.0000
     11  C          5.4550    1.8290   -0.3630 C.2     1  UNL1        0.0000
     12  C          5.0230    1.7130    0.9410 C.2     1  UNL1        0.0000
@<TRIPOS>BOND
     1     5     4    1
     2     4     2    1
     3     3     2    2
     4     2     1    1
     5     1     6    1
     6     9    11    1
     7     9     7    2
     8     6     7    1
     9    11    12    2
    10     7     8    1
    11    12    10    1
    12     8    10    2
