@<TRIPOS>MOLECULE
/home/cewinharhar/GITHUB/reincatalyze/data/processed/docking_pred/2023-Apr-26-1657_maxeplen10_maxtrainstep1000_exh32_gamma099_lrac9e-4_lrcr1e-3/d6fa7c89c21ca11aa73af88b15ecc664e93337c3_ligand_2.pdbqt
 12 12 0 0 0
SMALL
GASTEIGER

@<TRIPOS>ATOM
      1  C          8.4540   -0.6170   -2.1940 C.3     1  UNL1        0.1270
      2  C          8.4870   -1.8950   -2.9440 C.2     1  UNL1        0.3030
      3  O          9.5660   -2.5070   -3.1400 O.2     1  UNL1       -0.2520
      4  O          7.3240   -2.4510   -3.4510 O.3     1  UNL1       -0.4810
      5  H          7.3600   -2.9750   -4.3300 H       1  UNL1        0.2960
      6  C          7.0390   -0.1250   -2.1640 C.3     1  UNL1        0.0470
      7  C          6.4990    0.0500   -0.8170 C.2     1  UNL1       -0.0470
      8  C          6.6110   -0.9500    0.1210 C.2     1  UNL1        0.0040
      9  C          5.8760    1.2330   -0.4930 C.2     1  UNL1        0.0040
     10  C          6.0730   -0.7130    1.3880 C.2     1  UNL1        0.0000
     11  C          5.3440    1.4650    0.7600 C.2     1  UNL1        0.0000
     12  C          5.4510    0.4680    1.7060 C.2     1  UNL1        0.0000
@<TRIPOS>BOND
     1     5     4    1
     2     4     2    1
     3     3     2    2
     4     2     1    1
     5     1     6    1
     6     6     7    1
     7     7     9    2
     8     7     8    1
     9     9    11    1
    10     8    10    2
    11    11    12    2
    12    10    12    1
