@<TRIPOS>MOLECULE
/home/cewinharhar/GITHUB/reincatalyze/data/processed/docking_pred/2023-Apr-26-1657_maxeplen10_maxtrainstep1000_exh32_gamma099_lrac9e-4_lrcr1e-3/d6fa7c89c21ca11aa73af88b15ecc664e93337c3_ligand_2.pdbqt
 12 12 0 0 0
SMALL
GASTEIGER

@<TRIPOS>ATOM
      1  C          5.4440    2.9610   -0.0350 C.3     1  UNL1        0.1270
      2  C          6.2490    3.8940    0.7870 C.2     1  UNL1        0.3030
      3  O          6.9720    4.7730    0.2550 O.2     1  UNL1       -0.2520
      4  O          6.2270    3.8220    2.1710 O.3     1  UNL1       -0.4810
      5  H          6.0710    4.6750    2.7150 H       1  UNL1        0.2960
      6  C          4.8960    1.8940    0.8630 C.3     1  UNL1        0.0470
      7  C          5.6830    0.6620    0.8710 C.2     1  UNL1       -0.0470
      8  C          6.3210    0.2280   -0.2680 C.2     1  UNL1        0.0040
      9  C          5.7820   -0.0640    2.0350 C.2     1  UNL1        0.0040
     10  C          7.0560   -0.9570   -0.1870 C.2     1  UNL1        0.0000
     11  C          6.5080   -1.2350    2.1130 C.2     1  UNL1        0.0000
     12  C          7.1500   -1.6770    0.9770 C.2     1  UNL1        0.0000
@<TRIPOS>BOND
     1     8    10    1
     2     8     7    2
     3    10    12    2
     4     1     2    1
     5     1     6    1
     6     3     2    2
     7     2     4    1
     8     6     7    1
     9     7     9    1
    10    12    11    1
    11     9    11    2
    12     4     5    1
