@<TRIPOS>MOLECULE
/home/cewinharhar/GITHUB/reincatalyze/data/processed/docking_pred/2023-Apr-26-1657_maxeplen10_maxtrainstep1000_exh32_gamma099_lrac9e-4_lrcr1e-3/d7d9c72b52c2e0a01b4806f6bcc2a503b8c9528b_ligand_2.pdbqt
 12 12 0 0 0
SMALL
GASTEIGER

@<TRIPOS>ATOM
      1  C          8.1720   -1.6650    1.2060 C.3     1  UNL1        0.1270
      2  C          8.5170   -2.8370    0.3680 C.2     1  UNL1        0.3030
      3  O          9.2080   -3.7820    0.8240 O.2     1  UNL1       -0.2520
      4  O          8.0850   -2.9240   -0.9460 O.3     1  UNL1       -0.4810
      5  H          8.3820   -3.7180   -1.5190 H       1  UNL1        0.2960
      6  C          6.6790   -1.5600    1.2770 C.3     1  UNL1        0.0470
      7  C          6.1490   -0.2810    0.8090 C.2     1  UNL1       -0.0470
      8  C          5.4080    0.5220    1.6440 C.2     1  UNL1        0.0040
      9  C          6.4020    0.1180   -0.4840 C.2     1  UNL1        0.0040
     10  C          4.9350    1.7310    1.1300 C.2     1  UNL1        0.0000
     11  C          5.9330    1.3130   -0.9900 C.2     1  UNL1        0.0000
     12  C          5.1890    2.1230   -0.1600 C.2     1  UNL1        0.0000
@<TRIPOS>BOND
     1     5     4    1
     2    11     9    1
     3    11    12    2
     4     4     2    1
     5     9     7    2
     6    12    10    1
     7     2     3    2
     8     2     1    1
     9     7     6    1
    10     7     8    1
    11    10     8    2
    12     1     6    1
