@<TRIPOS>MOLECULE
/home/cewinharhar/GITHUB/reincatalyze/data/processed/docking_pred/2023-Apr-26-1657_maxeplen10_maxtrainstep1000_exh32_gamma099_lrac9e-4_lrcr1e-3/d7d9c72b52c2e0a01b4806f6bcc2a503b8c9528b_ligand_2.pdbqt
 12 12 0 0 0
SMALL
GASTEIGER

@<TRIPOS>ATOM
      1  C          8.4110   -0.6320   -2.1200 C.3     1  UNL1        0.1270
      2  C          8.3820   -1.8960   -2.8940 C.2     1  UNL1        0.3030
      3  O          7.2960   -2.4110   -3.2570 O.2     1  UNL1       -0.2520
      4  O          9.5570   -2.5450   -3.2380 O.3     1  UNL1       -0.4810
      5  H          9.5230   -3.3210   -3.9050 H       1  UNL1        0.2960
      6  C          7.0260   -0.0620   -2.0970 C.3     1  UNL1        0.0470
      7  C          6.4690    0.0930   -0.7540 C.2     1  UNL1       -0.0470
      8  C          6.5830   -0.9150    0.1760 C.2     1  UNL1        0.0040
      9  C          5.8280    1.2640   -0.4240 C.2     1  UNL1        0.0040
     10  C          6.0280   -0.6980    1.4390 C.2     1  UNL1        0.0000
     11  C          5.2800    1.4780    0.8250 C.2     1  UNL1        0.0000
     12  C          5.3890    0.4730    1.7620 C.2     1  UNL1        0.0000
@<TRIPOS>BOND
     1     5     4    1
     2     3     2    2
     3     4     2    1
     4     2     1    1
     5     1     6    1
     6     6     7    1
     7     7     9    2
     8     7     8    1
     9     9    11    1
    10     8    10    2
    11    11    12    2
    12    10    12    1
