MODEL 1
REMARK VINA RESULT:      -7.2      0.000      0.000
REMARK SMILES O=C(O)CCc1ccccc1
REMARK SMILES IDX 4 1 2 2 1 3 3 4 5 6 6 7 7 8 11 9 8 10 10 11 9 12
REMARK H PARENT 3 5
REMARK Flexibility Score: inf
ROOT
ATOM      1  C   UNL     1       8.395  -0.639  -2.098  1.00  0.00     0.127 C 
ENDROOT
BRANCH   1   2
ATOM      2  C   UNL     1       8.365  -1.896  -2.882  1.00  0.00     0.303 C 
ATOM      3  O   UNL     1       7.279  -2.409  -3.249  1.00  0.00    -0.252 OA
BRANCH   2   4
ATOM      4  O   UNL     1       9.540  -2.543  -3.232  1.00  0.00    -0.481 OA
ATOM      5  H   UNL     1       9.879  -3.314  -2.651  1.00  0.00     0.296 HD
ENDBRANCH   2   4
ENDBRANCH   1   2
BRANCH   1   6
ATOM      6  C   UNL     1       7.013  -0.061  -2.083  1.00  0.00     0.047 C 
BRANCH   6   7
ATOM      7  C   UNL     1       6.451   0.104  -0.744  1.00  0.00    -0.047 A 
ATOM      8  C   UNL     1       5.798   1.262  -0.392  1.00  0.00     0.004 A 
ATOM      9  C   UNL     1       6.580  -0.918   0.168  1.00  0.00     0.004 A 
ATOM     10  C   UNL     1       5.286   1.350   0.905  1.00  0.00     0.000 A 
ATOM     11  C   UNL     1       6.073  -0.830   1.450  1.00  0.00     0.000 A 
ATOM     12  C   UNL     1       5.418   0.328   1.810  1.00  0.00     0.000 A 
ENDBRANCH   6   7
ENDBRANCH   1   6
TORSDOF 4
ENDMDL
MODEL 2
REMARK VINA RESULT:      -7.2      0.081      1.438
REMARK SMILES O=C(O)CCc1ccccc1
REMARK SMILES IDX 4 1 2 2 1 3 3 4 5 6 6 7 7 8 11 9 8 10 10 11 9 12
REMARK H PARENT 3 5
REMARK Flexibility Score: inf
ROOT
ATOM      1  C   UNL     1       8.411  -0.632  -2.120  1.00  0.00     0.127 C 
ENDROOT
BRANCH   1   2
ATOM      2  C   UNL     1       8.382  -1.896  -2.894  1.00  0.00     0.303 C 
ATOM      3  O   UNL     1       7.296  -2.411  -3.257  1.00  0.00    -0.252 OA
BRANCH   2   4
ATOM      4  O   UNL     1       9.557  -2.545  -3.238  1.00  0.00    -0.481 OA
ATOM      5  H   UNL     1       9.523  -3.321  -3.905  1.00  0.00     0.296 HD
ENDBRANCH   2   4
ENDBRANCH   1   2
BRANCH   1   6
ATOM      6  C   UNL     1       7.026  -0.062  -2.097  1.00  0.00     0.047 C 
BRANCH   6   7
ATOM      7  C   UNL     1       6.469   0.093  -0.754  1.00  0.00    -0.047 A 
ATOM      8  C   UNL     1       6.583  -0.915   0.176  1.00  0.00     0.004 A 
ATOM      9  C   UNL     1       5.828   1.264  -0.424  1.00  0.00     0.004 A 
ATOM     10  C   UNL     1       6.028  -0.698   1.439  1.00  0.00     0.000 A 
ATOM     11  C   UNL     1       5.280   1.478   0.825  1.00  0.00     0.000 A 
ATOM     12  C   UNL     1       5.389   0.473   1.762  1.00  0.00     0.000 A 
ENDBRANCH   6   7
ENDBRANCH   1   6
TORSDOF 4
ENDMDL
MODEL 3
REMARK VINA RESULT:      -6.7      3.314      5.151
REMARK SMILES O=C(O)CCc1ccccc1
REMARK SMILES IDX 4 1 2 2 1 3 3 4 5 6 6 7 7 8 11 9 8 10 10 11 9 12
REMARK H PARENT 3 5
REMARK Flexibility Score: inf
ROOT
ATOM      1  C   UNL     1       5.014   1.797   0.722  1.00  0.00     0.127 C 
ENDROOT
BRANCH   1   2
ATOM      2  C   UNL     1       4.483   1.109   1.922  1.00  0.00     0.303 C 
ATOM      3  O   UNL     1       5.129   0.193   2.487  1.00  0.00    -0.252 OA
BRANCH   2   4
ATOM      4  O   UNL     1       3.253   1.460   2.455  1.00  0.00    -0.481 OA
ATOM      5  H   UNL     1       2.748   2.262   2.066  1.00  0.00     0.296 HD
ENDBRANCH   2   4
ENDBRANCH   1   2
BRANCH   1   6
ATOM      6  C   UNL     1       6.511   1.749   0.776  1.00  0.00     0.047 C 
BRANCH   6   7
ATOM      7  C   UNL     1       7.122   1.004  -0.324  1.00  0.00    -0.047 A 
ATOM      8  C   UNL     1       6.392   0.084  -1.041  1.00  0.00     0.004 A 
ATOM      9  C   UNL     1       8.441   1.235  -0.640  1.00  0.00     0.004 A 
ATOM     10  C   UNL     1       7.040  -0.589  -2.079  1.00  0.00     0.000 A 
ATOM     11  C   UNL     1       9.079   0.568  -1.666  1.00  0.00     0.000 A 
ATOM     12  C   UNL     1       8.356  -0.356  -2.389  1.00  0.00     0.000 A 
ENDBRANCH   6   7
ENDBRANCH   1   6
TORSDOF 4
ENDMDL
MODEL 4
REMARK VINA RESULT:      -6.5      1.974      2.179
REMARK SMILES O=C(O)CCc1ccccc1
REMARK SMILES IDX 4 1 2 2 1 3 3 4 5 6 6 7 7 8 11 9 8 10 10 11 9 12
REMARK H PARENT 3 5
REMARK Flexibility Score: inf
ROOT
ATOM      1  C   UNL     1       8.318   0.402  -1.910  1.00  0.00     0.127 C 
ENDROOT
BRANCH   1   2
ATOM      2  C   UNL     1       9.471   0.223  -0.995  1.00  0.00     0.303 C 
ATOM      3  O   UNL     1       9.402  -0.546  -0.005  1.00  0.00    -0.252 OA
BRANCH   2   4
ATOM      4  O   UNL     1      10.659   0.903  -1.209  1.00  0.00    -0.481 OA
ATOM      5  H   UNL     1      10.638   1.916  -1.352  1.00  0.00     0.296 HD
ENDBRANCH   2   4
ENDBRANCH   1   2
BRANCH   1   6
ATOM      6  C   UNL     1       7.181  -0.431  -1.403  1.00  0.00     0.047 C 
BRANCH   6   7
ATOM      7  C   UNL     1       6.351   0.241  -0.404  1.00  0.00    -0.047 A 
ATOM      8  C   UNL     1       5.783   1.464  -0.669  1.00  0.00     0.004 A 
ATOM      9  C   UNL     1       6.141  -0.367   0.812  1.00  0.00     0.004 A 
ATOM     10  C   UNL     1       5.001   2.047   0.331  1.00  0.00     0.000 A 
ATOM     11  C   UNL     1       5.369   0.210   1.800  1.00  0.00     0.000 A 
ATOM     12  C   UNL     1       4.796   1.437   1.542  1.00  0.00     0.000 A 
ENDBRANCH   6   7
ENDBRANCH   1   6
TORSDOF 4
ENDMDL
MODEL 5
REMARK VINA RESULT:      -6.5      1.898      2.922
REMARK SMILES O=C(O)CCc1ccccc1
REMARK SMILES IDX 4 1 2 2 1 3 3 4 5 6 6 7 7 8 11 9 8 10 10 11 9 12
REMARK H PARENT 3 5
REMARK Flexibility Score: inf
ROOT
ATOM      1  C   UNL     1       8.172  -1.665   1.206  1.00  0.00     0.127 C 
ENDROOT
BRANCH   1   2
ATOM      2  C   UNL     1       8.517  -2.837   0.368  1.00  0.00     0.303 C 
ATOM      3  O   UNL     1       9.208  -3.782   0.824  1.00  0.00    -0.252 OA
BRANCH   2   4
ATOM      4  O   UNL     1       8.085  -2.924  -0.946  1.00  0.00    -0.481 OA
ATOM      5  H   UNL     1       8.382  -3.718  -1.519  1.00  0.00     0.296 HD
ENDBRANCH   2   4
ENDBRANCH   1   2
BRANCH   1   6
ATOM      6  C   UNL     1       6.679  -1.560   1.277  1.00  0.00     0.047 C 
BRANCH   6   7
ATOM      7  C   UNL     1       6.149  -0.281   0.809  1.00  0.00    -0.047 A 
ATOM      8  C   UNL     1       5.408   0.522   1.644  1.00  0.00     0.004 A 
ATOM      9  C   UNL     1       6.402   0.118  -0.484  1.00  0.00     0.004 A 
ATOM     10  C   UNL     1       4.935   1.731   1.130  1.00  0.00     0.000 A 
ATOM     11  C   UNL     1       5.933   1.313  -0.990  1.00  0.00     0.000 A 
ATOM     12  C   UNL     1       5.189   2.123  -0.160  1.00  0.00     0.000 A 
ENDBRANCH   6   7
ENDBRANCH   1   6
TORSDOF 4
ENDMDL
