@<TRIPOS>MOLECULE
/home/cewinharhar/GITHUB/reincatalyze/data/processed/docking_pred/2023-Apr-26-1657_maxeplen10_maxtrainstep1000_exh32_gamma099_lrac9e-4_lrcr1e-3/d7d9c72b52c2e0a01b4806f6bcc2a503b8c9528b_ligand_2.pdbqt
 12 12 0 0 0
SMALL
GASTEIGER

@<TRIPOS>ATOM
      1  C          5.0140    1.7970    0.7220 C.3     1  UNL1        0.1270
      2  C          4.4830    1.1090    1.9220 C.2     1  UNL1        0.3030
      3  O          5.1290    0.1930    2.4870 O.2     1  UNL1       -0.2520
      4  O          3.2530    1.4600    2.4550 O.3     1  UNL1       -0.4810
      5  H          2.7480    2.2620    2.0660 H       1  UNL1        0.2960
      6  C          6.5110    1.7490    0.7760 C.3     1  UNL1        0.0470
      7  C          7.1220    1.0040   -0.3240 C.2     1  UNL1       -0.0470
      8  C          6.3920    0.0840   -1.0410 C.2     1  UNL1        0.0040
      9  C          8.4410    1.2350   -0.6400 C.2     1  UNL1        0.0040
     10  C          7.0400   -0.5890   -2.0790 C.2     1  UNL1        0.0000
     11  C          9.0790    0.5680   -1.6660 C.2     1  UNL1        0.0000
     12  C          8.3560   -0.3560   -2.3890 C.2     1  UNL1        0.0000
@<TRIPOS>BOND
     1    12    10    2
     2    12    11    1
     3    10     8    1
     4    11     9    2
     5     8     7    2
     6     9     7    1
     7     7     6    1
     8     1     6    1
     9     1     2    1
    10     2     4    1
    11     2     3    2
    12     5     4    1
