@<TRIPOS>MOLECULE
/home/cewinharhar/GITHUB/reincatalyze/data/processed/docking_pred/2023-Apr-26-1657_maxeplen10_maxtrainstep1000_exh32_gamma099_lrac9e-4_lrcr1e-3/d7d9c72b52c2e0a01b4806f6bcc2a503b8c9528b_ligand_2.pdbqt
 12 12 0 0 0
SMALL
GASTEIGER

@<TRIPOS>ATOM
      1  C          8.3180    0.4020   -1.9100 C.3     1  UNL1        0.1270
      2  C          9.4710    0.2230   -0.9950 C.2     1  UNL1        0.3030
      3  O          9.4020   -0.5460   -0.0050 O.2     1  UNL1       -0.2520
      4  O         10.6590    0.9030   -1.2090 O.3     1  UNL1       -0.4810
      5  H         10.6380    1.9160   -1.3520 H       1  UNL1        0.2960
      6  C          7.1810   -0.4310   -1.4030 C.3     1  UNL1        0.0470
      7  C          6.3510    0.2410   -0.4040 C.2     1  UNL1       -0.0470
      8  C          5.7830    1.4640   -0.6690 C.2     1  UNL1        0.0040
      9  C          6.1410   -0.3670    0.8120 C.2     1  UNL1        0.0040
     10  C          5.0010    2.0470    0.3310 C.2     1  UNL1        0.0000
     11  C          5.3690    0.2100    1.8000 C.2     1  UNL1        0.0000
     12  C          4.7960    1.4370    1.5420 C.2     1  UNL1        0.0000
@<TRIPOS>BOND
     1     1     6    1
     2     1     2    1
     3     6     7    1
     4     5     4    1
     5     4     2    1
     6     2     3    2
     7     8     7    2
     8     8    10    1
     9     7     9    1
    10    10    12    2
    11     9    11    2
    12    12    11    1
