@<TRIPOS>MOLECULE
/home/cewinharhar/GITHUB/reincatalyze/data/processed/docking_pred/2023-Apr-26-1657_maxeplen10_maxtrainstep1000_exh32_gamma099_lrac9e-4_lrcr1e-3/d98db6e7330c4682e6208573911aa9edae27e8f4_ligand_2.pdbqt
 12 12 0 0 0
SMALL
GASTEIGER

@<TRIPOS>ATOM
      1  C          5.0590    1.7520    0.7040 C.3     1  UNL1        0.1270
      2  C          4.5550    1.0660    1.9170 C.2     1  UNL1        0.3030
      3  O          3.4340    1.3510    2.4070 O.2     1  UNL1       -0.2520
      4  O          5.3100    0.0880    2.5450 O.3     1  UNL1       -0.4810
      5  H          5.3360    0.0560    3.5680 H       1  UNL1        0.2960
      6  C          6.5570    1.7480    0.7490 C.3     1  UNL1        0.0470
      7  C          7.1820    1.0000   -0.3410 C.2     1  UNL1       -0.0470
      8  C          8.4930    1.2300   -0.6900 C.2     1  UNL1        0.0040
      9  C          6.4440    0.0560   -1.0180 C.2     1  UNL1        0.0040
     10  C          9.0250    0.4790   -1.7400 C.2     1  UNL1        0.0000
     11  C          6.9720   -0.6850   -2.0560 C.2     1  UNL1        0.0000
     12  C          8.2840   -0.4600   -2.4130 C.2     1  UNL1        0.0000
@<TRIPOS>BOND
     1    12    11    2
     2    12    10    1
     3    11     9    1
     4    10     8    2
     5     9     7    2
     6     8     7    1
     7     7     6    1
     8     1     6    1
     9     1     2    1
    10     2     3    2
    11     2     4    1
    12     4     5    1
