@<TRIPOS>MOLECULE
/home/cewinharhar/GITHUB/reincatalyze/data/processed/docking_pred/2023-Apr-26-1657_maxeplen10_maxtrainstep1000_exh32_gamma099_lrac9e-4_lrcr1e-3/d98db6e7330c4682e6208573911aa9edae27e8f4_ligand_2.pdbqt
 12 12 0 0 0
SMALL
GASTEIGER

@<TRIPOS>ATOM
      1  C          8.4360   -0.6080   -2.1900 C.3     1  UNL1        0.1270
      2  C          8.4750   -1.8940   -2.9240 C.2     1  UNL1        0.3030
      3  O          9.5520   -2.5200   -3.0840 O.2     1  UNL1       -0.2520
      4  O          7.3190   -2.4430   -3.4570 O.3     1  UNL1       -0.4810
      5  H          7.3880   -3.0680   -4.2640 H       1  UNL1        0.2960
      6  C          7.0170   -0.1290   -2.1520 C.3     1  UNL1        0.0470
      7  C          6.4810    0.0380   -0.8030 C.2     1  UNL1       -0.0470
      8  C          6.6170   -0.9580    0.1360 C.2     1  UNL1        0.0040
      9  C          5.8380    1.2090   -0.4760 C.2     1  UNL1        0.0040
     10  C          6.0820   -0.7300    1.4060 C.2     1  UNL1        0.0000
     11  C          5.3090    1.4330    0.7790 C.2     1  UNL1        0.0000
     12  C          5.4400    0.4400    1.7260 C.2     1  UNL1        0.0000
@<TRIPOS>BOND
     1     5     4    1
     2     4     2    1
     3     3     2    2
     4     2     1    1
     5     1     6    1
     6     6     7    1
     7     7     9    2
     8     7     8    1
     9     9    11    1
    10     8    10    2
    11    11    12    2
    12    10    12    1
