@<TRIPOS>MOLECULE
/home/cewinharhar/GITHUB/reincatalyze/data/processed/docking_pred/2023-Apr-26-1657_maxeplen10_maxtrainstep1000_exh32_gamma099_lrac9e-4_lrcr1e-3/d98db6e7330c4682e6208573911aa9edae27e8f4_ligand_2.pdbqt
 12 12 0 0 0
SMALL
GASTEIGER

@<TRIPOS>ATOM
      1  C          5.0090    1.8210    0.7130 C.3     1  UNL1        0.1270
      2  C          4.4940    1.1220    1.9150 C.2     1  UNL1        0.3030
      3  O          5.1570    0.2140    2.4740 O.2     1  UNL1       -0.2520
      4  O          3.2620    1.4540    2.4550 O.3     1  UNL1       -0.4810
      5  H          2.5690    1.9270    1.8690 H       1  UNL1        0.2960
      6  C          6.5070    1.7910    0.7580 C.3     1  UNL1        0.0470
      7  C          7.1190    1.0450   -0.3390 C.2     1  UNL1       -0.0470
      8  C          6.3760    0.1700   -1.0970 C.2     1  UNL1        0.0040
      9  C          8.4560    1.2270   -0.6120 C.2     1  UNL1        0.0040
     10  C          7.0260   -0.5090   -2.1290 C.2     1  UNL1        0.0000
     11  C          9.0970    0.5550   -1.6330 C.2     1  UNL1        0.0000
     12  C          8.3590   -0.3240   -2.3960 C.2     1  UNL1        0.0000
@<TRIPOS>BOND
     1    12    10    2
     2    12    11    1
     3    10     8    1
     4    11     9    2
     5     8     7    2
     6     9     7    1
     7     7     6    1
     8     1     6    1
     9     1     2    1
    10     5     4    1
    11     2     4    1
    12     2     3    2
