@<TRIPOS>MOLECULE
/home/cewinharhar/GITHUB/reincatalyze/data/processed/docking_pred/2023-Apr-26-1657_maxeplen10_maxtrainstep1000_exh32_gamma099_lrac9e-4_lrcr1e-3/d98db6e7330c4682e6208573911aa9edae27e8f4_ligand_2.pdbqt
 12 12 0 0 0
SMALL
GASTEIGER

@<TRIPOS>ATOM
      1  C          5.4510    2.8960    0.0130 C.3     1  UNL1        0.1270
      2  C          6.2550    3.8500    0.8110 C.2     1  UNL1        0.3030
      3  O          6.9080    4.7710    0.2600 O.2     1  UNL1       -0.2520
      4  O          6.3100    3.7520    2.1920 O.3     1  UNL1       -0.4810
      5  H          6.0810    4.5710    2.7620 H       1  UNL1        0.2960
      6  C          4.9330    1.8320    0.9330 C.3     1  UNL1        0.0470
      7  C          5.7220    0.6020    0.9220 C.2     1  UNL1       -0.0470
      8  C          6.4000    0.2110   -0.2080 C.2     1  UNL1        0.0040
      9  C          5.7820   -0.1670    2.0620 C.2     1  UNL1        0.0040
     10  C          7.1350   -0.9760   -0.1460 C.2     1  UNL1        0.0000
     11  C          6.5080   -1.3400    2.1220 C.2     1  UNL1        0.0000
     12  C          7.1900   -1.7390    0.9930 C.2     1  UNL1        0.0000
@<TRIPOS>BOND
     1     8    10    1
     2     8     7    2
     3    10    12    2
     4     1     2    1
     5     1     6    1
     6     3     2    2
     7     2     4    1
     8     7     6    1
     9     7     9    1
    10    12    11    1
    11     9    11    2
    12     4     5    1
