@<TRIPOS>MOLECULE
/home/cewinharhar/GITHUB/reincatalyze/data/processed/docking_pred/2023-Apr-26-1657_maxeplen10_maxtrainstep1000_exh32_gamma099_lrac9e-4_lrcr1e-3/d98db6e7330c4682e6208573911aa9edae27e8f4_ligand_2.pdbqt
 12 12 0 0 0
SMALL
GASTEIGER

@<TRIPOS>ATOM
      1  C          8.4270   -0.6300   -2.1360 C.3     1  UNL1        0.1270
      2  C          8.4730   -1.9000   -2.8990 C.2     1  UNL1        0.3030
      3  O          9.5570   -2.5030   -3.0940 O.2     1  UNL1       -0.2520
      4  O          7.3170   -2.4570   -3.4200 O.3     1  UNL1       -0.4810
      5  H          6.5310   -2.6570   -2.7950 H       1  UNL1        0.2960
      6  C          7.0100   -0.1440   -2.1160 C.3     1  UNL1        0.0470
      7  C          6.4670    0.0500   -0.7720 C.2     1  UNL1       -0.0470
      8  C          5.8340    1.2220   -0.4320 C.2     1  UNL1        0.0040
      9  C          6.5950   -0.9580    0.1550 C.2     1  UNL1        0.0040
     10  C          5.3390    1.3380    0.8690 C.2     1  UNL1        0.0000
     11  C          6.1050   -0.8420    1.4410 C.2     1  UNL1        0.0000
     12  C          5.4700    0.3300    1.7900 C.2     1  UNL1        0.0000
@<TRIPOS>BOND
     1     4     2    1
     2     4     5    1
     3     3     2    2
     4     2     1    1
     5     1     6    1
     6     6     7    1
     7     7     8    2
     8     7     9    1
     9     8    10    1
    10     9    11    2
    11    10    12    2
    12    11    12    1
