@<TRIPOS>MOLECULE
/home/cewinharhar/GITHUB/reincatalyze/data/processed/docking_pred/2023-Apr-26-1657_maxeplen10_maxtrainstep1000_exh32_gamma099_lrac9e-4_lrcr1e-3/db02e8dbba2ca978bde564db4603195d7659b46f_ligand_2.pdbqt
 12 12 0 0 0
SMALL
GASTEIGER

@<TRIPOS>ATOM
      1  C          8.4370   -0.6150   -2.1530 C.3     1  UNL1        0.1270
      2  C          8.4830   -1.8990   -2.8920 C.2     1  UNL1        0.3030
      3  O          9.5660   -2.5070   -3.0750 O.2     1  UNL1       -0.2520
      4  O          7.3260   -2.4660   -3.4020 O.3     1  UNL1       -0.4810
      5  H          6.7750   -3.0960   -2.8130 H       1  UNL1        0.2960
      6  C          7.0180   -0.1360   -2.1300 C.3     1  UNL1        0.0470
      7  C          6.4750    0.0480   -0.7850 C.2     1  UNL1       -0.0470
      8  C          5.8520    1.2220   -0.4320 C.2     1  UNL1        0.0040
      9  C          6.5910   -0.9730    0.1310 C.2     1  UNL1        0.0040
     10  C          5.3560    1.3270    0.8690 C.2     1  UNL1        0.0000
     11  C          6.1000   -0.8670    1.4170 C.2     1  UNL1        0.0000
     12  C          5.4750    0.3070    1.7790 C.2     1  UNL1        0.0000
@<TRIPOS>BOND
     1     4     2    1
     2     4     5    1
     3     3     2    2
     4     2     1    1
     5     1     6    1
     6     6     7    1
     7     7     8    2
     8     7     9    1
     9     8    10    1
    10     9    11    2
    11    10    12    2
    12    11    12    1
