@<TRIPOS>MOLECULE
/home/cewinharhar/GITHUB/reincatalyze/data/processed/docking_pred/2023-Apr-26-1657_maxeplen10_maxtrainstep1000_exh32_gamma099_lrac9e-4_lrcr1e-3/db02e8dbba2ca978bde564db4603195d7659b46f_ligand_2.pdbqt
 12 12 0 0 0
SMALL
GASTEIGER

@<TRIPOS>ATOM
      1  C          7.2850   -1.3220   -2.0740 C.3     1  UNL1        0.1270
      2  C          8.7090   -1.3560   -2.4830 C.2     1  UNL1        0.3030
      3  O          9.5200   -0.4820   -2.0880 O.2     1  UNL1       -0.2520
      4  O          9.1850   -2.3560   -3.3150 O.3     1  UNL1       -0.4810
      5  H          9.3550   -2.1480   -4.3020 H       1  UNL1        0.2960
      6  C          7.2240   -1.3540   -0.5770 C.3     1  UNL1        0.0470
      7  C          6.4160   -0.2860    0.0080 C.2     1  UNL1       -0.0470
      8  C          5.9130   -0.4020    1.2830 C.2     1  UNL1        0.0040
      9  C          6.1630    0.8470   -0.7310 C.2     1  UNL1        0.0040
     10  C          5.1500    0.6580    1.7790 C.2     1  UNL1        0.0000
     11  C          5.4080    1.8930   -0.2400 C.2     1  UNL1        0.0000
     12  C          4.9000    1.7840    1.0360 C.2     1  UNL1        0.0000
@<TRIPOS>BOND
     1     5     4    1
     2     4     2    1
     3     2     3    2
     4     2     1    1
     5     1     6    1
     6     9    11    1
     7     9     7    2
     8     6     7    1
     9    11    12    2
    10     7     8    1
    11    12    10    1
    12     8    10    2
