@<TRIPOS>MOLECULE
/home/cewinharhar/GITHUB/reincatalyze/data/processed/docking_pred/2023-Apr-26-1657_maxeplen10_maxtrainstep1000_exh32_gamma099_lrac9e-4_lrcr1e-3/db02e8dbba2ca978bde564db4603195d7659b46f_ligand_2.pdbqt
 12 12 0 0 0
SMALL
GASTEIGER

@<TRIPOS>ATOM
      1  C          8.2370    0.1510   -2.1280 C.3     1  UNL1        0.1270
      2  C          9.3840    0.3320   -1.2080 C.2     1  UNL1        0.3030
      3  O          9.5060   -0.3700   -0.1740 O.2     1  UNL1       -0.2520
      4  O         10.3560    1.2860   -1.4640 O.3     1  UNL1       -0.4810
      5  H         11.2620    0.9900   -1.8360 H       1  UNL1        0.2960
      6  C          7.1850   -0.6460   -1.4180 C.3     1  UNL1        0.0470
      7  C          6.3880    0.1320   -0.4710 C.2     1  UNL1       -0.0470
      8  C          6.1680   -0.3270    0.8070 C.2     1  UNL1        0.0040
      9  C          5.8580    1.3370   -0.8710 C.2     1  UNL1        0.0040
     10  C          5.3980    0.4690    1.6580 C.2     1  UNL1        0.0000
     11  C          5.0970    2.1230   -0.0280 C.2     1  UNL1        0.0000
     12  C          4.8720    1.6700    1.2540 C.2     1  UNL1        0.0000
@<TRIPOS>BOND
     1     1     6    1
     2     1     2    1
     3     5     4    1
     4     4     2    1
     5     6     7    1
     6     2     3    2
     7     9     7    2
     8     9    11    1
     9     7     8    1
    10    11    12    2
    11     8    10    2
    12    12    10    1
