@<TRIPOS>MOLECULE
/home/cewinharhar/GITHUB/reincatalyze/data/processed/docking_pred/2023-Apr-26-1657_maxeplen10_maxtrainstep1000_exh32_gamma099_lrac9e-4_lrcr1e-3/db02e8dbba2ca978bde564db4603195d7659b46f_ligand_2.pdbqt
 12 12 0 0 0
SMALL
GASTEIGER

@<TRIPOS>ATOM
      1  C          8.4690   -0.6450   -2.0720 C.3     1  UNL1        0.1270
      2  C          8.4090   -1.8980   -2.8610 C.2     1  UNL1        0.3030
      3  O          7.3100   -2.4030   -3.1980 O.2     1  UNL1       -0.2520
      4  O          9.5690   -2.5500   -3.2480 O.3     1  UNL1       -0.4810
      5  H         10.4140   -2.0010   -3.4340 H       1  UNL1        0.2960
      6  C          7.1080   -0.0180   -2.0810 C.3     1  UNL1        0.0470
      7  C          6.5100    0.1220   -0.7550 C.2     1  UNL1       -0.0470
      8  C          6.6230   -0.8830    0.1780 C.2     1  UNL1        0.0040
      9  C          5.8300    1.2770   -0.4430 C.2     1  UNL1        0.0040
     10  C          6.0270   -0.6800    1.4250 C.2     1  UNL1        0.0000
     11  C          5.2420    1.4760    0.7900 C.2     1  UNL1        0.0000
     12  C          5.3500    0.4740    1.7290 C.2     1  UNL1        0.0000
@<TRIPOS>BOND
     1     5     4    1
     2     4     2    1
     3     3     2    2
     4     2     1    1
     5     6     1    1
     6     6     7    1
     7     7     9    2
     8     7     8    1
     9     9    11    1
    10     8    10    2
    11    11    12    2
    12    10    12    1
