MODEL 1
REMARK VINA RESULT:      -7.3      0.000      0.000
REMARK SMILES O=C(O)CCc1ccccc1
REMARK SMILES IDX 4 1 2 2 1 3 3 4 5 6 6 7 7 8 11 9 8 10 10 11 9 12
REMARK H PARENT 3 5
REMARK Flexibility Score: inf
ROOT
ATOM      1  C   UNL     1       8.437  -0.615  -2.153  1.00  0.00     0.127 C 
ENDROOT
BRANCH   1   2
ATOM      2  C   UNL     1       8.483  -1.899  -2.892  1.00  0.00     0.303 C 
ATOM      3  O   UNL     1       9.566  -2.507  -3.075  1.00  0.00    -0.252 OA
BRANCH   2   4
ATOM      4  O   UNL     1       7.326  -2.466  -3.402  1.00  0.00    -0.481 OA
ATOM      5  H   UNL     1       6.775  -3.096  -2.813  1.00  0.00     0.296 HD
ENDBRANCH   2   4
ENDBRANCH   1   2
BRANCH   1   6
ATOM      6  C   UNL     1       7.018  -0.136  -2.130  1.00  0.00     0.047 C 
BRANCH   6   7
ATOM      7  C   UNL     1       6.475   0.048  -0.785  1.00  0.00    -0.047 A 
ATOM      8  C   UNL     1       5.852   1.222  -0.432  1.00  0.00     0.004 A 
ATOM      9  C   UNL     1       6.591  -0.973   0.131  1.00  0.00     0.004 A 
ATOM     10  C   UNL     1       5.356   1.327   0.869  1.00  0.00     0.000 A 
ATOM     11  C   UNL     1       6.100  -0.867   1.417  1.00  0.00     0.000 A 
ATOM     12  C   UNL     1       5.475   0.307   1.779  1.00  0.00     0.000 A 
ENDBRANCH   6   7
ENDBRANCH   1   6
TORSDOF 4
ENDMDL
MODEL 2
REMARK VINA RESULT:      -7.2      0.156      1.733
REMARK SMILES O=C(O)CCc1ccccc1
REMARK SMILES IDX 4 1 2 2 1 3 3 4 5 6 6 7 7 8 11 9 8 10 10 11 9 12
REMARK H PARENT 3 5
REMARK Flexibility Score: inf
ROOT
ATOM      1  C   UNL     1       8.469  -0.645  -2.072  1.00  0.00     0.127 C 
ENDROOT
BRANCH   1   2
ATOM      2  C   UNL     1       8.409  -1.898  -2.861  1.00  0.00     0.303 C 
ATOM      3  O   UNL     1       7.310  -2.403  -3.198  1.00  0.00    -0.252 OA
BRANCH   2   4
ATOM      4  O   UNL     1       9.569  -2.550  -3.248  1.00  0.00    -0.481 OA
ATOM      5  H   UNL     1      10.414  -2.001  -3.434  1.00  0.00     0.296 HD
ENDBRANCH   2   4
ENDBRANCH   1   2
BRANCH   1   6
ATOM      6  C   UNL     1       7.108  -0.018  -2.081  1.00  0.00     0.047 C 
BRANCH   6   7
ATOM      7  C   UNL     1       6.510   0.122  -0.755  1.00  0.00    -0.047 A 
ATOM      8  C   UNL     1       6.623  -0.883   0.178  1.00  0.00     0.004 A 
ATOM      9  C   UNL     1       5.830   1.277  -0.443  1.00  0.00     0.004 A 
ATOM     10  C   UNL     1       6.027  -0.680   1.425  1.00  0.00     0.000 A 
ATOM     11  C   UNL     1       5.242   1.476   0.790  1.00  0.00     0.000 A 
ATOM     12  C   UNL     1       5.350   0.474   1.729  1.00  0.00     0.000 A 
ENDBRANCH   6   7
ENDBRANCH   1   6
TORSDOF 4
ENDMDL
MODEL 3
REMARK VINA RESULT:      -7.0      0.991      1.922
REMARK SMILES O=C(O)CCc1ccccc1
REMARK SMILES IDX 4 1 2 2 1 3 3 4 5 6 6 7 7 8 11 9 8 10 10 11 9 12
REMARK H PARENT 3 5
REMARK Flexibility Score: inf
ROOT
ATOM      1  C   UNL     1       7.285  -1.322  -2.074  1.00  0.00     0.127 C 
ENDROOT
BRANCH   1   2
ATOM      2  C   UNL     1       8.709  -1.356  -2.483  1.00  0.00     0.303 C 
ATOM      3  O   UNL     1       9.520  -0.482  -2.088  1.00  0.00    -0.252 OA
BRANCH   2   4
ATOM      4  O   UNL     1       9.185  -2.356  -3.315  1.00  0.00    -0.481 OA
ATOM      5  H   UNL     1       9.355  -2.148  -4.302  1.00  0.00     0.296 HD
ENDBRANCH   2   4
ENDBRANCH   1   2
BRANCH   1   6
ATOM      6  C   UNL     1       7.224  -1.354  -0.577  1.00  0.00     0.047 C 
BRANCH   6   7
ATOM      7  C   UNL     1       6.416  -0.286   0.008  1.00  0.00    -0.047 A 
ATOM      8  C   UNL     1       5.913  -0.402   1.283  1.00  0.00     0.004 A 
ATOM      9  C   UNL     1       6.163   0.847  -0.731  1.00  0.00     0.004 A 
ATOM     10  C   UNL     1       5.150   0.658   1.779  1.00  0.00     0.000 A 
ATOM     11  C   UNL     1       5.408   1.893  -0.240  1.00  0.00     0.000 A 
ATOM     12  C   UNL     1       4.900   1.784   1.036  1.00  0.00     0.000 A 
ENDBRANCH   6   7
ENDBRANCH   1   6
TORSDOF 4
ENDMDL
MODEL 4
REMARK VINA RESULT:      -6.7      3.342      5.014
REMARK SMILES O=C(O)CCc1ccccc1
REMARK SMILES IDX 4 1 2 2 1 3 3 4 5 6 6 7 7 8 11 9 8 10 10 11 9 12
REMARK H PARENT 3 5
REMARK Flexibility Score: inf
ROOT
ATOM      1  C   UNL     1       5.046   1.759   0.674  1.00  0.00     0.127 C 
ENDROOT
BRANCH   1   2
ATOM      2  C   UNL     1       4.599   1.062   1.903  1.00  0.00     0.303 C 
ATOM      3  O   UNL     1       5.324   0.205   2.466  1.00  0.00    -0.252 OA
BRANCH   2   4
ATOM      4  O   UNL     1       3.363   1.337   2.466  1.00  0.00    -0.481 OA
ATOM      5  H   UNL     1       2.885   2.209   2.223  1.00  0.00     0.296 HD
ENDBRANCH   2   4
ENDBRANCH   1   2
BRANCH   1   6
ATOM      6  C   UNL     1       6.543   1.821   0.687  1.00  0.00     0.047 C 
BRANCH   6   7
ATOM      7  C   UNL     1       7.178   1.044  -0.376  1.00  0.00    -0.047 A 
ATOM      8  C   UNL     1       8.517   1.196  -0.654  1.00  0.00     0.004 A 
ATOM      9  C   UNL     1       6.422   0.151  -1.099  1.00  0.00     0.004 A 
ATOM     10  C   UNL     1       9.058   0.420  -1.682  1.00  0.00     0.000 A 
ATOM     11  C   UNL     1       6.958  -0.615  -2.115  1.00  0.00     0.000 A 
ATOM     12  C   UNL     1       8.298  -0.468  -2.400  1.00  0.00     0.000 A 
ENDBRANCH   6   7
ENDBRANCH   1   6
TORSDOF 4
ENDMDL
MODEL 5
REMARK VINA RESULT:      -6.6      1.940      2.645
REMARK SMILES O=C(O)CCc1ccccc1
REMARK SMILES IDX 4 1 2 2 1 3 3 4 5 6 6 7 7 8 11 9 8 10 10 11 9 12
REMARK H PARENT 3 5
REMARK Flexibility Score: inf
ROOT
ATOM      1  C   UNL     1       8.237   0.151  -2.128  1.00  0.00     0.127 C 
ENDROOT
BRANCH   1   2
ATOM      2  C   UNL     1       9.384   0.332  -1.208  1.00  0.00     0.303 C 
ATOM      3  O   UNL     1       9.506  -0.370  -0.174  1.00  0.00    -0.252 OA
BRANCH   2   4
ATOM      4  O   UNL     1      10.356   1.286  -1.464  1.00  0.00    -0.481 OA
ATOM      5  H   UNL     1      11.262   0.990  -1.836  1.00  0.00     0.296 HD
ENDBRANCH   2   4
ENDBRANCH   1   2
BRANCH   1   6
ATOM      6  C   UNL     1       7.185  -0.646  -1.418  1.00  0.00     0.047 C 
BRANCH   6   7
ATOM      7  C   UNL     1       6.388   0.132  -0.471  1.00  0.00    -0.047 A 
ATOM      8  C   UNL     1       6.168  -0.327   0.807  1.00  0.00     0.004 A 
ATOM      9  C   UNL     1       5.858   1.337  -0.871  1.00  0.00     0.004 A 
ATOM     10  C   UNL     1       5.398   0.469   1.658  1.00  0.00     0.000 A 
ATOM     11  C   UNL     1       5.097   2.123  -0.028  1.00  0.00     0.000 A 
ATOM     12  C   UNL     1       4.872   1.670   1.254  1.00  0.00     0.000 A 
ENDBRANCH   6   7
ENDBRANCH   1   6
TORSDOF 4
ENDMDL
