@<TRIPOS>MOLECULE
/home/cewinharhar/GITHUB/reincatalyze/data/processed/docking_pred/2023-Apr-26-1657_maxeplen10_maxtrainstep1000_exh32_gamma099_lrac9e-4_lrcr1e-3/db02e8dbba2ca978bde564db4603195d7659b46f_ligand_2.pdbqt
 12 12 0 0 0
SMALL
GASTEIGER

@<TRIPOS>ATOM
      1  C          5.0460    1.7590    0.6740 C.3     1  UNL1        0.1270
      2  C          4.5990    1.0620    1.9030 C.2     1  UNL1        0.3030
      3  O          5.3240    0.2050    2.4660 O.2     1  UNL1       -0.2520
      4  O          3.3630    1.3370    2.4660 O.3     1  UNL1       -0.4810
      5  H          2.8850    2.2090    2.2230 H       1  UNL1        0.2960
      6  C          6.5430    1.8210    0.6870 C.3     1  UNL1        0.0470
      7  C          7.1780    1.0440   -0.3760 C.2     1  UNL1       -0.0470
      8  C          8.5170    1.1960   -0.6540 C.2     1  UNL1        0.0040
      9  C          6.4220    0.1510   -1.0990 C.2     1  UNL1        0.0040
     10  C          9.0580    0.4200   -1.6820 C.2     1  UNL1        0.0000
     11  C          6.9580   -0.6150   -2.1150 C.2     1  UNL1        0.0000
     12  C          8.2980   -0.4680   -2.4000 C.2     1  UNL1        0.0000
@<TRIPOS>BOND
     1    12    11    2
     2    12    10    1
     3    11     9    1
     4    10     8    2
     5     9     7    2
     6     8     7    1
     7     7     6    1
     8     1     6    1
     9     1     2    1
    10     2     3    2
    11     2     4    1
    12     5     4    1
