@<TRIPOS>MOLECULE
/home/cewinharhar/GITHUB/reincatalyze/data/processed/docking_pred/2023-Apr-26-1657_maxeplen10_maxtrainstep1000_exh32_gamma099_lrac9e-4_lrcr1e-3/db57195a81496af8cffcd6b4d9524a1fe0637e4f_ligand_2.pdbqt
 12 12 0 0 0
SMALL
GASTEIGER

@<TRIPOS>ATOM
      1  C          5.0410    1.7630    0.6820 C.3     1  UNL1        0.1270
      2  C          4.5380    1.1020    1.9090 C.2     1  UNL1        0.3030
      3  O          5.2160    0.2260    2.5010 O.2     1  UNL1       -0.2520
      4  O          3.3000    1.4330    2.4380 O.3     1  UNL1       -0.4810
      5  H          3.0310    2.4190    2.5020 H       1  UNL1        0.2960
      6  C          6.5390    1.7530    0.7230 C.3     1  UNL1        0.0470
      7  C          7.1580    1.0050   -0.3700 C.2     1  UNL1       -0.0470
      8  C          6.4070    0.1700   -1.1650 C.2     1  UNL1        0.0040
      9  C          8.5070    1.1460   -0.6010 C.2     1  UNL1        0.0040
     10  C          7.0650   -0.5130   -2.1910 C.2     1  UNL1        0.0000
     11  C          9.1550    0.4700   -1.6150 C.2     1  UNL1        0.0000
     12  C          8.4110   -0.3690   -2.4150 C.2     1  UNL1        0.0000
@<TRIPOS>BOND
     1    12    10    2
     2    12    11    1
     3    10     8    1
     4    11     9    2
     5     8     7    2
     6     9     7    1
     7     7     6    1
     8     1     6    1
     9     1     2    1
    10     2     4    1
    11     2     3    2
    12     4     5    1
