@<TRIPOS>MOLECULE
/home/cewinharhar/GITHUB/reincatalyze/data/processed/docking_pred/2023-Apr-26-1657_maxeplen10_maxtrainstep1000_exh32_gamma099_lrac9e-4_lrcr1e-3/db57195a81496af8cffcd6b4d9524a1fe0637e4f_ligand_2.pdbqt
 12 12 0 0 0
SMALL
GASTEIGER

@<TRIPOS>ATOM
      1  C          8.4140   -0.5490   -2.2500 C.3     1  UNL1        0.1270
      2  C          8.4670   -1.8690   -2.9200 C.2     1  UNL1        0.3030
      3  O          9.5510   -2.4900   -3.0490 O.2     1  UNL1       -0.2520
      4  O          7.3180   -2.4560   -3.4240 O.3     1  UNL1       -0.4810
      5  H          7.2770   -2.7060   -4.4160 H       1  UNL1        0.2960
      6  C          6.9830   -0.1090   -2.1890 C.3     1  UNL1        0.0470
      7  C          6.4670    0.0510   -0.8310 C.2     1  UNL1       -0.0470
      8  C          6.5960   -0.9600    0.0940 C.2     1  UNL1        0.0040
      9  C          5.8490    1.2290   -0.4820 C.2     1  UNL1        0.0040
     10  C          6.0800   -0.7380    1.3730 C.2     1  UNL1        0.0000
     11  C          5.3390    1.4460    0.7830 C.2     1  UNL1        0.0000
     12  C          5.4640    0.4390    1.7150 C.2     1  UNL1        0.0000
@<TRIPOS>BOND
     1     5     4    1
     2     4     2    1
     3     3     2    2
     4     2     1    1
     5     1     6    1
     6     6     7    1
     7     7     9    2
     8     7     8    1
     9     9    11    1
    10     8    10    2
    11    11    12    2
    12    10    12    1
