@<TRIPOS>MOLECULE
/home/cewinharhar/GITHUB/reincatalyze/data/processed/docking_pred/2023-Apr-26-1657_maxeplen10_maxtrainstep1000_exh32_gamma099_lrac9e-4_lrcr1e-3/db57195a81496af8cffcd6b4d9524a1fe0637e4f_ligand_2.pdbqt
 12 12 0 0 0
SMALL
GASTEIGER

@<TRIPOS>ATOM
      1  C          7.2640   -1.3020   -2.3150 C.3     1  UNL1        0.1270
      2  C          8.7250   -1.4000   -2.5430 C.2     1  UNL1        0.3030
      3  O          9.5140   -0.5350   -2.0880 O.2     1  UNL1       -0.2520
      4  O          9.2620   -2.4510   -3.2690 O.3     1  UNL1       -0.4810
      5  H         10.1920   -2.3510   -3.6830 H       1  UNL1        0.2960
      6  C          6.9370    0.1170   -1.9610 C.3     1  UNL1        0.0470
      7  C          6.3400    0.2760   -0.6360 C.2     1  UNL1       -0.0470
      8  C          6.4660   -0.7090    0.3150 C.2     1  UNL1        0.0040
      9  C          5.6490    1.4300   -0.3460 C.2     1  UNL1        0.0040
     10  C          5.8710   -0.4890    1.5590 C.2     1  UNL1        0.0000
     11  C          5.0610    1.6460    0.8850 C.2     1  UNL1        0.0000
     12  C          5.1820    0.6630    1.8430 C.2     1  UNL1        0.0000
@<TRIPOS>BOND
     1     5     4    1
     2     4     2    1
     3     2     1    1
     4     2     3    2
     5     1     6    1
     6     6     7    1
     7     7     9    2
     8     7     8    1
     9     9    11    1
    10     8    10    2
    11    11    12    2
    12    10    12    1
