@<TRIPOS>MOLECULE
/home/cewinharhar/GITHUB/reincatalyze/data/processed/docking_pred/2023-Apr-26-1657_maxeplen10_maxtrainstep1000_exh32_gamma099_lrac9e-4_lrcr1e-3/db57195a81496af8cffcd6b4d9524a1fe0637e4f_ligand_2.pdbqt
 12 12 0 0 0
SMALL
GASTEIGER

@<TRIPOS>ATOM
      1  C          5.0150    1.7710    0.6310 C.3     1  UNL1        0.1270
      2  C          4.5260    1.1270    1.8730 C.2     1  UNL1        0.3030
      3  O          5.2080    0.2550    2.4660 O.2     1  UNL1       -0.2520
      4  O          3.2970    1.4700    2.4150 O.3     1  UNL1       -0.4810
      5  H          2.6040    1.9410    1.8270 H       1  UNL1        0.2960
      6  C          6.5110    1.8160    0.6820 C.3     1  UNL1        0.0470
      7  C          7.1650    1.0470   -0.3760 C.2     1  UNL1       -0.0470
      8  C          8.5060    1.2100   -0.6380 C.2     1  UNL1        0.0040
      9  C          6.4240    0.1510   -1.1110 C.2     1  UNL1        0.0040
     10  C          9.0640    0.4420   -1.6620 C.2     1  UNL1        0.0000
     11  C          6.9770   -0.6070   -2.1240 C.2     1  UNL1        0.0000
     12  C          8.3200   -0.4490   -2.3930 C.2     1  UNL1        0.0000
@<TRIPOS>BOND
     1    12    11    2
     2    12    10    1
     3    11     9    1
     4    10     8    2
     5     9     7    2
     6     8     7    1
     7     7     6    1
     8     1     6    1
     9     1     2    1
    10     5     4    1
    11     2     4    1
    12     2     3    2
