MODEL 1
REMARK VINA RESULT:      -7.3      0.000      0.000
REMARK SMILES O=C(O)CCc1ccccc1
REMARK SMILES IDX 4 1 2 2 1 3 3 4 5 6 6 7 7 8 11 9 8 10 10 11 9 12
REMARK H PARENT 3 5
REMARK Flexibility Score: inf
ROOT
ATOM      1  C   UNL     1       8.414  -0.549  -2.250  1.00  0.00     0.127 C 
ENDROOT
BRANCH   1   2
ATOM      2  C   UNL     1       8.467  -1.869  -2.920  1.00  0.00     0.303 C 
ATOM      3  O   UNL     1       9.551  -2.490  -3.049  1.00  0.00    -0.252 OA
BRANCH   2   4
ATOM      4  O   UNL     1       7.318  -2.456  -3.424  1.00  0.00    -0.481 OA
ATOM      5  H   UNL     1       7.277  -2.706  -4.416  1.00  0.00     0.296 HD
ENDBRANCH   2   4
ENDBRANCH   1   2
BRANCH   1   6
ATOM      6  C   UNL     1       6.983  -0.109  -2.189  1.00  0.00     0.047 C 
BRANCH   6   7
ATOM      7  C   UNL     1       6.467   0.051  -0.831  1.00  0.00    -0.047 A 
ATOM      8  C   UNL     1       6.596  -0.960   0.094  1.00  0.00     0.004 A 
ATOM      9  C   UNL     1       5.849   1.229  -0.482  1.00  0.00     0.004 A 
ATOM     10  C   UNL     1       6.080  -0.738   1.373  1.00  0.00     0.000 A 
ATOM     11  C   UNL     1       5.339   1.446   0.783  1.00  0.00     0.000 A 
ATOM     12  C   UNL     1       5.464   0.439   1.715  1.00  0.00     0.000 A 
ENDBRANCH   6   7
ENDBRANCH   1   6
TORSDOF 4
ENDMDL
MODEL 2
REMARK VINA RESULT:      -7.2      0.146      1.733
REMARK SMILES O=C(O)CCc1ccccc1
REMARK SMILES IDX 4 1 2 2 1 3 3 4 5 6 6 7 7 8 11 9 8 10 10 11 9 12
REMARK H PARENT 3 5
REMARK Flexibility Score: inf
ROOT
ATOM      1  C   UNL     1       8.399  -0.636  -2.099  1.00  0.00     0.127 C 
ENDROOT
BRANCH   1   2
ATOM      2  C   UNL     1       8.369  -1.891  -2.887  1.00  0.00     0.303 C 
ATOM      3  O   UNL     1       7.283  -2.406  -3.249  1.00  0.00    -0.252 OA
BRANCH   2   4
ATOM      4  O   UNL     1       9.544  -2.532  -3.245  1.00  0.00    -0.481 OA
ATOM      5  H   UNL     1       9.495  -3.421  -3.752  1.00  0.00     0.296 HD
ENDBRANCH   2   4
ENDBRANCH   1   2
BRANCH   1   6
ATOM      6  C   UNL     1       7.017  -0.058  -2.083  1.00  0.00     0.047 C 
BRANCH   6   7
ATOM      7  C   UNL     1       6.455   0.101  -0.742  1.00  0.00    -0.047 A 
ATOM      8  C   UNL     1       5.807   1.261  -0.385  1.00  0.00     0.004 A 
ATOM      9  C   UNL     1       6.579  -0.926   0.164  1.00  0.00     0.004 A 
ATOM     10  C   UNL     1       5.294   1.343   0.912  1.00  0.00     0.000 A 
ATOM     11  C   UNL     1       6.072  -0.843   1.445  1.00  0.00     0.000 A 
ATOM     12  C   UNL     1       5.422   0.315   1.812  1.00  0.00     0.000 A 
ENDBRANCH   6   7
ENDBRANCH   1   6
TORSDOF 4
ENDMDL
MODEL 3
REMARK VINA RESULT:      -7.1      0.835      1.032
REMARK SMILES O=C(O)CCc1ccccc1
REMARK SMILES IDX 4 1 2 2 1 3 3 4 5 6 6 7 7 8 11 9 8 10 10 11 9 12
REMARK H PARENT 3 5
REMARK Flexibility Score: inf
ROOT
ATOM      1  C   UNL     1       7.264  -1.302  -2.315  1.00  0.00     0.127 C 
ENDROOT
BRANCH   1   2
ATOM      2  C   UNL     1       8.725  -1.400  -2.543  1.00  0.00     0.303 C 
ATOM      3  O   UNL     1       9.514  -0.535  -2.088  1.00  0.00    -0.252 OA
BRANCH   2   4
ATOM      4  O   UNL     1       9.262  -2.451  -3.269  1.00  0.00    -0.481 OA
ATOM      5  H   UNL     1      10.192  -2.351  -3.683  1.00  0.00     0.296 HD
ENDBRANCH   2   4
ENDBRANCH   1   2
BRANCH   1   6
ATOM      6  C   UNL     1       6.937   0.117  -1.961  1.00  0.00     0.047 C 
BRANCH   6   7
ATOM      7  C   UNL     1       6.340   0.276  -0.636  1.00  0.00    -0.047 A 
ATOM      8  C   UNL     1       6.466  -0.709   0.315  1.00  0.00     0.004 A 
ATOM      9  C   UNL     1       5.649   1.430  -0.346  1.00  0.00     0.004 A 
ATOM     10  C   UNL     1       5.871  -0.489   1.559  1.00  0.00     0.000 A 
ATOM     11  C   UNL     1       5.061   1.646   0.885  1.00  0.00     0.000 A 
ATOM     12  C   UNL     1       5.182   0.663   1.843  1.00  0.00     0.000 A 
ENDBRANCH   6   7
ENDBRANCH   1   6
TORSDOF 4
ENDMDL
MODEL 4
REMARK VINA RESULT:      -6.7      3.367      5.050
REMARK SMILES O=C(O)CCc1ccccc1
REMARK SMILES IDX 4 1 2 2 1 3 3 4 5 6 6 7 7 8 11 9 8 10 10 11 9 12
REMARK H PARENT 3 5
REMARK Flexibility Score: inf
ROOT
ATOM      1  C   UNL     1       5.015   1.771   0.631  1.00  0.00     0.127 C 
ENDROOT
BRANCH   1   2
ATOM      2  C   UNL     1       4.526   1.127   1.873  1.00  0.00     0.303 C 
ATOM      3  O   UNL     1       5.208   0.255   2.466  1.00  0.00    -0.252 OA
BRANCH   2   4
ATOM      4  O   UNL     1       3.297   1.470   2.415  1.00  0.00    -0.481 OA
ATOM      5  H   UNL     1       2.604   1.941   1.827  1.00  0.00     0.296 HD
ENDBRANCH   2   4
ENDBRANCH   1   2
BRANCH   1   6
ATOM      6  C   UNL     1       6.511   1.816   0.682  1.00  0.00     0.047 C 
BRANCH   6   7
ATOM      7  C   UNL     1       7.165   1.047  -0.376  1.00  0.00    -0.047 A 
ATOM      8  C   UNL     1       8.506   1.210  -0.638  1.00  0.00     0.004 A 
ATOM      9  C   UNL     1       6.424   0.151  -1.111  1.00  0.00     0.004 A 
ATOM     10  C   UNL     1       9.064   0.442  -1.662  1.00  0.00     0.000 A 
ATOM     11  C   UNL     1       6.977  -0.607  -2.124  1.00  0.00     0.000 A 
ATOM     12  C   UNL     1       8.320  -0.449  -2.393  1.00  0.00     0.000 A 
ENDBRANCH   6   7
ENDBRANCH   1   6
TORSDOF 4
ENDMDL
MODEL 5
REMARK VINA RESULT:      -6.7      3.368      5.051
REMARK SMILES O=C(O)CCc1ccccc1
REMARK SMILES IDX 4 1 2 2 1 3 3 4 5 6 6 7 7 8 11 9 8 10 10 11 9 12
REMARK H PARENT 3 5
REMARK Flexibility Score: inf
ROOT
ATOM      1  C   UNL     1       5.041   1.763   0.682  1.00  0.00     0.127 C 
ENDROOT
BRANCH   1   2
ATOM      2  C   UNL     1       4.538   1.102   1.909  1.00  0.00     0.303 C 
ATOM      3  O   UNL     1       5.216   0.226   2.501  1.00  0.00    -0.252 OA
BRANCH   2   4
ATOM      4  O   UNL     1       3.300   1.433   2.438  1.00  0.00    -0.481 OA
ATOM      5  H   UNL     1       3.031   2.419   2.502  1.00  0.00     0.296 HD
ENDBRANCH   2   4
ENDBRANCH   1   2
BRANCH   1   6
ATOM      6  C   UNL     1       6.539   1.753   0.723  1.00  0.00     0.047 C 
BRANCH   6   7
ATOM      7  C   UNL     1       7.158   1.005  -0.370  1.00  0.00    -0.047 A 
ATOM      8  C   UNL     1       6.407   0.170  -1.165  1.00  0.00     0.004 A 
ATOM      9  C   UNL     1       8.507   1.146  -0.601  1.00  0.00     0.004 A 
ATOM     10  C   UNL     1       7.065  -0.513  -2.191  1.00  0.00     0.000 A 
ATOM     11  C   UNL     1       9.155   0.470  -1.615  1.00  0.00     0.000 A 
ATOM     12  C   UNL     1       8.411  -0.369  -2.415  1.00  0.00     0.000 A 
ENDBRANCH   6   7
ENDBRANCH   1   6
TORSDOF 4
ENDMDL
