MODEL 1
REMARK VINA RESULT:      -7.3      0.000      0.000
REMARK SMILES O=C(O)CCc1ccccc1
REMARK SMILES IDX 4 1 2 2 1 3 3 4 5 6 6 7 7 8 11 9 8 10 10 11 9 12
REMARK H PARENT 3 5
REMARK Flexibility Score: inf
ROOT
ATOM      1  C   UNL     1       8.437  -0.558  -2.230  1.00  0.00     0.127 C 
ENDROOT
BRANCH   1   2
ATOM      2  C   UNL     1       8.482  -1.858  -2.940  1.00  0.00     0.303 C 
ATOM      3  O   UNL     1       9.565  -2.471  -3.110  1.00  0.00    -0.252 OA
BRANCH   2   4
ATOM      4  O   UNL     1       7.325  -2.434  -3.440  1.00  0.00    -0.481 OA
ATOM      5  H   UNL     1       7.366  -2.962  -4.316  1.00  0.00     0.296 HD
ENDBRANCH   2   4
ENDBRANCH   1   2
BRANCH   1   6
ATOM      6  C   UNL     1       7.011  -0.103  -2.171  1.00  0.00     0.047 C 
BRANCH   6   7
ATOM      7  C   UNL     1       6.490   0.044  -0.813  1.00  0.00    -0.047 A 
ATOM      8  C   UNL     1       6.632  -0.968   0.108  1.00  0.00     0.004 A 
ATOM      9  C   UNL     1       5.854   1.212  -0.460  1.00  0.00     0.004 A 
ATOM     10  C   UNL     1       6.111  -0.758   1.387  1.00  0.00     0.000 A 
ATOM     11  C   UNL     1       5.339   1.418   0.804  1.00  0.00     0.000 A 
ATOM     12  C   UNL     1       5.476   0.409   1.733  1.00  0.00     0.000 A 
ENDBRANCH   6   7
ENDBRANCH   1   6
TORSDOF 4
ENDMDL
MODEL 2
REMARK VINA RESULT:      -7.3      0.062      1.438
REMARK SMILES O=C(O)CCc1ccccc1
REMARK SMILES IDX 4 1 2 2 1 3 3 4 5 6 6 7 7 8 11 9 8 10 10 11 9 12
REMARK H PARENT 3 5
REMARK Flexibility Score: inf
ROOT
ATOM      1  C   UNL     1       8.417  -0.550  -2.230  1.00  0.00     0.127 C 
ENDROOT
BRANCH   1   2
ATOM      2  C   UNL     1       8.484  -1.856  -2.926  1.00  0.00     0.303 C 
ATOM      3  O   UNL     1       9.577  -2.456  -3.080  1.00  0.00    -0.252 OA
BRANCH   2   4
ATOM      4  O   UNL     1       7.339  -2.453  -3.429  1.00  0.00    -0.481 OA
ATOM      5  H   UNL     1       6.557  -1.864  -3.728  1.00  0.00     0.296 HD
ENDBRANCH   2   4
ENDBRANCH   1   2
BRANCH   1   6
ATOM      6  C   UNL     1       6.983  -0.119  -2.175  1.00  0.00     0.047 C 
BRANCH   6   7
ATOM      7  C   UNL     1       6.467   0.059  -0.819  1.00  0.00    -0.047 A 
ATOM      8  C   UNL     1       5.842   1.229  -0.453  1.00  0.00     0.004 A 
ATOM      9  C   UNL     1       6.609  -0.961   0.093  1.00  0.00     0.004 A 
ATOM     10  C   UNL     1       5.373   1.329   0.859  1.00  0.00     0.000 A 
ATOM     11  C   UNL     1       6.145  -0.859   1.389  1.00  0.00     0.000 A 
ATOM     12  C   UNL     1       5.519   0.309   1.765  1.00  0.00     0.000 A 
ENDBRANCH   6   7
ENDBRANCH   1   6
TORSDOF 4
ENDMDL
MODEL 3
REMARK VINA RESULT:      -7.3      0.621      1.091
REMARK SMILES O=C(O)CCc1ccccc1
REMARK SMILES IDX 4 1 2 2 1 3 3 4 5 6 6 7 7 8 11 9 8 10 10 11 9 12
REMARK H PARENT 3 5
REMARK Flexibility Score: inf
ROOT
ATOM      1  C   UNL     1       8.158  -0.854  -1.931  1.00  0.00     0.127 C 
ENDROOT
BRANCH   1   2
ATOM      2  C   UNL     1       8.375  -1.981  -2.869  1.00  0.00     0.303 C 
ATOM      3  O   UNL     1       9.525  -2.436  -3.085  1.00  0.00    -0.252 OA
BRANCH   2   4
ATOM      4  O   UNL     1       7.309  -2.565  -3.536  1.00  0.00    -0.481 OA
ATOM      5  H   UNL     1       7.303  -2.573  -4.560  1.00  0.00     0.296 HD
ENDBRANCH   2   4
ENDBRANCH   1   2
BRANCH   1   6
ATOM      6  C   UNL     1       7.300  -1.340  -0.803  1.00  0.00     0.047 C 
BRANCH   6   7
ATOM      7  C   UNL     1       6.510  -0.289  -0.163  1.00  0.00    -0.047 A 
ATOM      8  C   UNL     1       6.091  -0.421   1.141  1.00  0.00     0.004 A 
ATOM      9  C   UNL     1       6.189   0.841  -0.879  1.00  0.00     0.004 A 
ATOM     10  C   UNL     1       5.340   0.622   1.689  1.00  0.00     0.000 A 
ATOM     11  C   UNL     1       5.447   1.871  -0.336  1.00  0.00     0.000 A 
ATOM     12  C   UNL     1       5.023   1.747   0.969  1.00  0.00     0.000 A 
ENDBRANCH   6   7
ENDBRANCH   1   6
TORSDOF 4
ENDMDL
MODEL 4
REMARK VINA RESULT:      -6.8      3.375      5.064
REMARK SMILES O=C(O)CCc1ccccc1
REMARK SMILES IDX 4 1 2 2 1 3 3 4 5 6 6 7 7 8 11 9 8 10 10 11 9 12
REMARK H PARENT 3 5
REMARK Flexibility Score: inf
ROOT
ATOM      1  C   UNL     1       5.006   1.791   0.660  1.00  0.00     0.127 C 
ENDROOT
BRANCH   1   2
ATOM      2  C   UNL     1       4.510   1.127   1.889  1.00  0.00     0.303 C 
ATOM      3  O   UNL     1       5.186   0.241   2.468  1.00  0.00    -0.252 OA
BRANCH   2   4
ATOM      4  O   UNL     1       3.282   1.466   2.433  1.00  0.00    -0.481 OA
ATOM      5  H   UNL     1       2.695   0.733   2.841  1.00  0.00     0.296 HD
ENDBRANCH   2   4
ENDBRANCH   1   2
BRANCH   1   6
ATOM      6  C   UNL     1       6.503   1.825   0.715  1.00  0.00     0.047 C 
BRANCH   6   7
ATOM      7  C   UNL     1       7.154   1.068  -0.352  1.00  0.00    -0.047 A 
ATOM      8  C   UNL     1       8.493   1.236  -0.617  1.00  0.00     0.004 A 
ATOM      9  C   UNL     1       6.412   0.177  -1.093  1.00  0.00     0.004 A 
ATOM     10  C   UNL     1       9.050   0.478  -1.650  1.00  0.00     0.000 A 
ATOM     11  C   UNL     1       6.963  -0.570  -2.114  1.00  0.00     0.000 A 
ATOM     12  C   UNL     1       8.304  -0.408  -2.386  1.00  0.00     0.000 A 
ENDBRANCH   6   7
ENDBRANCH   1   6
TORSDOF 4
ENDMDL
MODEL 5
REMARK VINA RESULT:      -6.7      3.812      4.922
REMARK SMILES O=C(O)CCc1ccccc1
REMARK SMILES IDX 4 1 2 2 1 3 3 4 5 6 6 7 7 8 11 9 8 10 10 11 9 12
REMARK H PARENT 3 5
REMARK Flexibility Score: inf
ROOT
ATOM      1  C   UNL     1       5.426   2.791   0.027  1.00  0.00     0.127 C 
ENDROOT
BRANCH   1   2
ATOM      2  C   UNL     1       6.197   3.761   0.840  1.00  0.00     0.303 C 
ATOM      3  O   UNL     1       6.206   3.696   2.095  1.00  0.00    -0.252 OA
BRANCH   2   4
ATOM      4  O   UNL     1       6.930   4.769   0.237  1.00  0.00    -0.481 OA
ATOM      5  H   UNL     1       6.450   5.455  -0.352  1.00  0.00     0.296 HD
ENDBRANCH   2   4
ENDBRANCH   1   2
BRANCH   1   6
ATOM      6  C   UNL     1       4.909   1.719   0.937  1.00  0.00     0.047 C 
BRANCH   6   7
ATOM      7  C   UNL     1       5.721   0.503   0.945  1.00  0.00    -0.047 A 
ATOM      8  C   UNL     1       5.825  -0.265   2.081  1.00  0.00     0.004 A 
ATOM      9  C   UNL     1       6.382   0.130  -0.202  1.00  0.00     0.004 A 
ATOM     10  C   UNL     1       6.617  -1.413   2.017  1.00  0.00     0.000 A 
ATOM     11  C   UNL     1       7.164  -1.006  -0.264  1.00  0.00     0.000 A 
ATOM     12  C   UNL     1       7.275  -1.781   0.870  1.00  0.00     0.000 A 
ENDBRANCH   6   7
ENDBRANCH   1   6
TORSDOF 4
ENDMDL
