@<TRIPOS>MOLECULE
/home/cewinharhar/GITHUB/reincatalyze/data/processed/docking_pred/2023-Apr-26-1657_maxeplen10_maxtrainstep1000_exh32_gamma099_lrac9e-4_lrcr1e-3/db6d960fae65c9d90f474a1e8ae318b6f28ec3f2_ligand_2.pdbqt
 12 12 0 0 0
SMALL
GASTEIGER

@<TRIPOS>ATOM
      1  C          5.4260    2.7910    0.0270 C.3     1  UNL1        0.1270
      2  C          6.1970    3.7610    0.8400 C.2     1  UNL1        0.3030
      3  O          6.2060    3.6960    2.0950 O.2     1  UNL1       -0.2520
      4  O          6.9300    4.7690    0.2370 O.3     1  UNL1       -0.4810
      5  H          6.4500    5.4550   -0.3520 H       1  UNL1        0.2960
      6  C          4.9090    1.7190    0.9370 C.3     1  UNL1        0.0470
      7  C          5.7210    0.5030    0.9450 C.2     1  UNL1       -0.0470
      8  C          5.8250   -0.2650    2.0810 C.2     1  UNL1        0.0040
      9  C          6.3820    0.1300   -0.2020 C.2     1  UNL1        0.0040
     10  C          6.6170   -1.4130    2.0170 C.2     1  UNL1        0.0000
     11  C          7.1640   -1.0060   -0.2640 C.2     1  UNL1        0.0000
     12  C          7.2750   -1.7810    0.8700 C.2     1  UNL1        0.0000
@<TRIPOS>BOND
     1     5     4    1
     2    11     9    1
     3    11    12    2
     4     9     7    2
     5     1     2    1
     6     1     6    1
     7     4     2    1
     8     2     3    2
     9    12    10    1
    10     6     7    1
    11     7     8    1
    12    10     8    2
