@<TRIPOS>MOLECULE
/home/cewinharhar/GITHUB/reincatalyze/data/processed/docking_pred/2023-Apr-26-1657_maxeplen10_maxtrainstep1000_exh32_gamma099_lrac9e-4_lrcr1e-3/db6d960fae65c9d90f474a1e8ae318b6f28ec3f2_ligand_2.pdbqt
 12 12 0 0 0
SMALL
GASTEIGER

@<TRIPOS>ATOM
      1  C          8.1580   -0.8540   -1.9310 C.3     1  UNL1        0.1270
      2  C          8.3750   -1.9810   -2.8690 C.2     1  UNL1        0.3030
      3  O          9.5250   -2.4360   -3.0850 O.2     1  UNL1       -0.2520
      4  O          7.3090   -2.5650   -3.5360 O.3     1  UNL1       -0.4810
      5  H          7.3030   -2.5730   -4.5600 H       1  UNL1        0.2960
      6  C          7.3000   -1.3400   -0.8030 C.3     1  UNL1        0.0470
      7  C          6.5100   -0.2890   -0.1630 C.2     1  UNL1       -0.0470
      8  C          6.0910   -0.4210    1.1410 C.2     1  UNL1        0.0040
      9  C          6.1890    0.8410   -0.8790 C.2     1  UNL1        0.0040
     10  C          5.3400    0.6220    1.6890 C.2     1  UNL1        0.0000
     11  C          5.4470    1.8710   -0.3360 C.2     1  UNL1        0.0000
     12  C          5.0230    1.7470    0.9690 C.2     1  UNL1        0.0000
@<TRIPOS>BOND
     1     5     4    1
     2     4     2    1
     3     3     2    2
     4     2     1    1
     5     1     6    1
     6     9    11    1
     7     9     7    2
     8     6     7    1
     9    11    12    2
    10     7     8    1
    11    12    10    1
    12     8    10    2
