@<TRIPOS>MOLECULE
/home/cewinharhar/GITHUB/reincatalyze/data/processed/docking_pred/2023-Apr-26-1657_maxeplen10_maxtrainstep1000_exh32_gamma099_lrac9e-4_lrcr1e-3/db6d960fae65c9d90f474a1e8ae318b6f28ec3f2_ligand_2.pdbqt
 12 12 0 0 0
SMALL
GASTEIGER

@<TRIPOS>ATOM
      1  C          8.4370   -0.5580   -2.2300 C.3     1  UNL1        0.1270
      2  C          8.4820   -1.8580   -2.9400 C.2     1  UNL1        0.3030
      3  O          9.5650   -2.4710   -3.1100 O.2     1  UNL1       -0.2520
      4  O          7.3250   -2.4340   -3.4400 O.3     1  UNL1       -0.4810
      5  H          7.3660   -2.9620   -4.3160 H       1  UNL1        0.2960
      6  C          7.0110   -0.1030   -2.1710 C.3     1  UNL1        0.0470
      7  C          6.4900    0.0440   -0.8130 C.2     1  UNL1       -0.0470
      8  C          6.6320   -0.9680    0.1080 C.2     1  UNL1        0.0040
      9  C          5.8540    1.2120   -0.4600 C.2     1  UNL1        0.0040
     10  C          6.1110   -0.7580    1.3870 C.2     1  UNL1        0.0000
     11  C          5.3390    1.4180    0.8040 C.2     1  UNL1        0.0000
     12  C          5.4760    0.4090    1.7330 C.2     1  UNL1        0.0000
@<TRIPOS>BOND
     1     5     4    1
     2     4     2    1
     3     3     2    2
     4     2     1    1
     5     1     6    1
     6     6     7    1
     7     7     9    2
     8     7     8    1
     9     9    11    1
    10     8    10    2
    11    11    12    2
    12    10    12    1
