@<TRIPOS>MOLECULE
/home/cewinharhar/GITHUB/reincatalyze/data/processed/docking_pred/2023-Apr-26-1657_maxeplen10_maxtrainstep1000_exh32_gamma099_lrac9e-4_lrcr1e-3/db6d960fae65c9d90f474a1e8ae318b6f28ec3f2_ligand_2.pdbqt
 12 12 0 0 0
SMALL
GASTEIGER

@<TRIPOS>ATOM
      1  C          5.0060    1.7910    0.6600 C.3     1  UNL1        0.1270
      2  C          4.5100    1.1270    1.8890 C.2     1  UNL1        0.3030
      3  O          5.1860    0.2410    2.4680 O.2     1  UNL1       -0.2520
      4  O          3.2820    1.4660    2.4330 O.3     1  UNL1       -0.4810
      5  H          2.6950    0.7330    2.8410 H       1  UNL1        0.2960
      6  C          6.5030    1.8250    0.7150 C.3     1  UNL1        0.0470
      7  C          7.1540    1.0680   -0.3520 C.2     1  UNL1       -0.0470
      8  C          8.4930    1.2360   -0.6170 C.2     1  UNL1        0.0040
      9  C          6.4120    0.1770   -1.0930 C.2     1  UNL1        0.0040
     10  C          9.0500    0.4780   -1.6500 C.2     1  UNL1        0.0000
     11  C          6.9630   -0.5700   -2.1140 C.2     1  UNL1        0.0000
     12  C          8.3040   -0.4080   -2.3860 C.2     1  UNL1        0.0000
@<TRIPOS>BOND
     1    12    11    2
     2    12    10    1
     3    11     9    1
     4    10     8    2
     5     9     7    2
     6     8     7    1
     7     7     6    1
     8     1     6    1
     9     1     2    1
    10     2     4    1
    11     2     3    2
    12     4     5    1
