@<TRIPOS>MOLECULE
/home/cewinharhar/GITHUB/reincatalyze/data/processed/docking_pred/2023-Apr-26-1657_maxeplen10_maxtrainstep1000_exh32_gamma099_lrac9e-4_lrcr1e-3/db6d960fae65c9d90f474a1e8ae318b6f28ec3f2_ligand_2.pdbqt
 12 12 0 0 0
SMALL
GASTEIGER

@<TRIPOS>ATOM
      1  C          8.4170   -0.5500   -2.2300 C.3     1  UNL1        0.1270
      2  C          8.4840   -1.8560   -2.9260 C.2     1  UNL1        0.3030
      3  O          9.5770   -2.4560   -3.0800 O.2     1  UNL1       -0.2520
      4  O          7.3390   -2.4530   -3.4290 O.3     1  UNL1       -0.4810
      5  H          6.5570   -1.8640   -3.7280 H       1  UNL1        0.2960
      6  C          6.9830   -0.1190   -2.1750 C.3     1  UNL1        0.0470
      7  C          6.4670    0.0590   -0.8190 C.2     1  UNL1       -0.0470
      8  C          5.8420    1.2290   -0.4530 C.2     1  UNL1        0.0040
      9  C          6.6090   -0.9610    0.0930 C.2     1  UNL1        0.0040
     10  C          5.3730    1.3290    0.8590 C.2     1  UNL1        0.0000
     11  C          6.1450   -0.8590    1.3890 C.2     1  UNL1        0.0000
     12  C          5.5190    0.3090    1.7650 C.2     1  UNL1        0.0000
@<TRIPOS>BOND
     1     5     4    1
     2     4     2    1
     3     3     2    2
     4     2     1    1
     5     1     6    1
     6     6     7    1
     7     7     8    2
     8     7     9    1
     9     8    10    1
    10     9    11    2
    11    10    12    2
    12    11    12    1
