@<TRIPOS>MOLECULE
/home/cewinharhar/GITHUB/reincatalyze/data/processed/docking_pred/2023-Apr-26-1657_maxeplen10_maxtrainstep1000_exh32_gamma099_lrac9e-4_lrcr1e-3/dba3942d2f0306a5a819952336ad453bb769fd78_ligand_2.pdbqt
 12 12 0 0 0
SMALL
GASTEIGER

@<TRIPOS>ATOM
      1  C          4.9950    1.7990    0.7000 C.3     1  UNL1        0.1270
      2  C          4.4890    1.1200    1.9160 C.2     1  UNL1        0.3030
      3  O          5.1590    0.2250    2.4880 O.2     1  UNL1       -0.2520
      4  O          3.2590    1.4560    2.4560 O.3     1  UNL1       -0.4810
      5  H          2.9320    0.9730    3.2980 H       1  UNL1        0.2960
      6  C          6.4930    1.7930    0.7450 C.3     1  UNL1        0.0470
      7  C          7.1180    1.0350   -0.3380 C.2     1  UNL1       -0.0470
      8  C          6.3850    0.1430   -1.0850 C.2     1  UNL1        0.0040
      9  C          8.4540    1.2260   -0.6060 C.2     1  UNL1        0.0040
     10  C          7.0470   -0.5460   -2.1050 C.2     1  UNL1        0.0000
     11  C          9.1060    0.5440   -1.6140 C.2     1  UNL1        0.0000
     12  C          8.3800   -0.3520   -2.3670 C.2     1  UNL1        0.0000
@<TRIPOS>BOND
     1    12    10    2
     2    12    11    1
     3    10     8    1
     4    11     9    2
     5     8     7    2
     6     9     7    1
     7     7     6    1
     8     1     6    1
     9     1     2    1
    10     2     4    1
    11     2     3    2
    12     4     5    1
