@<TRIPOS>MOLECULE
/home/cewinharhar/GITHUB/reincatalyze/data/processed/docking_pred/2023-Apr-26-1657_maxeplen10_maxtrainstep1000_exh32_gamma099_lrac9e-4_lrcr1e-3/dba3942d2f0306a5a819952336ad453bb769fd78_ligand_2.pdbqt
 12 12 0 0 0
SMALL
GASTEIGER

@<TRIPOS>ATOM
      1  C          8.2690    0.5120   -1.9450 C.3     1  UNL1        0.1270
      2  C          9.4630    0.4390   -1.0700 C.2     1  UNL1        0.3030
      3  O          9.5220   -0.3770   -0.1170 O.2     1  UNL1       -0.2520
      4  O         10.5500    1.2710   -1.2820 O.3     1  UNL1       -0.4810
      5  H         10.3980    2.2800   -1.3730 H       1  UNL1        0.2960
      6  C          7.2240   -0.4100   -1.3940 C.3     1  UNL1        0.0470
      7  C          6.3920    0.1890   -0.3520 C.2     1  UNL1       -0.0470
      8  C          6.1870   -0.4600    0.8440 C.2     1  UNL1        0.0040
      9  C          5.8140    1.4170   -0.5780 C.2     1  UNL1        0.0040
     10  C          5.3810    0.1720    1.7940 C.2     1  UNL1        0.0000
     11  C          5.0180    2.0400    0.3630 C.2     1  UNL1        0.0000
     12  C          4.8060    1.3970    1.5630 C.2     1  UNL1        0.0000
@<TRIPOS>BOND
     1     1     6    1
     2     1     2    1
     3     6     7    1
     4     5     4    1
     5     4     2    1
     6     2     3    2
     7     9     7    2
     8     9    11    1
     9     7     8    1
    10    11    12    2
    11     8    10    2
    12    12    10    1
