@<TRIPOS>MOLECULE
/home/cewinharhar/GITHUB/reincatalyze/data/processed/docking_pred/2023-Apr-26-1657_maxeplen10_maxtrainstep1000_exh32_gamma099_lrac9e-4_lrcr1e-3/dba3942d2f0306a5a819952336ad453bb769fd78_ligand_2.pdbqt
 12 12 0 0 0
SMALL
GASTEIGER

@<TRIPOS>ATOM
      1  C          8.0170   -0.7150   -2.1080 C.3     1  UNL1        0.1270
      2  C          8.2720   -1.9120   -2.9430 C.2     1  UNL1        0.3030
      3  O          9.4250   -2.3970   -3.0520 O.2     1  UNL1       -0.2520
      4  O          7.2400   -2.5310   -3.6300 O.3     1  UNL1       -0.4810
      5  H          6.3520   -2.7050   -3.1510 H       1  UNL1        0.2960
      6  C          7.4730   -1.1690   -0.7880 C.3     1  UNL1        0.0470
      7  C          6.5910   -0.1970   -0.1430 C.2     1  UNL1       -0.0470
      8  C          6.1660   -0.3840    1.1520 C.2     1  UNL1        0.0040
      9  C          6.1880    0.9150   -0.8460 C.2     1  UNL1        0.0040
     10  C          5.3260    0.5850    1.7050 C.2     1  UNL1        0.0000
     11  C          5.3570    1.8710   -0.2980 C.2     1  UNL1        0.0000
     12  C          4.9270    1.6910    0.9980 C.2     1  UNL1        0.0000
@<TRIPOS>BOND
     1     4     5    1
     2     4     2    1
     3     3     2    2
     4     2     1    1
     5     1     6    1
     6     9    11    1
     7     9     7    2
     8     6     7    1
     9    11    12    2
    10     7     8    1
    11    12    10    1
    12     8    10    2
