MODEL 1
REMARK VINA RESULT:      -7.4      0.000      0.000
REMARK SMILES O=C(O)CCc1ccccc1
REMARK SMILES IDX 4 1 2 2 1 3 3 4 5 6 6 7 7 8 11 9 8 10 10 11 9 12
REMARK H PARENT 3 5
REMARK Flexibility Score: inf
ROOT
ATOM      1  C   UNL     1       8.454  -0.577  -2.212  1.00  0.00     0.127 C 
ENDROOT
BRANCH   1   2
ATOM      2  C   UNL     1       8.489  -1.877  -2.924  1.00  0.00     0.303 C 
ATOM      3  O   UNL     1       9.568  -2.496  -3.096  1.00  0.00    -0.252 OA
BRANCH   2   4
ATOM      4  O   UNL     1       7.327  -2.445  -3.421  1.00  0.00    -0.481 OA
ATOM      5  H   UNL     1       7.068  -3.392  -3.129  1.00  0.00     0.296 HD
ENDBRANCH   2   4
ENDBRANCH   1   2
BRANCH   1   6
ATOM      6  C   UNL     1       7.034  -0.101  -2.171  1.00  0.00     0.047 C 
BRANCH   6   7
ATOM      7  C   UNL     1       6.497   0.051  -0.820  1.00  0.00    -0.047 A 
ATOM      8  C   UNL     1       6.628  -0.957   0.106  1.00  0.00     0.004 A 
ATOM      9  C   UNL     1       5.856   1.220  -0.480  1.00  0.00     0.004 A 
ATOM     10  C   UNL     1       6.091  -0.743   1.378  1.00  0.00     0.000 A 
ATOM     11  C   UNL     1       5.326   1.430   0.777  1.00  0.00     0.000 A 
ATOM     12  C   UNL     1       5.452   0.425   1.711  1.00  0.00     0.000 A 
ENDBRANCH   6   7
ENDBRANCH   1   6
TORSDOF 4
ENDMDL
MODEL 2
REMARK VINA RESULT:      -7.3      0.061      1.438
REMARK SMILES O=C(O)CCc1ccccc1
REMARK SMILES IDX 4 1 2 2 1 3 3 4 5 6 6 7 7 8 11 9 8 10 10 11 9 12
REMARK H PARENT 3 5
REMARK Flexibility Score: inf
ROOT
ATOM      1  C   UNL     1       8.431  -0.573  -2.185  1.00  0.00     0.127 C 
ENDROOT
BRANCH   1   2
ATOM      2  C   UNL     1       8.489  -1.867  -2.906  1.00  0.00     0.303 C 
ATOM      3  O   UNL     1       9.580  -2.462  -3.087  1.00  0.00    -0.252 OA
BRANCH   2   4
ATOM      4  O   UNL     1       7.337  -2.456  -3.401  1.00  0.00    -0.481 OA
ATOM      5  H   UNL     1       6.884  -2.054  -4.226  1.00  0.00     0.296 HD
ENDBRANCH   2   4
ENDBRANCH   1   2
BRANCH   1   6
ATOM      6  C   UNL     1       7.005  -0.115  -2.154  1.00  0.00     0.047 C 
BRANCH   6   7
ATOM      7  C   UNL     1       6.470   0.073  -0.806  1.00  0.00    -0.047 A 
ATOM      8  C   UNL     1       5.836   1.242  -0.458  1.00  0.00     0.004 A 
ATOM      9  C   UNL     1       6.607  -0.938   0.117  1.00  0.00     0.004 A 
ATOM     10  C   UNL     1       5.349   1.352   0.847  1.00  0.00     0.000 A 
ATOM     11  C   UNL     1       6.125  -0.828   1.407  1.00  0.00     0.000 A 
ATOM     12  C   UNL     1       5.489   0.341   1.764  1.00  0.00     0.000 A 
ENDBRANCH   6   7
ENDBRANCH   1   6
TORSDOF 4
ENDMDL
MODEL 3
REMARK VINA RESULT:      -7.2      0.603      1.058
REMARK SMILES O=C(O)CCc1ccccc1
REMARK SMILES IDX 4 1 2 2 1 3 3 4 5 6 6 7 7 8 11 9 8 10 10 11 9 12
REMARK H PARENT 3 5
REMARK Flexibility Score: inf
ROOT
ATOM      1  C   UNL     1       8.017  -0.715  -2.108  1.00  0.00     0.127 C 
ENDROOT
BRANCH   1   2
ATOM      2  C   UNL     1       8.272  -1.912  -2.943  1.00  0.00     0.303 C 
ATOM      3  O   UNL     1       9.425  -2.397  -3.052  1.00  0.00    -0.252 OA
BRANCH   2   4
ATOM      4  O   UNL     1       7.240  -2.531  -3.630  1.00  0.00    -0.481 OA
ATOM      5  H   UNL     1       6.352  -2.705  -3.151  1.00  0.00     0.296 HD
ENDBRANCH   2   4
ENDBRANCH   1   2
BRANCH   1   6
ATOM      6  C   UNL     1       7.473  -1.169  -0.788  1.00  0.00     0.047 C 
BRANCH   6   7
ATOM      7  C   UNL     1       6.591  -0.197  -0.143  1.00  0.00    -0.047 A 
ATOM      8  C   UNL     1       6.166  -0.384   1.152  1.00  0.00     0.004 A 
ATOM      9  C   UNL     1       6.188   0.915  -0.846  1.00  0.00     0.004 A 
ATOM     10  C   UNL     1       5.326   0.585   1.705  1.00  0.00     0.000 A 
ATOM     11  C   UNL     1       5.357   1.871  -0.298  1.00  0.00     0.000 A 
ATOM     12  C   UNL     1       4.927   1.691   0.998  1.00  0.00     0.000 A 
ENDBRANCH   6   7
ENDBRANCH   1   6
TORSDOF 4
ENDMDL
MODEL 4
REMARK VINA RESULT:      -6.8      3.378      5.063
REMARK SMILES O=C(O)CCc1ccccc1
REMARK SMILES IDX 4 1 2 2 1 3 3 4 5 6 6 7 7 8 11 9 8 10 10 11 9 12
REMARK H PARENT 3 5
REMARK Flexibility Score: inf
ROOT
ATOM      1  C   UNL     1       4.995   1.799   0.700  1.00  0.00     0.127 C 
ENDROOT
BRANCH   1   2
ATOM      2  C   UNL     1       4.489   1.120   1.916  1.00  0.00     0.303 C 
ATOM      3  O   UNL     1       5.159   0.225   2.488  1.00  0.00    -0.252 OA
BRANCH   2   4
ATOM      4  O   UNL     1       3.259   1.456   2.456  1.00  0.00    -0.481 OA
ATOM      5  H   UNL     1       2.932   0.973   3.298  1.00  0.00     0.296 HD
ENDBRANCH   2   4
ENDBRANCH   1   2
BRANCH   1   6
ATOM      6  C   UNL     1       6.493   1.793   0.745  1.00  0.00     0.047 C 
BRANCH   6   7
ATOM      7  C   UNL     1       7.118   1.035  -0.338  1.00  0.00    -0.047 A 
ATOM      8  C   UNL     1       6.385   0.143  -1.085  1.00  0.00     0.004 A 
ATOM      9  C   UNL     1       8.454   1.226  -0.606  1.00  0.00     0.004 A 
ATOM     10  C   UNL     1       7.047  -0.546  -2.105  1.00  0.00     0.000 A 
ATOM     11  C   UNL     1       9.106   0.544  -1.614  1.00  0.00     0.000 A 
ATOM     12  C   UNL     1       8.380  -0.352  -2.367  1.00  0.00     0.000 A 
ENDBRANCH   6   7
ENDBRANCH   1   6
TORSDOF 4
ENDMDL
MODEL 5
REMARK VINA RESULT:      -6.6      1.997      2.311
REMARK SMILES O=C(O)CCc1ccccc1
REMARK SMILES IDX 4 1 2 2 1 3 3 4 5 6 6 7 7 8 11 9 8 10 10 11 9 12
REMARK H PARENT 3 5
REMARK Flexibility Score: inf
ROOT
ATOM      1  C   UNL     1       8.269   0.512  -1.945  1.00  0.00     0.127 C 
ENDROOT
BRANCH   1   2
ATOM      2  C   UNL     1       9.463   0.439  -1.070  1.00  0.00     0.303 C 
ATOM      3  O   UNL     1       9.522  -0.377  -0.117  1.00  0.00    -0.252 OA
BRANCH   2   4
ATOM      4  O   UNL     1      10.550   1.271  -1.282  1.00  0.00    -0.481 OA
ATOM      5  H   UNL     1      10.398   2.280  -1.373  1.00  0.00     0.296 HD
ENDBRANCH   2   4
ENDBRANCH   1   2
BRANCH   1   6
ATOM      6  C   UNL     1       7.224  -0.410  -1.394  1.00  0.00     0.047 C 
BRANCH   6   7
ATOM      7  C   UNL     1       6.392   0.189  -0.352  1.00  0.00    -0.047 A 
ATOM      8  C   UNL     1       6.187  -0.460   0.844  1.00  0.00     0.004 A 
ATOM      9  C   UNL     1       5.814   1.417  -0.578  1.00  0.00     0.004 A 
ATOM     10  C   UNL     1       5.381   0.172   1.794  1.00  0.00     0.000 A 
ATOM     11  C   UNL     1       5.018   2.040   0.363  1.00  0.00     0.000 A 
ATOM     12  C   UNL     1       4.806   1.397   1.563  1.00  0.00     0.000 A 
ENDBRANCH   6   7
ENDBRANCH   1   6
TORSDOF 4
ENDMDL
