@<TRIPOS>MOLECULE
/home/cewinharhar/GITHUB/reincatalyze/data/processed/docking_pred/2023-Apr-26-1657_maxeplen10_maxtrainstep1000_exh32_gamma099_lrac9e-4_lrcr1e-3/dba3942d2f0306a5a819952336ad453bb769fd78_ligand_2.pdbqt
 12 12 0 0 0
SMALL
GASTEIGER

@<TRIPOS>ATOM
      1  C          8.4540   -0.5770   -2.2120 C.3     1  UNL1        0.1270
      2  C          8.4890   -1.8770   -2.9240 C.2     1  UNL1        0.3030
      3  O          9.5680   -2.4960   -3.0960 O.2     1  UNL1       -0.2520
      4  O          7.3270   -2.4450   -3.4210 O.3     1  UNL1       -0.4810
      5  H          7.0680   -3.3920   -3.1290 H       1  UNL1        0.2960
      6  C          7.0340   -0.1010   -2.1710 C.3     1  UNL1        0.0470
      7  C          6.4970    0.0510   -0.8200 C.2     1  UNL1       -0.0470
      8  C          6.6280   -0.9570    0.1060 C.2     1  UNL1        0.0040
      9  C          5.8560    1.2200   -0.4800 C.2     1  UNL1        0.0040
     10  C          6.0910   -0.7430    1.3780 C.2     1  UNL1        0.0000
     11  C          5.3260    1.4300    0.7770 C.2     1  UNL1        0.0000
     12  C          5.4520    0.4250    1.7110 C.2     1  UNL1        0.0000
@<TRIPOS>BOND
     1     4     5    1
     2     4     2    1
     3     3     2    2
     4     2     1    1
     5     1     6    1
     6     6     7    1
     7     7     9    2
     8     7     8    1
     9     9    11    1
    10     8    10    2
    11    11    12    2
    12    10    12    1
