@<TRIPOS>MOLECULE
/home/cewinharhar/GITHUB/reincatalyze/data/processed/docking_pred/2023-Apr-26-1657_maxeplen10_maxtrainstep1000_exh32_gamma099_lrac9e-4_lrcr1e-3/dba3942d2f0306a5a819952336ad453bb769fd78_ligand_2.pdbqt
 12 12 0 0 0
SMALL
GASTEIGER

@<TRIPOS>ATOM
      1  C          8.4310   -0.5730   -2.1850 C.3     1  UNL1        0.1270
      2  C          8.4890   -1.8670   -2.9060 C.2     1  UNL1        0.3030
      3  O          9.5800   -2.4620   -3.0870 O.2     1  UNL1       -0.2520
      4  O          7.3370   -2.4560   -3.4010 O.3     1  UNL1       -0.4810
      5  H          6.8840   -2.0540   -4.2260 H       1  UNL1        0.2960
      6  C          7.0050   -0.1150   -2.1540 C.3     1  UNL1        0.0470
      7  C          6.4700    0.0730   -0.8060 C.2     1  UNL1       -0.0470
      8  C          5.8360    1.2420   -0.4580 C.2     1  UNL1        0.0040
      9  C          6.6070   -0.9380    0.1170 C.2     1  UNL1        0.0040
     10  C          5.3490    1.3520    0.8470 C.2     1  UNL1        0.0000
     11  C          6.1250   -0.8280    1.4070 C.2     1  UNL1        0.0000
     12  C          5.4890    0.3410    1.7640 C.2     1  UNL1        0.0000
@<TRIPOS>BOND
     1     5     4    1
     2     4     2    1
     3     3     2    2
     4     2     1    1
     5     1     6    1
     6     6     7    1
     7     7     8    2
     8     7     9    1
     9     8    10    1
    10     9    11    2
    11    10    12    2
    12    11    12    1
