@<TRIPOS>MOLECULE
/home/cewinharhar/GITHUB/reincatalyze/data/processed/docking_pred/2023-Apr-26-1657_maxeplen10_maxtrainstep1000_exh32_gamma099_lrac9e-4_lrcr1e-3/dca47ac415302ce9f1313af6aebf6be1e2794cfe_ligand_2.pdbqt
 12 12 0 0 0
SMALL
GASTEIGER

@<TRIPOS>ATOM
      1  C          5.4310    2.8910   -0.0030 C.3     1  UNL1        0.1270
      2  C          6.2190    3.8660    0.7860 C.2     1  UNL1        0.3030
      3  O          6.8810    4.7740    0.2240 O.2     1  UNL1       -0.2520
      4  O          6.2490    3.8020    2.1700 O.3     1  UNL1       -0.4810
      5  H          5.7740    3.0300    2.6450 H       1  UNL1        0.2960
      6  C          4.9970    1.7860    0.9120 C.3     1  UNL1        0.0470
      7  C          5.8290    0.5870    0.8320 C.2     1  UNL1       -0.0470
      8  C          5.9270   -0.2730    1.9010 C.2     1  UNL1        0.0040
      9  C          6.5160    0.3230   -0.3300 C.2     1  UNL1        0.0040
     10  C          6.7400   -1.4000    1.7530 C.2     1  UNL1        0.0000
     11  C          7.3190   -0.7910   -0.4740 C.2     1  UNL1        0.0000
     12  C          7.4240   -1.6580    0.5920 C.2     1  UNL1        0.0000
@<TRIPOS>BOND
     1    11     9    1
     2    11    12    2
     3     9     7    2
     4     1     2    1
     5     1     6    1
     6     3     2    2
     7    12    10    1
     8     2     4    1
     9     7     6    1
    10     7     8    1
    11    10     8    2
    12     4     5    1
