@<TRIPOS>MOLECULE
/home/cewinharhar/GITHUB/reincatalyze/data/processed/docking_pred/2023-Apr-26-1657_maxeplen10_maxtrainstep1000_exh32_gamma099_lrac9e-4_lrcr1e-3/dca47ac415302ce9f1313af6aebf6be1e2794cfe_ligand_2.pdbqt
 12 12 0 0 0
SMALL
GASTEIGER

@<TRIPOS>ATOM
      1  C          4.9850    1.8030    0.6970 C.3     1  UNL1        0.1270
      2  C          4.4840    1.1170    1.9110 C.2     1  UNL1        0.3030
      3  O          5.1540    0.2160    2.4730 O.2     1  UNL1       -0.2520
      4  O          3.2570    1.4530    2.4610 O.3     1  UNL1       -0.4810
      5  H          3.1720    1.5460    3.4770 H       1  UNL1        0.2960
      6  C          6.4830    1.8020    0.7400 C.3     1  UNL1        0.0470
      7  C          7.1080    1.0490   -0.3450 C.2     1  UNL1       -0.0470
      8  C          6.3740    0.1680   -1.1040 C.2     1  UNL1        0.0040
      9  C          8.4470    1.2300   -0.6030 C.2     1  UNL1        0.0040
     10  C          7.0370   -0.5170   -2.1250 C.2     1  UNL1        0.0000
     11  C          9.1010    0.5510   -1.6120 C.2     1  UNL1        0.0000
     12  C          8.3730   -0.3330   -2.3770 C.2     1  UNL1        0.0000
@<TRIPOS>BOND
     1    12    10    2
     2    12    11    1
     3    10     8    1
     4    11     9    2
     5     8     7    2
     6     9     7    1
     7     7     6    1
     8     1     6    1
     9     1     2    1
    10     2     4    1
    11     2     3    2
    12     4     5    1
