@<TRIPOS>MOLECULE
/home/cewinharhar/GITHUB/reincatalyze/data/processed/docking_pred/2023-Apr-26-1657_maxeplen10_maxtrainstep1000_exh32_gamma099_lrac9e-4_lrcr1e-3/dca47ac415302ce9f1313af6aebf6be1e2794cfe_ligand_2.pdbqt
 12 12 0 0 0
SMALL
GASTEIGER

@<TRIPOS>ATOM
      1  C          8.4590   -0.6760   -2.0590 C.3     1  UNL1        0.1270
      2  C          8.4080   -1.9170   -2.8670 C.2     1  UNL1        0.3030
      3  O          7.3120   -2.4240   -3.2130 O.2     1  UNL1       -0.2520
      4  O          9.5720   -2.5550   -3.2640 O.3     1  UNL1       -0.4810
      5  H          9.5260   -3.5230   -3.5930 H       1  UNL1        0.2960
      6  C          7.0960   -0.0530   -2.0670 C.3     1  UNL1        0.0470
      7  C          6.5010    0.0920   -0.7400 C.2     1  UNL1       -0.0470
      8  C          6.6310   -0.9030    0.2010 C.2     1  UNL1        0.0040
      9  C          5.8070    1.2400   -0.4370 C.2     1  UNL1        0.0040
     10  C          6.0370   -0.6970    1.4480 C.2     1  UNL1        0.0000
     11  C          5.2200    1.4430    0.7960 C.2     1  UNL1        0.0000
     12  C          5.3450    0.4510    1.7450 C.2     1  UNL1        0.0000
@<TRIPOS>BOND
     1     5     4    1
     2     4     2    1
     3     3     2    2
     4     2     1    1
     5     6     1    1
     6     6     7    1
     7     7     9    2
     8     7     8    1
     9     9    11    1
    10     8    10    2
    11    11    12    2
    12    10    12    1
