@<TRIPOS>MOLECULE
/home/cewinharhar/GITHUB/reincatalyze/data/processed/docking_pred/2023-Apr-26-1657_maxeplen10_maxtrainstep1000_exh32_gamma099_lrac9e-4_lrcr1e-3/dca47ac415302ce9f1313af6aebf6be1e2794cfe_ligand_2.pdbqt
 12 12 0 0 0
SMALL
GASTEIGER

@<TRIPOS>ATOM
      1  C          8.3710    0.3440   -2.0180 C.3     1  UNL1        0.1270
      2  C          9.4930    0.4020   -1.0520 C.2     1  UNL1        0.3030
      3  O          9.5420   -0.3730   -0.0650 O.2     1  UNL1       -0.2520
      4  O         10.5210    1.3160   -1.2110 O.3     1  UNL1       -0.4810
      5  H         11.2730    1.1130   -1.8750 H       1  UNL1        0.2960
      6  C          7.2780   -0.4900   -1.4220 C.3     1  UNL1        0.0470
      7  C          6.4350    0.2280   -0.4680 C.2     1  UNL1       -0.0470
      8  C          5.8800    1.4430   -0.7960 C.2     1  UNL1        0.0040
      9  C          6.1970   -0.3260    0.7680 C.2     1  UNL1        0.0040
     10  C          5.0830    2.0730    0.1630 C.2     1  UNL1        0.0000
     11  C          5.4100    0.2970    1.7160 C.2     1  UNL1        0.0000
     12  C          4.8500    1.5150    1.3950 C.2     1  UNL1        0.0000
@<TRIPOS>BOND
     1     1     6    1
     2     1     2    1
     3     5     4    1
     4     6     7    1
     5     4     2    1
     6     2     3    2
     7     8     7    2
     8     8    10    1
     9     7     9    1
    10    10    12    2
    11     9    11    2
    12    12    11    1
