@<TRIPOS>MOLECULE
/home/cewinharhar/GITHUB/reincatalyze/data/processed/docking_pred/2023-Apr-26-1657_maxeplen10_maxtrainstep1000_exh32_gamma099_lrac9e-4_lrcr1e-3/dcca543849eb83a4cf97fda16a0578d2b97a91da_ligand_2.pdbqt
 12 12 0 0 0
SMALL
GASTEIGER

@<TRIPOS>ATOM
      1  C          5.0350    1.7270    0.6830 C.3     1  UNL1        0.1270
      2  C          4.5920    1.0340    1.9160 C.2     1  UNL1        0.3030
      3  O          5.3170    0.1750    2.4760 O.2     1  UNL1       -0.2520
      4  O          3.3620    1.3170    2.4870 O.3     1  UNL1       -0.4810
      5  H          2.8960    2.2000    2.2600 H       1  UNL1        0.2960
      6  C          6.5310    1.8000    0.6950 C.3     1  UNL1        0.0470
      7  C          7.1720    1.0370   -0.3750 C.2     1  UNL1       -0.0470
      8  C          8.5090    1.2030   -0.6530 C.2     1  UNL1        0.0040
      9  C          6.4230    0.1450   -1.1050 C.2     1  UNL1        0.0040
     10  C          9.0560    0.4410   -1.6880 C.2     1  UNL1        0.0000
     11  C          6.9640   -0.6070   -2.1290 C.2     1  UNL1        0.0000
     12  C          8.3030   -0.4470   -2.4140 C.2     1  UNL1        0.0000
@<TRIPOS>BOND
     1    12    11    2
     2    12    10    1
     3    11     9    1
     4    10     8    2
     5     9     7    2
     6     8     7    1
     7     7     6    1
     8     1     6    1
     9     1     2    1
    10     2     3    2
    11     2     4    1
    12     5     4    1
