@<TRIPOS>MOLECULE
/home/cewinharhar/GITHUB/reincatalyze/data/processed/docking_pred/2023-Apr-26-1657_maxeplen10_maxtrainstep1000_exh32_gamma099_lrac9e-4_lrcr1e-3/dcca543849eb83a4cf97fda16a0578d2b97a91da_ligand_2.pdbqt
 12 12 0 0 0
SMALL
GASTEIGER

@<TRIPOS>ATOM
      1  C          8.4590   -0.6670   -2.0690 C.3     1  UNL1        0.1270
      2  C          8.4760   -1.9070   -2.8800 C.2     1  UNL1        0.3030
      3  O          9.5480   -2.5220   -3.1070 O.2     1  UNL1       -0.2520
      4  O          7.3060   -2.4240   -3.4130 O.3     1  UNL1       -0.4810
      5  H          7.2890   -2.7190   -4.3930 H       1  UNL1        0.2960
      6  C          7.0670   -0.1140   -2.0850 C.3     1  UNL1        0.0470
      7  C          6.4850    0.0690   -0.7560 C.2     1  UNL1       -0.0470
      8  C          5.8360    1.2370   -0.4280 C.2     1  UNL1        0.0040
      9  C          6.5900   -0.9440    0.1680 C.2     1  UNL1        0.0040
     10  C          5.3030    1.3420    0.8590 C.2     1  UNL1        0.0000
     11  C          6.0630   -0.8380    1.4400 C.2     1  UNL1        0.0000
     12  C          5.4120    0.3290    1.7780 C.2     1  UNL1        0.0000
@<TRIPOS>BOND
     1     5     4    1
     2     4     2    1
     3     3     2    2
     4     2     1    1
     5     6     1    1
     6     6     7    1
     7     7     8    2
     8     7     9    1
     9     8    10    1
    10     9    11    2
    11    10    12    2
    12    11    12    1
