@<TRIPOS>MOLECULE
/home/cewinharhar/GITHUB/reincatalyze/data/processed/docking_pred/2023-Apr-26-1657_maxeplen10_maxtrainstep1000_exh32_gamma099_lrac9e-4_lrcr1e-3/dcca543849eb83a4cf97fda16a0578d2b97a91da_ligand_2.pdbqt
 12 12 0 0 0
SMALL
GASTEIGER

@<TRIPOS>ATOM
      1  C          5.5020    2.8480   -0.0190 C.3     1  UNL1        0.1270
      2  C          6.2420    3.8490    0.7860 C.2     1  UNL1        0.3030
      3  O          6.8900    4.7750    0.2370 O.2     1  UNL1       -0.2520
      4  O          6.2380    3.7910    2.1700 O.3     1  UNL1       -0.4810
      5  H          7.0270    4.1830    2.6900 H       1  UNL1        0.2960
      6  C          4.9470    1.8130    0.9120 C.3     1  UNL1        0.0470
      7  C          5.7230    0.5750    0.9550 C.2     1  UNL1       -0.0470
      8  C          5.7680   -0.1880    2.0990 C.2     1  UNL1        0.0040
      9  C          6.4110    0.1740   -0.1670 C.2     1  UNL1        0.0040
     10  C          6.5280   -1.3600    2.0680 C.2     1  UNL1        0.0000
     11  C          7.1620   -0.9840   -0.1960 C.2     1  UNL1        0.0000
     12  C          7.2130   -1.7530    0.9460 C.2     1  UNL1        0.0000
@<TRIPOS>BOND
     1    11     9    1
     2    11    12    2
     3     9     7    2
     4     1     2    1
     5     1     6    1
     6     3     2    2
     7     2     4    1
     8     6     7    1
     9    12    10    1
    10     7     8    1
    11    10     8    2
    12     4     5    1
