@<TRIPOS>MOLECULE
/home/cewinharhar/GITHUB/reincatalyze/data/processed/docking_pred/2023-Apr-26-1657_maxeplen10_maxtrainstep1000_exh32_gamma099_lrac9e-4_lrcr1e-3/dcca543849eb83a4cf97fda16a0578d2b97a91da_ligand_2.pdbqt
 12 12 0 0 0
SMALL
GASTEIGER

@<TRIPOS>ATOM
      1  C          8.4300   -0.5670   -2.2130 C.3     1  UNL1        0.1270
      2  C          8.4660   -1.8750   -2.9080 C.2     1  UNL1        0.3030
      3  O          9.5450   -2.4980   -3.0670 O.2     1  UNL1       -0.2520
      4  O          7.3060   -2.4490   -3.4030 O.3     1  UNL1       -0.4810
      5  H          6.8420   -3.1860   -2.8650 H       1  UNL1        0.2960
      6  C          7.0050   -0.1060   -2.1510 C.3     1  UNL1        0.0470
      7  C          6.4830    0.0290   -0.7930 C.2     1  UNL1       -0.0470
      8  C          6.6200   -0.9930    0.1180 C.2     1  UNL1        0.0040
      9  C          5.8490    1.1950   -0.4300 C.2     1  UNL1        0.0040
     10  C          6.0980   -0.7940    1.3980 C.2     1  UNL1        0.0000
     11  C          5.3330    1.3890    0.8360 C.2     1  UNL1        0.0000
     12  C          5.4660    0.3700    1.7550 C.2     1  UNL1        0.0000
@<TRIPOS>BOND
     1     4     2    1
     2     4     5    1
     3     3     2    2
     4     2     1    1
     5     1     6    1
     6     6     7    1
     7     7     9    2
     8     7     8    1
     9     9    11    1
    10     8    10    2
    11    11    12    2
    12    10    12    1
