@<TRIPOS>MOLECULE
/home/cewinharhar/GITHUB/reincatalyze/data/processed/docking_pred/2023-Apr-26-1657_maxeplen10_maxtrainstep1000_exh32_gamma099_lrac9e-4_lrcr1e-3/dcca543849eb83a4cf97fda16a0578d2b97a91da_ligand_2.pdbqt
 12 12 0 0 0
SMALL
GASTEIGER

@<TRIPOS>ATOM
      1  C          5.0210    1.8000    0.7020 C.3     1  UNL1        0.1270
      2  C          4.4960    1.1210    1.9100 C.2     1  UNL1        0.3030
      3  O          5.1510    0.2170    2.4850 O.2     1  UNL1       -0.2520
      4  O          3.2630    1.4680    2.4390 O.3     1  UNL1       -0.4810
      5  H          2.8460    2.3690    2.1890 H       1  UNL1        0.2960
      6  C          6.5180    1.7620    0.7540 C.3     1  UNL1        0.0470
      7  C          7.1320    1.0130   -0.3410 C.2     1  UNL1       -0.0470
      8  C          6.4000    0.1040   -1.0700 C.2     1  UNL1        0.0040
      9  C          8.4580    1.2270   -0.6410 C.2     1  UNL1        0.0040
     10  C          7.0510   -0.5740   -2.1020 C.2     1  UNL1        0.0000
     11  C          9.1000    0.5550   -1.6620 C.2     1  UNL1        0.0000
     12  C          8.3740   -0.3570   -2.3960 C.2     1  UNL1        0.0000
@<TRIPOS>BOND
     1    12    10    2
     2    12    11    1
     3    10     8    1
     4    11     9    2
     5     8     7    2
     6     9     7    1
     7     7     6    1
     8     1     6    1
     9     1     2    1
    10     2     4    1
    11     2     3    2
    12     5     4    1
