MODEL 1
REMARK VINA RESULT:      -7.3      0.000      0.000
REMARK SMILES O=C(O)CCc1ccccc1
REMARK SMILES IDX 4 1 2 2 1 3 3 4 5 6 6 7 7 8 11 9 8 10 10 11 9 12
REMARK H PARENT 3 5
REMARK Flexibility Score: inf
ROOT
ATOM      1  C   UNL     1       8.459  -0.667  -2.069  1.00  0.00     0.127 C 
ENDROOT
BRANCH   1   2
ATOM      2  C   UNL     1       8.476  -1.907  -2.880  1.00  0.00     0.303 C 
ATOM      3  O   UNL     1       9.548  -2.522  -3.107  1.00  0.00    -0.252 OA
BRANCH   2   4
ATOM      4  O   UNL     1       7.306  -2.424  -3.413  1.00  0.00    -0.481 OA
ATOM      5  H   UNL     1       7.289  -2.719  -4.393  1.00  0.00     0.296 HD
ENDBRANCH   2   4
ENDBRANCH   1   2
BRANCH   1   6
ATOM      6  C   UNL     1       7.067  -0.114  -2.085  1.00  0.00     0.047 C 
BRANCH   6   7
ATOM      7  C   UNL     1       6.485   0.069  -0.756  1.00  0.00    -0.047 A 
ATOM      8  C   UNL     1       5.836   1.237  -0.428  1.00  0.00     0.004 A 
ATOM      9  C   UNL     1       6.590  -0.944   0.168  1.00  0.00     0.004 A 
ATOM     10  C   UNL     1       5.303   1.342   0.859  1.00  0.00     0.000 A 
ATOM     11  C   UNL     1       6.063  -0.838   1.440  1.00  0.00     0.000 A 
ATOM     12  C   UNL     1       5.412   0.329   1.778  1.00  0.00     0.000 A 
ENDBRANCH   6   7
ENDBRANCH   1   6
TORSDOF 4
ENDMDL
MODEL 2
REMARK VINA RESULT:      -7.3      0.079      1.438
REMARK SMILES O=C(O)CCc1ccccc1
REMARK SMILES IDX 4 1 2 2 1 3 3 4 5 6 6 7 7 8 11 9 8 10 10 11 9 12
REMARK H PARENT 3 5
REMARK Flexibility Score: inf
ROOT
ATOM      1  C   UNL     1       8.430  -0.567  -2.213  1.00  0.00     0.127 C 
ENDROOT
BRANCH   1   2
ATOM      2  C   UNL     1       8.466  -1.875  -2.908  1.00  0.00     0.303 C 
ATOM      3  O   UNL     1       9.545  -2.498  -3.067  1.00  0.00    -0.252 OA
BRANCH   2   4
ATOM      4  O   UNL     1       7.306  -2.449  -3.403  1.00  0.00    -0.481 OA
ATOM      5  H   UNL     1       6.842  -3.186  -2.865  1.00  0.00     0.296 HD
ENDBRANCH   2   4
ENDBRANCH   1   2
BRANCH   1   6
ATOM      6  C   UNL     1       7.005  -0.106  -2.151  1.00  0.00     0.047 C 
BRANCH   6   7
ATOM      7  C   UNL     1       6.483   0.029  -0.793  1.00  0.00    -0.047 A 
ATOM      8  C   UNL     1       6.620  -0.993   0.118  1.00  0.00     0.004 A 
ATOM      9  C   UNL     1       5.849   1.195  -0.430  1.00  0.00     0.004 A 
ATOM     10  C   UNL     1       6.098  -0.794   1.398  1.00  0.00     0.000 A 
ATOM     11  C   UNL     1       5.333   1.389   0.836  1.00  0.00     0.000 A 
ATOM     12  C   UNL     1       5.466   0.370   1.755  1.00  0.00     0.000 A 
ENDBRANCH   6   7
ENDBRANCH   1   6
TORSDOF 4
ENDMDL
MODEL 3
REMARK VINA RESULT:      -6.8      3.370      5.086
REMARK SMILES O=C(O)CCc1ccccc1
REMARK SMILES IDX 4 1 2 2 1 3 3 4 5 6 6 7 7 8 11 9 8 10 10 11 9 12
REMARK H PARENT 3 5
REMARK Flexibility Score: inf
ROOT
ATOM      1  C   UNL     1       5.021   1.800   0.702  1.00  0.00     0.127 C 
ENDROOT
BRANCH   1   2
ATOM      2  C   UNL     1       4.496   1.121   1.910  1.00  0.00     0.303 C 
ATOM      3  O   UNL     1       5.151   0.217   2.485  1.00  0.00    -0.252 OA
BRANCH   2   4
ATOM      4  O   UNL     1       3.263   1.468   2.439  1.00  0.00    -0.481 OA
ATOM      5  H   UNL     1       2.846   2.369   2.189  1.00  0.00     0.296 HD
ENDBRANCH   2   4
ENDBRANCH   1   2
BRANCH   1   6
ATOM      6  C   UNL     1       6.518   1.762   0.754  1.00  0.00     0.047 C 
BRANCH   6   7
ATOM      7  C   UNL     1       7.132   1.013  -0.341  1.00  0.00    -0.047 A 
ATOM      8  C   UNL     1       6.400   0.104  -1.070  1.00  0.00     0.004 A 
ATOM      9  C   UNL     1       8.458   1.227  -0.641  1.00  0.00     0.004 A 
ATOM     10  C   UNL     1       7.051  -0.574  -2.102  1.00  0.00     0.000 A 
ATOM     11  C   UNL     1       9.100   0.555  -1.662  1.00  0.00     0.000 A 
ATOM     12  C   UNL     1       8.374  -0.357  -2.396  1.00  0.00     0.000 A 
ENDBRANCH   6   7
ENDBRANCH   1   6
TORSDOF 4
ENDMDL
MODEL 4
REMARK VINA RESULT:      -6.7      3.816      4.977
REMARK SMILES O=C(O)CCc1ccccc1
REMARK SMILES IDX 4 1 2 2 1 3 3 4 5 6 6 7 7 8 11 9 8 10 10 11 9 12
REMARK H PARENT 3 5
REMARK Flexibility Score: inf
ROOT
ATOM      1  C   UNL     1       5.502   2.848  -0.019  1.00  0.00     0.127 C 
ENDROOT
BRANCH   1   2
ATOM      2  C   UNL     1       6.242   3.849   0.786  1.00  0.00     0.303 C 
ATOM      3  O   UNL     1       6.890   4.775   0.237  1.00  0.00    -0.252 OA
BRANCH   2   4
ATOM      4  O   UNL     1       6.238   3.791   2.170  1.00  0.00    -0.481 OA
ATOM      5  H   UNL     1       7.027   4.183   2.690  1.00  0.00     0.296 HD
ENDBRANCH   2   4
ENDBRANCH   1   2
BRANCH   1   6
ATOM      6  C   UNL     1       4.947   1.813   0.912  1.00  0.00     0.047 C 
BRANCH   6   7
ATOM      7  C   UNL     1       5.723   0.575   0.955  1.00  0.00    -0.047 A 
ATOM      8  C   UNL     1       5.768  -0.188   2.099  1.00  0.00     0.004 A 
ATOM      9  C   UNL     1       6.411   0.174  -0.167  1.00  0.00     0.004 A 
ATOM     10  C   UNL     1       6.528  -1.360   2.068  1.00  0.00     0.000 A 
ATOM     11  C   UNL     1       7.162  -0.984  -0.196  1.00  0.00     0.000 A 
ATOM     12  C   UNL     1       7.213  -1.753   0.946  1.00  0.00     0.000 A 
ENDBRANCH   6   7
ENDBRANCH   1   6
TORSDOF 4
ENDMDL
MODEL 5
REMARK VINA RESULT:      -6.7      3.333      5.021
REMARK SMILES O=C(O)CCc1ccccc1
REMARK SMILES IDX 4 1 2 2 1 3 3 4 5 6 6 7 7 8 11 9 8 10 10 11 9 12
REMARK H PARENT 3 5
REMARK Flexibility Score: inf
ROOT
ATOM      1  C   UNL     1       5.035   1.727   0.683  1.00  0.00     0.127 C 
ENDROOT
BRANCH   1   2
ATOM      2  C   UNL     1       4.592   1.034   1.916  1.00  0.00     0.303 C 
ATOM      3  O   UNL     1       5.317   0.175   2.476  1.00  0.00    -0.252 OA
BRANCH   2   4
ATOM      4  O   UNL     1       3.362   1.317   2.487  1.00  0.00    -0.481 OA
ATOM      5  H   UNL     1       2.896   2.200   2.260  1.00  0.00     0.296 HD
ENDBRANCH   2   4
ENDBRANCH   1   2
BRANCH   1   6
ATOM      6  C   UNL     1       6.531   1.800   0.695  1.00  0.00     0.047 C 
BRANCH   6   7
ATOM      7  C   UNL     1       7.172   1.037  -0.375  1.00  0.00    -0.047 A 
ATOM      8  C   UNL     1       8.509   1.203  -0.653  1.00  0.00     0.004 A 
ATOM      9  C   UNL     1       6.423   0.145  -1.105  1.00  0.00     0.004 A 
ATOM     10  C   UNL     1       9.056   0.441  -1.688  1.00  0.00     0.000 A 
ATOM     11  C   UNL     1       6.964  -0.607  -2.129  1.00  0.00     0.000 A 
ATOM     12  C   UNL     1       8.303  -0.447  -2.414  1.00  0.00     0.000 A 
ENDBRANCH   6   7
ENDBRANCH   1   6
TORSDOF 4
ENDMDL
