MODEL 1
REMARK VINA RESULT:      -7.3      0.000      0.000
REMARK SMILES O=C(O)CCc1ccccc1
REMARK SMILES IDX 4 1 2 2 1 3 3 4 5 6 6 7 7 8 11 9 8 10 10 11 9 12
REMARK H PARENT 3 5
REMARK Flexibility Score: inf
ROOT
ATOM      1  C   UNL     1       8.407  -0.671  -2.056  1.00  0.00     0.127 C 
ENDROOT
BRANCH   1   2
ATOM      2  C   UNL     1       8.379  -1.905  -2.877  1.00  0.00     0.303 C 
ATOM      3  O   UNL     1       7.293  -2.416  -3.247  1.00  0.00    -0.252 OA
BRANCH   2   4
ATOM      4  O   UNL     1       9.555  -2.530  -3.259  1.00  0.00    -0.481 OA
ATOM      5  H   UNL     1      10.351  -2.536  -2.616  1.00  0.00     0.296 HD
ENDBRANCH   2   4
ENDBRANCH   1   2
BRANCH   1   6
ATOM      6  C   UNL     1       7.035  -0.069  -2.064  1.00  0.00     0.047 C 
BRANCH   6   7
ATOM      7  C   UNL     1       6.459   0.116  -0.734  1.00  0.00    -0.047 A 
ATOM      8  C   UNL     1       5.807   1.282  -0.405  1.00  0.00     0.004 A 
ATOM      9  C   UNL     1       6.572  -0.895   0.193  1.00  0.00     0.004 A 
ATOM     10  C   UNL     1       5.280   1.388   0.884  1.00  0.00     0.000 A 
ATOM     11  C   UNL     1       6.051  -0.788   1.467  1.00  0.00     0.000 A 
ATOM     12  C   UNL     1       5.397   0.377   1.805  1.00  0.00     0.000 A 
ENDBRANCH   6   7
ENDBRANCH   1   6
TORSDOF 4
ENDMDL
MODEL 2
REMARK VINA RESULT:      -7.2      0.080      1.438
REMARK SMILES O=C(O)CCc1ccccc1
REMARK SMILES IDX 4 1 2 2 1 3 3 4 5 6 6 7 7 8 11 9 8 10 10 11 9 12
REMARK H PARENT 3 5
REMARK Flexibility Score: inf
ROOT
ATOM      1  C   UNL     1       8.486  -0.664  -2.041  1.00  0.00     0.127 C 
ENDROOT
BRANCH   1   2
ATOM      2  C   UNL     1       8.410  -1.897  -2.860  1.00  0.00     0.303 C 
ATOM      3  O   UNL     1       7.304  -2.383  -3.203  1.00  0.00    -0.252 OA
BRANCH   2   4
ATOM      4  O   UNL     1       9.561  -2.549  -3.270  1.00  0.00    -0.481 OA
ATOM      5  H   UNL     1       9.567  -3.036  -4.170  1.00  0.00     0.296 HD
ENDBRANCH   2   4
ENDBRANCH   1   2
BRANCH   1   6
ATOM      6  C   UNL     1       7.140  -0.007  -2.052  1.00  0.00     0.047 C 
BRANCH   6   7
ATOM      7  C   UNL     1       6.529   0.122  -0.730  1.00  0.00    -0.047 A 
ATOM      8  C   UNL     1       6.644  -0.887   0.198  1.00  0.00     0.004 A 
ATOM      9  C   UNL     1       5.837   1.269  -0.419  1.00  0.00     0.004 A 
ATOM     10  C   UNL     1       6.036  -0.695   1.441  1.00  0.00     0.000 A 
ATOM     11  C   UNL     1       5.237   1.456   0.810  1.00  0.00     0.000 A 
ATOM     12  C   UNL     1       5.346   0.450   1.746  1.00  0.00     0.000 A 
ENDBRANCH   6   7
ENDBRANCH   1   6
TORSDOF 4
ENDMDL
MODEL 3
REMARK VINA RESULT:      -7.1      0.596      1.603
REMARK SMILES O=C(O)CCc1ccccc1
REMARK SMILES IDX 4 1 2 2 1 3 3 4 5 6 6 7 7 8 11 9 8 10 10 11 9 12
REMARK H PARENT 3 5
REMARK Flexibility Score: inf
ROOT
ATOM      1  C   UNL     1       8.271  -0.914  -1.836  1.00  0.00     0.127 C 
ENDROOT
BRANCH   1   2
ATOM      2  C   UNL     1       8.317  -1.999  -2.844  1.00  0.00     0.303 C 
ATOM      3  O   UNL     1       7.266  -2.448  -3.365  1.00  0.00    -0.252 OA
BRANCH   2   4
ATOM      4  O   UNL     1       9.525  -2.550  -3.241  1.00  0.00    -0.481 OA
ATOM      5  H   UNL     1      10.378  -1.989  -3.169  1.00  0.00     0.296 HD
ENDBRANCH   2   4
ENDBRANCH   1   2
BRANCH   1   6
ATOM      6  C   UNL     1       7.466  -1.392  -0.666  1.00  0.00     0.047 C 
BRANCH   6   7
ATOM      7  C   UNL     1       6.609  -0.365  -0.075  1.00  0.00    -0.047 A 
ATOM      8  C   UNL     1       6.140  -0.496   1.212  1.00  0.00     0.004 A 
ATOM      9  C   UNL     1       6.276   0.742  -0.820  1.00  0.00     0.004 A 
ATOM     10  C   UNL     1       5.328   0.524   1.712  1.00  0.00     0.000 A 
ATOM     11  C   UNL     1       5.473   1.749  -0.324  1.00  0.00     0.000 A 
ATOM     12  C   UNL     1       4.998   1.625   0.964  1.00  0.00     0.000 A 
ENDBRANCH   6   7
ENDBRANCH   1   6
TORSDOF 4
ENDMDL
MODEL 4
REMARK VINA RESULT:      -6.8      3.317      5.158
REMARK SMILES O=C(O)CCc1ccccc1
REMARK SMILES IDX 4 1 2 2 1 3 3 4 5 6 6 7 7 8 11 9 8 10 10 11 9 12
REMARK H PARENT 3 5
REMARK Flexibility Score: inf
ROOT
ATOM      1  C   UNL     1       4.977   1.782   0.701  1.00  0.00     0.127 C 
ENDROOT
BRANCH   1   2
ATOM      2  C   UNL     1       4.472   1.105   1.918  1.00  0.00     0.303 C 
ATOM      3  O   UNL     1       5.136   0.202   2.484  1.00  0.00    -0.252 OA
BRANCH   2   4
ATOM      4  O   UNL     1       3.248   1.451   2.467  1.00  0.00    -0.481 OA
ATOM      5  H   UNL     1       2.499   0.754   2.502  1.00  0.00     0.296 HD
ENDBRANCH   2   4
ENDBRANCH   1   2
BRANCH   1   6
ATOM      6  C   UNL     1       6.475   1.782   0.750  1.00  0.00     0.047 C 
BRANCH   6   7
ATOM      7  C   UNL     1       7.105   1.042  -0.341  1.00  0.00    -0.047 A 
ATOM      8  C   UNL     1       6.377   0.161  -1.107  1.00  0.00     0.004 A 
ATOM      9  C   UNL     1       8.443   1.235  -0.600  1.00  0.00     0.004 A 
ATOM     10  C   UNL     1       7.044  -0.511  -2.134  1.00  0.00     0.000 A 
ATOM     11  C   UNL     1       9.101   0.569  -1.614  1.00  0.00     0.000 A 
ATOM     12  C   UNL     1       8.378  -0.315  -2.386  1.00  0.00     0.000 A 
ENDBRANCH   6   7
ENDBRANCH   1   6
TORSDOF 4
ENDMDL
MODEL 5
REMARK VINA RESULT:      -6.6      1.938      2.175
REMARK SMILES O=C(O)CCc1ccccc1
REMARK SMILES IDX 4 1 2 2 1 3 3 4 5 6 6 7 7 8 11 9 8 10 10 11 9 12
REMARK H PARENT 3 5
REMARK Flexibility Score: inf
ROOT
ATOM      1  C   UNL     1       8.146   0.269  -2.078  1.00  0.00     0.127 C 
ENDROOT
BRANCH   1   2
ATOM      2  C   UNL     1       9.332   0.364  -1.195  1.00  0.00     0.303 C 
ATOM      3  O   UNL     1       9.467  -0.394  -0.204  1.00  0.00    -0.252 OA
BRANCH   2   4
ATOM      4  O   UNL     1      10.327   1.297  -1.440  1.00  0.00    -0.481 OA
ATOM      5  H   UNL     1      10.067   2.231  -1.769  1.00  0.00     0.296 HD
ENDBRANCH   2   4
ENDBRANCH   1   2
BRANCH   1   6
ATOM      6  C   UNL     1       7.113  -0.572  -1.391  1.00  0.00     0.047 C 
BRANCH   6   7
ATOM      7  C   UNL     1       6.327   0.150  -0.393  1.00  0.00    -0.047 A 
ATOM      8  C   UNL     1       5.802   1.390  -0.673  1.00  0.00     0.004 A 
ATOM      9  C   UNL     1       6.112  -0.426   0.838  1.00  0.00     0.004 A 
ATOM     10  C   UNL     1       5.060   2.022   0.327  1.00  0.00     0.000 A 
ATOM     11  C   UNL     1       5.379   0.200   1.826  1.00  0.00     0.000 A 
ATOM     12  C   UNL     1       4.850   1.443   1.553  1.00  0.00     0.000 A 
ENDBRANCH   6   7
ENDBRANCH   1   6
TORSDOF 4
ENDMDL
