@<TRIPOS>MOLECULE
/home/cewinharhar/GITHUB/reincatalyze/data/processed/docking_pred/2023-Apr-26-1657_maxeplen10_maxtrainstep1000_exh32_gamma099_lrac9e-4_lrcr1e-3/dd626561b0241c753f5aa586a778cbbb50e2da15_ligand_2.pdbqt
 12 12 0 0 0
SMALL
GASTEIGER

@<TRIPOS>ATOM
      1  C          8.2710   -0.9140   -1.8360 C.3     1  UNL1        0.1270
      2  C          8.3170   -1.9990   -2.8440 C.2     1  UNL1        0.3030
      3  O          7.2660   -2.4480   -3.3650 O.2     1  UNL1       -0.2520
      4  O          9.5250   -2.5500   -3.2410 O.3     1  UNL1       -0.4810
      5  H         10.3780   -1.9890   -3.1690 H       1  UNL1        0.2960
      6  C          7.4660   -1.3920   -0.6660 C.3     1  UNL1        0.0470
      7  C          6.6090   -0.3650   -0.0750 C.2     1  UNL1       -0.0470
      8  C          6.1400   -0.4960    1.2120 C.2     1  UNL1        0.0040
      9  C          6.2760    0.7420   -0.8200 C.2     1  UNL1        0.0040
     10  C          5.3280    0.5240    1.7120 C.2     1  UNL1        0.0000
     11  C          5.4730    1.7490   -0.3240 C.2     1  UNL1        0.0000
     12  C          4.9980    1.6250    0.9640 C.2     1  UNL1        0.0000
@<TRIPOS>BOND
     1     3     2    2
     2     4     5    1
     3     4     2    1
     4     2     1    1
     5     1     6    1
     6     9    11    1
     7     9     7    2
     8     6     7    1
     9    11    12    2
    10     7     8    1
    11    12    10    1
    12     8    10    2
