@<TRIPOS>MOLECULE
/home/cewinharhar/GITHUB/reincatalyze/data/processed/docking_pred/2023-Apr-26-1657_maxeplen10_maxtrainstep1000_exh32_gamma099_lrac9e-4_lrcr1e-3/dd626561b0241c753f5aa586a778cbbb50e2da15_ligand_2.pdbqt
 12 12 0 0 0
SMALL
GASTEIGER

@<TRIPOS>ATOM
      1  C          8.1460    0.2690   -2.0780 C.3     1  UNL1        0.1270
      2  C          9.3320    0.3640   -1.1950 C.2     1  UNL1        0.3030
      3  O          9.4670   -0.3940   -0.2040 O.2     1  UNL1       -0.2520
      4  O         10.3270    1.2970   -1.4400 O.3     1  UNL1       -0.4810
      5  H         10.0670    2.2310   -1.7690 H       1  UNL1        0.2960
      6  C          7.1130   -0.5720   -1.3910 C.3     1  UNL1        0.0470
      7  C          6.3270    0.1500   -0.3930 C.2     1  UNL1       -0.0470
      8  C          5.8020    1.3900   -0.6730 C.2     1  UNL1        0.0040
      9  C          6.1120   -0.4260    0.8380 C.2     1  UNL1        0.0040
     10  C          5.0600    2.0220    0.3270 C.2     1  UNL1        0.0000
     11  C          5.3790    0.2000    1.8260 C.2     1  UNL1        0.0000
     12  C          4.8500    1.4430    1.5530 C.2     1  UNL1        0.0000
@<TRIPOS>BOND
     1     1     6    1
     2     1     2    1
     3     5     4    1
     4     4     2    1
     5     6     7    1
     6     2     3    2
     7     8     7    2
     8     8    10    1
     9     7     9    1
    10    10    12    2
    11     9    11    2
    12    12    11    1
