@<TRIPOS>MOLECULE
/home/cewinharhar/GITHUB/reincatalyze/data/processed/docking_pred/2023-Apr-26-1657_maxeplen10_maxtrainstep1000_exh32_gamma099_lrac9e-4_lrcr1e-3/dd626561b0241c753f5aa586a778cbbb50e2da15_ligand_2.pdbqt
 12 12 0 0 0
SMALL
GASTEIGER

@<TRIPOS>ATOM
      1  C          4.9770    1.7820    0.7010 C.3     1  UNL1        0.1270
      2  C          4.4720    1.1050    1.9180 C.2     1  UNL1        0.3030
      3  O          5.1360    0.2020    2.4840 O.2     1  UNL1       -0.2520
      4  O          3.2480    1.4510    2.4670 O.3     1  UNL1       -0.4810
      5  H          2.4990    0.7540    2.5020 H       1  UNL1        0.2960
      6  C          6.4750    1.7820    0.7500 C.3     1  UNL1        0.0470
      7  C          7.1050    1.0420   -0.3410 C.2     1  UNL1       -0.0470
      8  C          6.3770    0.1610   -1.1070 C.2     1  UNL1        0.0040
      9  C          8.4430    1.2350   -0.6000 C.2     1  UNL1        0.0040
     10  C          7.0440   -0.5110   -2.1340 C.2     1  UNL1        0.0000
     11  C          9.1010    0.5690   -1.6140 C.2     1  UNL1        0.0000
     12  C          8.3780   -0.3150   -2.3860 C.2     1  UNL1        0.0000
@<TRIPOS>BOND
     1    12    10    2
     2    12    11    1
     3    10     8    1
     4    11     9    2
     5     8     7    2
     6     9     7    1
     7     7     6    1
     8     1     6    1
     9     1     2    1
    10     2     4    1
    11     2     3    2
    12     4     5    1
