@<TRIPOS>MOLECULE
/home/cewinharhar/GITHUB/reincatalyze/data/processed/docking_pred/2023-Apr-26-1657_maxeplen10_maxtrainstep1000_exh32_gamma099_lrac9e-4_lrcr1e-3/dd626561b0241c753f5aa586a778cbbb50e2da15_ligand_2.pdbqt
 12 12 0 0 0
SMALL
GASTEIGER

@<TRIPOS>ATOM
      1  C          8.4070   -0.6710   -2.0560 C.3     1  UNL1        0.1270
      2  C          8.3790   -1.9050   -2.8770 C.2     1  UNL1        0.3030
      3  O          7.2930   -2.4160   -3.2470 O.2     1  UNL1       -0.2520
      4  O          9.5550   -2.5300   -3.2590 O.3     1  UNL1       -0.4810
      5  H         10.3510   -2.5360   -2.6160 H       1  UNL1        0.2960
      6  C          7.0350   -0.0690   -2.0640 C.3     1  UNL1        0.0470
      7  C          6.4590    0.1160   -0.7340 C.2     1  UNL1       -0.0470
      8  C          5.8070    1.2820   -0.4050 C.2     1  UNL1        0.0040
      9  C          6.5720   -0.8950    0.1930 C.2     1  UNL1        0.0040
     10  C          5.2800    1.3880    0.8840 C.2     1  UNL1        0.0000
     11  C          6.0510   -0.7880    1.4670 C.2     1  UNL1        0.0000
     12  C          5.3970    0.3770    1.8050 C.2     1  UNL1        0.0000
@<TRIPOS>BOND
     1     4     2    1
     2     4     5    1
     3     3     2    2
     4     2     1    1
     5     6     1    1
     6     6     7    1
     7     7     8    2
     8     7     9    1
     9     8    10    1
    10     9    11    2
    11    10    12    2
    12    11    12    1
