@<TRIPOS>MOLECULE
/home/cewinharhar/GITHUB/reincatalyze/data/processed/docking_pred/2023-Apr-26-1657_maxeplen10_maxtrainstep1000_exh32_gamma099_lrac9e-4_lrcr1e-3/ddb46e737fe602632681221f3e2121514b9159c3_ligand_2.pdbqt
 12 12 0 0 0
SMALL
GASTEIGER

@<TRIPOS>ATOM
      1  C          8.3940   -0.6190   -2.1200 C.3     1  UNL1        0.1270
      2  C          8.3670   -1.8830   -2.8930 C.2     1  UNL1        0.3030
      3  O          7.2820   -2.4070   -3.2480 O.2     1  UNL1       -0.2520
      4  O          9.5440   -2.5240   -3.2470 O.3     1  UNL1       -0.4810
      5  H          9.7260   -3.4680   -2.8960 H       1  UNL1        0.2960
      6  C          7.0050   -0.0580   -2.0880 C.3     1  UNL1        0.0470
      7  C          6.4560    0.0930   -0.7420 C.2     1  UNL1       -0.0470
      8  C          5.8130    1.2510   -0.3700 C.2     1  UNL1        0.0040
      9  C          6.5850   -0.9410    0.1560 C.2     1  UNL1        0.0040
     10  C          5.3120    1.3260    0.9310 C.2     1  UNL1        0.0000
     11  C          6.0900   -0.8660    1.4430 C.2     1  UNL1        0.0000
     12  C          5.4450    0.2910    1.8230 C.2     1  UNL1        0.0000
@<TRIPOS>BOND
     1     3     2    2
     2     4     5    1
     3     4     2    1
     4     2     1    1
     5     1     6    1
     6     6     7    1
     7     7     8    2
     8     7     9    1
     9     8    10    1
    10     9    11    2
    11    10    12    2
    12    11    12    1
