@<TRIPOS>MOLECULE
/home/cewinharhar/GITHUB/reincatalyze/data/processed/docking_pred/2023-Apr-26-1657_maxeplen10_maxtrainstep1000_exh32_gamma099_lrac9e-4_lrcr1e-3/ddb46e737fe602632681221f3e2121514b9159c3_ligand_2.pdbqt
 12 12 0 0 0
SMALL
GASTEIGER

@<TRIPOS>ATOM
      1  C          8.2530   -0.9170   -1.8520 C.3     1  UNL1        0.1270
      2  C          8.3910   -2.0110   -2.8420 C.2     1  UNL1        0.3030
      3  O          9.5140   -2.5040   -3.1150 O.2     1  UNL1       -0.2520
      4  O          7.2810   -2.5210   -3.4960 O.3     1  UNL1       -0.4810
      5  H          7.3930   -3.3250   -4.1200 H       1  UNL1        0.2960
      6  C          7.3830   -1.4030   -0.7330 C.3     1  UNL1        0.0470
      7  C          6.5650   -0.3590   -0.1190 C.2     1  UNL1       -0.0470
      8  C          6.1250   -0.4810    1.1790 C.2     1  UNL1        0.0040
      9  C          6.2370    0.7570   -0.8550 C.2     1  UNL1        0.0040
     10  C          5.3480    0.5560    1.7000 C.2     1  UNL1        0.0000
     11  C          5.4690    1.7800   -0.3380 C.2     1  UNL1        0.0000
     12  C          5.0240    1.6660    0.9610 C.2     1  UNL1        0.0000
@<TRIPOS>BOND
     1     5     4    1
     2     4     2    1
     3     3     2    2
     4     2     1    1
     5     1     6    1
     6     9    11    1
     7     9     7    2
     8     6     7    1
     9    11    12    2
    10     7     8    1
    11    12    10    1
    12     8    10    2
