MODEL 1
REMARK VINA RESULT:      -7.3      0.000      0.000
REMARK SMILES O=C(O)CCc1ccccc1
REMARK SMILES IDX 4 1 2 2 1 3 3 4 5 6 6 7 7 8 11 9 8 10 10 11 9 12
REMARK H PARENT 3 5
REMARK Flexibility Score: inf
ROOT
ATOM      1  C   UNL     1       8.431  -0.559  -2.228  1.00  0.00     0.127 C 
ENDROOT
BRANCH   1   2
ATOM      2  C   UNL     1       8.486  -1.871  -2.916  1.00  0.00     0.303 C 
ATOM      3  O   UNL     1       9.575  -2.474  -3.082  1.00  0.00    -0.252 OA
BRANCH   2   4
ATOM      4  O   UNL     1       7.332  -2.469  -3.397  1.00  0.00    -0.481 OA
ATOM      5  H   UNL     1       7.038  -3.371  -3.013  1.00  0.00     0.296 HD
ENDBRANCH   2   4
ENDBRANCH   1   2
BRANCH   1   6
ATOM      6  C   UNL     1       7.001  -0.118  -2.169  1.00  0.00     0.047 C 
BRANCH   6   7
ATOM      7  C   UNL     1       6.482   0.036  -0.810  1.00  0.00    -0.047 A 
ATOM      8  C   UNL     1       6.634  -0.967   0.119  1.00  0.00     0.004 A 
ATOM      9  C   UNL     1       5.839   1.203  -0.466  1.00  0.00     0.004 A 
ATOM     10  C   UNL     1       6.115  -0.750   1.397  1.00  0.00     0.000 A 
ATOM     11  C   UNL     1       5.326   1.415   0.798  1.00  0.00     0.000 A 
ATOM     12  C   UNL     1       5.473   0.415   1.735  1.00  0.00     0.000 A 
ENDBRANCH   6   7
ENDBRANCH   1   6
TORSDOF 4
ENDMDL
MODEL 2
REMARK VINA RESULT:      -7.3      0.132      1.733
REMARK SMILES O=C(O)CCc1ccccc1
REMARK SMILES IDX 4 1 2 2 1 3 3 4 5 6 6 7 7 8 11 9 8 10 10 11 9 12
REMARK H PARENT 3 5
REMARK Flexibility Score: inf
ROOT
ATOM      1  C   UNL     1       8.394  -0.619  -2.120  1.00  0.00     0.127 C 
ENDROOT
BRANCH   1   2
ATOM      2  C   UNL     1       8.367  -1.883  -2.893  1.00  0.00     0.303 C 
ATOM      3  O   UNL     1       7.282  -2.407  -3.248  1.00  0.00    -0.252 OA
BRANCH   2   4
ATOM      4  O   UNL     1       9.544  -2.524  -3.247  1.00  0.00    -0.481 OA
ATOM      5  H   UNL     1       9.726  -3.468  -2.896  1.00  0.00     0.296 HD
ENDBRANCH   2   4
ENDBRANCH   1   2
BRANCH   1   6
ATOM      6  C   UNL     1       7.005  -0.058  -2.088  1.00  0.00     0.047 C 
BRANCH   6   7
ATOM      7  C   UNL     1       6.456   0.093  -0.742  1.00  0.00    -0.047 A 
ATOM      8  C   UNL     1       5.813   1.251  -0.370  1.00  0.00     0.004 A 
ATOM      9  C   UNL     1       6.585  -0.941   0.156  1.00  0.00     0.004 A 
ATOM     10  C   UNL     1       5.312   1.326   0.931  1.00  0.00     0.000 A 
ATOM     11  C   UNL     1       6.090  -0.866   1.443  1.00  0.00     0.000 A 
ATOM     12  C   UNL     1       5.445   0.291   1.823  1.00  0.00     0.000 A 
ENDBRANCH   6   7
ENDBRANCH   1   6
TORSDOF 4
ENDMDL
MODEL 3
REMARK VINA RESULT:      -7.3      0.640      1.095
REMARK SMILES O=C(O)CCc1ccccc1
REMARK SMILES IDX 4 1 2 2 1 3 3 4 5 6 6 7 7 8 11 9 8 10 10 11 9 12
REMARK H PARENT 3 5
REMARK Flexibility Score: inf
ROOT
ATOM      1  C   UNL     1       8.253  -0.917  -1.852  1.00  0.00     0.127 C 
ENDROOT
BRANCH   1   2
ATOM      2  C   UNL     1       8.391  -2.011  -2.842  1.00  0.00     0.303 C 
ATOM      3  O   UNL     1       9.514  -2.504  -3.115  1.00  0.00    -0.252 OA
BRANCH   2   4
ATOM      4  O   UNL     1       7.281  -2.521  -3.496  1.00  0.00    -0.481 OA
ATOM      5  H   UNL     1       7.393  -3.325  -4.120  1.00  0.00     0.296 HD
ENDBRANCH   2   4
ENDBRANCH   1   2
BRANCH   1   6
ATOM      6  C   UNL     1       7.383  -1.403  -0.733  1.00  0.00     0.047 C 
BRANCH   6   7
ATOM      7  C   UNL     1       6.565  -0.359  -0.119  1.00  0.00    -0.047 A 
ATOM      8  C   UNL     1       6.125  -0.481   1.179  1.00  0.00     0.004 A 
ATOM      9  C   UNL     1       6.237   0.757  -0.855  1.00  0.00     0.004 A 
ATOM     10  C   UNL     1       5.348   0.556   1.700  1.00  0.00     0.000 A 
ATOM     11  C   UNL     1       5.469   1.780  -0.338  1.00  0.00     0.000 A 
ATOM     12  C   UNL     1       5.024   1.666   0.961  1.00  0.00     0.000 A 
ENDBRANCH   6   7
ENDBRANCH   1   6
TORSDOF 4
ENDMDL
MODEL 4
REMARK VINA RESULT:      -6.8      3.365      5.056
REMARK SMILES O=C(O)CCc1ccccc1
REMARK SMILES IDX 4 1 2 2 1 3 3 4 5 6 6 7 7 8 11 9 8 10 10 11 9 12
REMARK H PARENT 3 5
REMARK Flexibility Score: inf
ROOT
ATOM      1  C   UNL     1       5.034   1.780   0.661  1.00  0.00     0.127 C 
ENDROOT
BRANCH   1   2
ATOM      2  C   UNL     1       4.538   1.124   1.895  1.00  0.00     0.303 C 
ATOM      3  O   UNL     1       5.210   0.235   2.474  1.00  0.00    -0.252 OA
BRANCH   2   4
ATOM      4  O   UNL     1       3.316   1.475   2.444  1.00  0.00    -0.481 OA
ATOM      5  H   UNL     1       2.621   1.948   1.859  1.00  0.00     0.296 HD
ENDBRANCH   2   4
ENDBRANCH   1   2
BRANCH   1   6
ATOM      6  C   UNL     1       6.531   1.800   0.708  1.00  0.00     0.047 C 
BRANCH   6   7
ATOM      7  C   UNL     1       7.170   1.034  -0.360  1.00  0.00    -0.047 A 
ATOM      8  C   UNL     1       8.503   1.208  -0.650  1.00  0.00     0.004 A 
ATOM      9  C   UNL     1       6.422   0.129  -1.077  1.00  0.00     0.004 A 
ATOM     10  C   UNL     1       9.048   0.441  -1.683  1.00  0.00     0.000 A 
ATOM     11  C   UNL     1       6.961  -0.628  -2.098  1.00  0.00     0.000 A 
ATOM     12  C   UNL     1       8.296  -0.459  -2.395  1.00  0.00     0.000 A 
ENDBRANCH   6   7
ENDBRANCH   1   6
TORSDOF 4
ENDMDL
MODEL 5
REMARK VINA RESULT:      -6.6      1.987      2.328
REMARK SMILES O=C(O)CCc1ccccc1
REMARK SMILES IDX 4 1 2 2 1 3 3 4 5 6 6 7 7 8 11 9 8 10 10 11 9 12
REMARK H PARENT 3 5
REMARK Flexibility Score: inf
ROOT
ATOM      1  C   UNL     1       8.336   0.309  -2.024  1.00  0.00     0.127 C 
ENDROOT
BRANCH   1   2
ATOM      2  C   UNL     1       9.478   0.391  -1.083  1.00  0.00     0.303 C 
ATOM      3  O   UNL     1       9.551  -0.364  -0.082  1.00  0.00    -0.252 OA
BRANCH   2   4
ATOM      4  O   UNL     1      10.498   1.306  -1.282  1.00  0.00    -0.481 OA
ATOM      5  H   UNL     1      10.280   2.218  -1.692  1.00  0.00     0.296 HD
ENDBRANCH   2   4
ENDBRANCH   1   2
BRANCH   1   6
ATOM      6  C   UNL     1       7.269  -0.536  -1.398  1.00  0.00     0.047 C 
BRANCH   6   7
ATOM      7  C   UNL     1       6.435   0.179  -0.434  1.00  0.00    -0.047 A 
ATOM      8  C   UNL     1       6.204  -0.340   0.819  1.00  0.00     0.004 A 
ATOM      9  C   UNL     1       5.879   1.386  -0.791  1.00  0.00     0.004 A 
ATOM     10  C   UNL     1       5.398   0.398   1.689  1.00  0.00     0.000 A 
ATOM     11  C   UNL     1       5.082   2.114   0.070  1.00  0.00     0.000 A 
ATOM     12  C   UNL     1       4.846   1.600   1.326  1.00  0.00     0.000 A 
ENDBRANCH   6   7
ENDBRANCH   1   6
TORSDOF 4
ENDMDL
