@<TRIPOS>MOLECULE
/home/cewinharhar/GITHUB/reincatalyze/data/processed/docking_pred/2023-Apr-26-1657_maxeplen10_maxtrainstep1000_exh32_gamma099_lrac9e-4_lrcr1e-3/ddb46e737fe602632681221f3e2121514b9159c3_ligand_2.pdbqt
 12 12 0 0 0
SMALL
GASTEIGER

@<TRIPOS>ATOM
      1  C          5.0340    1.7800    0.6610 C.3     1  UNL1        0.1270
      2  C          4.5380    1.1240    1.8950 C.2     1  UNL1        0.3030
      3  O          5.2100    0.2350    2.4740 O.2     1  UNL1       -0.2520
      4  O          3.3160    1.4750    2.4440 O.3     1  UNL1       -0.4810
      5  H          2.6210    1.9480    1.8590 H       1  UNL1        0.2960
      6  C          6.5310    1.8000    0.7080 C.3     1  UNL1        0.0470
      7  C          7.1700    1.0340   -0.3600 C.2     1  UNL1       -0.0470
      8  C          8.5030    1.2080   -0.6500 C.2     1  UNL1        0.0040
      9  C          6.4220    0.1290   -1.0770 C.2     1  UNL1        0.0040
     10  C          9.0480    0.4410   -1.6830 C.2     1  UNL1        0.0000
     11  C          6.9610   -0.6280   -2.0980 C.2     1  UNL1        0.0000
     12  C          8.2960   -0.4590   -2.3950 C.2     1  UNL1        0.0000
@<TRIPOS>BOND
     1    12    11    2
     2    12    10    1
     3    11     9    1
     4    10     8    2
     5     9     7    2
     6     8     7    1
     7     7     6    1
     8     1     6    1
     9     1     2    1
    10     5     4    1
    11     2     4    1
    12     2     3    2
