@<TRIPOS>MOLECULE
/home/cewinharhar/GITHUB/reincatalyze/data/processed/docking_pred/2023-Apr-26-1657_maxeplen10_maxtrainstep1000_exh32_gamma099_lrac9e-4_lrcr1e-3/ddb46e737fe602632681221f3e2121514b9159c3_ligand_2.pdbqt
 12 12 0 0 0
SMALL
GASTEIGER

@<TRIPOS>ATOM
      1  C          8.3360    0.3090   -2.0240 C.3     1  UNL1        0.1270
      2  C          9.4780    0.3910   -1.0830 C.2     1  UNL1        0.3030
      3  O          9.5510   -0.3640   -0.0820 O.2     1  UNL1       -0.2520
      4  O         10.4980    1.3060   -1.2820 O.3     1  UNL1       -0.4810
      5  H         10.2800    2.2180   -1.6920 H       1  UNL1        0.2960
      6  C          7.2690   -0.5360   -1.3980 C.3     1  UNL1        0.0470
      7  C          6.4350    0.1790   -0.4340 C.2     1  UNL1       -0.0470
      8  C          6.2040   -0.3400    0.8190 C.2     1  UNL1        0.0040
      9  C          5.8790    1.3860   -0.7910 C.2     1  UNL1        0.0040
     10  C          5.3980    0.3980    1.6890 C.2     1  UNL1        0.0000
     11  C          5.0820    2.1140    0.0700 C.2     1  UNL1        0.0000
     12  C          4.8460    1.6000    1.3260 C.2     1  UNL1        0.0000
@<TRIPOS>BOND
     1     1     6    1
     2     1     2    1
     3     5     4    1
     4     6     7    1
     5     4     2    1
     6     2     3    2
     7     9     7    2
     8     9    11    1
     9     7     8    1
    10    11    12    2
    11     8    10    2
    12    12    10    1
