@<TRIPOS>MOLECULE
/home/cewinharhar/GITHUB/reincatalyze/data/processed/docking_pred/2023-Apr-26-1657_maxeplen10_maxtrainstep1000_exh32_gamma099_lrac9e-4_lrcr1e-3/ddb46e737fe602632681221f3e2121514b9159c3_ligand_2.pdbqt
 12 12 0 0 0
SMALL
GASTEIGER

@<TRIPOS>ATOM
      1  C          8.4310   -0.5590   -2.2280 C.3     1  UNL1        0.1270
      2  C          8.4860   -1.8710   -2.9160 C.2     1  UNL1        0.3030
      3  O          9.5750   -2.4740   -3.0820 O.2     1  UNL1       -0.2520
      4  O          7.3320   -2.4690   -3.3970 O.3     1  UNL1       -0.4810
      5  H          7.0380   -3.3710   -3.0130 H       1  UNL1        0.2960
      6  C          7.0010   -0.1180   -2.1690 C.3     1  UNL1        0.0470
      7  C          6.4820    0.0360   -0.8100 C.2     1  UNL1       -0.0470
      8  C          6.6340   -0.9670    0.1190 C.2     1  UNL1        0.0040
      9  C          5.8390    1.2030   -0.4660 C.2     1  UNL1        0.0040
     10  C          6.1150   -0.7500    1.3970 C.2     1  UNL1        0.0000
     11  C          5.3260    1.4150    0.7980 C.2     1  UNL1        0.0000
     12  C          5.4730    0.4150    1.7350 C.2     1  UNL1        0.0000
@<TRIPOS>BOND
     1     4     5    1
     2     4     2    1
     3     3     2    2
     4     2     1    1
     5     1     6    1
     6     6     7    1
     7     7     9    2
     8     7     8    1
     9     9    11    1
    10     8    10    2
    11    11    12    2
    12    10    12    1
