@<TRIPOS>MOLECULE
/home/cewinharhar/GITHUB/reincatalyze/data/processed/docking_pred/2023-Apr-26-1657_maxeplen10_maxtrainstep1000_exh32_gamma099_lrac9e-4_lrcr1e-3/de552809cd3cf8423e47c41d2ed627091c55f56d_ligand_2.pdbqt
 12 12 0 0 0
SMALL
GASTEIGER

@<TRIPOS>ATOM
      1  C          8.3110    0.4290   -1.8620 C.3     1  UNL1        0.1270
      2  C          9.4730    0.2480   -0.9600 C.2     1  UNL1        0.3030
      3  O          9.4190   -0.5330    0.0220 O.2     1  UNL1       -0.2520
      4  O         10.6550    0.9370   -1.1780 O.3     1  UNL1       -0.4810
      5  H         11.2590    0.6630   -1.9580 H       1  UNL1        0.2960
      6  C          7.1940   -0.4400   -1.3700 C.3     1  UNL1        0.0470
      7  C          6.3650    0.1830   -0.3400 C.2     1  UNL1       -0.0470
      8  C          6.1340   -0.4530    0.8570 C.2     1  UNL1        0.0040
      9  C          5.8150    1.4220   -0.5790 C.2     1  UNL1        0.0040
     10  C          5.3330    0.2020    1.7950 C.2     1  UNL1        0.0000
     11  C          5.0230    2.0680    0.3490 C.2     1  UNL1        0.0000
     12  C          4.7860    1.4360    1.5510 C.2     1  UNL1        0.0000
@<TRIPOS>BOND
     1     5     4    1
     2     1     6    1
     3     1     2    1
     4     6     7    1
     5     4     2    1
     6     2     3    2
     7     9     7    2
     8     9    11    1
     9     7     8    1
    10    11    12    2
    11     8    10    2
    12    12    10    1
