MODEL 1
REMARK VINA RESULT:      -7.3      0.000      0.000
REMARK SMILES O=C(O)CCc1ccccc1
REMARK SMILES IDX 4 1 2 2 1 3 3 4 5 6 6 7 7 8 11 9 8 10 10 11 9 12
REMARK H PARENT 3 5
REMARK Flexibility Score: inf
ROOT
ATOM      1  C   UNL     1       8.462  -0.648  -2.090  1.00  0.00     0.127 C 
ENDROOT
BRANCH   1   2
ATOM      2  C   UNL     1       8.477  -1.905  -2.875  1.00  0.00     0.303 C 
ATOM      3  O   UNL     1       9.549  -2.521  -3.096  1.00  0.00    -0.252 OA
BRANCH   2   4
ATOM      4  O   UNL     1       7.304  -2.436  -3.388  1.00  0.00    -0.481 OA
ATOM      5  H   UNL     1       7.205  -3.452  -3.462  1.00  0.00     0.296 HD
ENDBRANCH   2   4
ENDBRANCH   1   2
BRANCH   1   6
ATOM      6  C   UNL     1       7.064  -0.108  -2.093  1.00  0.00     0.047 C 
BRANCH   6   7
ATOM      7  C   UNL     1       6.490   0.064  -0.760  1.00  0.00    -0.047 A 
ATOM      8  C   UNL     1       5.831   1.223  -0.422  1.00  0.00     0.004 A 
ATOM      9  C   UNL     1       6.614  -0.951   0.160  1.00  0.00     0.004 A 
ATOM     10  C   UNL     1       5.307   1.318   0.870  1.00  0.00     0.000 A 
ATOM     11  C   UNL     1       6.096  -0.856   1.437  1.00  0.00     0.000 A 
ATOM     12  C   UNL     1       5.434   0.302   1.783  1.00  0.00     0.000 A 
ENDBRANCH   6   7
ENDBRANCH   1   6
TORSDOF 4
ENDMDL
MODEL 2
REMARK VINA RESULT:      -7.3      0.077      1.438
REMARK SMILES O=C(O)CCc1ccccc1
REMARK SMILES IDX 4 1 2 2 1 3 3 4 5 6 6 7 7 8 11 9 8 10 10 11 9 12
REMARK H PARENT 3 5
REMARK Flexibility Score: inf
ROOT
ATOM      1  C   UNL     1       8.451  -0.638  -2.115  1.00  0.00     0.127 C 
ENDROOT
BRANCH   1   2
ATOM      2  C   UNL     1       8.488  -1.905  -2.883  1.00  0.00     0.303 C 
ATOM      3  O   UNL     1       9.569  -2.515  -3.081  1.00  0.00    -0.252 OA
BRANCH   2   4
ATOM      4  O   UNL     1       7.328  -2.453  -3.407  1.00  0.00    -0.481 OA
ATOM      5  H   UNL     1       7.355  -3.395  -3.806  1.00  0.00     0.296 HD
ENDBRANCH   2   4
ENDBRANCH   1   2
BRANCH   1   6
ATOM      6  C   UNL     1       7.038  -0.139  -2.100  1.00  0.00     0.047 C 
BRANCH   6   7
ATOM      7  C   UNL     1       6.482   0.030  -0.759  1.00  0.00    -0.047 A 
ATOM      8  C   UNL     1       6.575  -0.977   0.173  1.00  0.00     0.004 A 
ATOM      9  C   UNL     1       5.861   1.214  -0.434  1.00  0.00     0.004 A 
ATOM     10  C   UNL     1       6.022  -0.746   1.435  1.00  0.00     0.000 A 
ATOM     11  C   UNL     1       5.314   1.441   0.813  1.00  0.00     0.000 A 
ATOM     12  C   UNL     1       5.403   0.437   1.753  1.00  0.00     0.000 A 
ENDBRANCH   6   7
ENDBRANCH   1   6
TORSDOF 4
ENDMDL
MODEL 3
REMARK VINA RESULT:      -6.7      3.332      5.014
REMARK SMILES O=C(O)CCc1ccccc1
REMARK SMILES IDX 4 1 2 2 1 3 3 4 5 6 6 7 7 8 11 9 8 10 10 11 9 12
REMARK H PARENT 3 5
REMARK Flexibility Score: inf
ROOT
ATOM      1  C   UNL     1       5.105   1.748   0.718  1.00  0.00     0.127 C 
ENDROOT
BRANCH   1   2
ATOM      2  C   UNL     1       4.601   1.054   1.926  1.00  0.00     0.303 C 
ATOM      3  O   UNL     1       5.285   0.173   2.503  1.00  0.00    -0.252 OA
BRANCH   2   4
ATOM      4  O   UNL     1       3.357   1.360   2.454  1.00  0.00    -0.481 OA
ATOM      5  H   UNL     1       2.537   1.355   1.840  1.00  0.00     0.296 HD
ENDBRANCH   2   4
ENDBRANCH   1   2
BRANCH   1   6
ATOM      6  C   UNL     1       6.602   1.718   0.747  1.00  0.00     0.047 C 
BRANCH   6   7
ATOM      7  C   UNL     1       7.204   0.971  -0.357  1.00  0.00    -0.047 A 
ATOM      8  C   UNL     1       8.506   1.203  -0.736  1.00  0.00     0.004 A 
ATOM      9  C   UNL     1       6.452   0.027  -1.017  1.00  0.00     0.004 A 
ATOM     10  C   UNL     1       9.015   0.453  -1.798  1.00  0.00     0.000 A 
ATOM     11  C   UNL     1       6.957  -0.714  -2.067  1.00  0.00     0.000 A 
ATOM     12  C   UNL     1       8.260  -0.487  -2.453  1.00  0.00     0.000 A 
ENDBRANCH   6   7
ENDBRANCH   1   6
TORSDOF 4
ENDMDL
MODEL 4
REMARK VINA RESULT:      -6.5      1.997      2.674
REMARK SMILES O=C(O)CCc1ccccc1
REMARK SMILES IDX 4 1 2 2 1 3 3 4 5 6 6 7 7 8 11 9 8 10 10 11 9 12
REMARK H PARENT 3 5
REMARK Flexibility Score: inf
ROOT
ATOM      1  C   UNL     1       8.311   0.429  -1.862  1.00  0.00     0.127 C 
ENDROOT
BRANCH   1   2
ATOM      2  C   UNL     1       9.473   0.248  -0.960  1.00  0.00     0.303 C 
ATOM      3  O   UNL     1       9.419  -0.533   0.022  1.00  0.00    -0.252 OA
BRANCH   2   4
ATOM      4  O   UNL     1      10.655   0.937  -1.178  1.00  0.00    -0.481 OA
ATOM      5  H   UNL     1      11.259   0.663  -1.958  1.00  0.00     0.296 HD
ENDBRANCH   2   4
ENDBRANCH   1   2
BRANCH   1   6
ATOM      6  C   UNL     1       7.194  -0.440  -1.370  1.00  0.00     0.047 C 
BRANCH   6   7
ATOM      7  C   UNL     1       6.365   0.183  -0.340  1.00  0.00    -0.047 A 
ATOM      8  C   UNL     1       6.134  -0.453   0.857  1.00  0.00     0.004 A 
ATOM      9  C   UNL     1       5.815   1.422  -0.579  1.00  0.00     0.004 A 
ATOM     10  C   UNL     1       5.333   0.202   1.795  1.00  0.00     0.000 A 
ATOM     11  C   UNL     1       5.023   2.068   0.349  1.00  0.00     0.000 A 
ATOM     12  C   UNL     1       4.786   1.436   1.551  1.00  0.00     0.000 A 
ENDBRANCH   6   7
ENDBRANCH   1   6
TORSDOF 4
ENDMDL
MODEL 5
REMARK VINA RESULT:      -6.5      1.878      2.819
REMARK SMILES O=C(O)CCc1ccccc1
REMARK SMILES IDX 4 1 2 2 1 3 3 4 5 6 6 7 7 8 11 9 8 10 10 11 9 12
REMARK H PARENT 3 5
REMARK Flexibility Score: inf
ROOT
ATOM      1  C   UNL     1       8.238  -1.527   1.085  1.00  0.00     0.127 C 
ENDROOT
BRANCH   1   2
ATOM      2  C   UNL     1       8.510  -2.773   0.330  1.00  0.00     0.303 C 
ATOM      3  O   UNL     1       9.130  -3.730   0.856  1.00  0.00    -0.252 OA
BRANCH   2   4
ATOM      4  O   UNL     1       8.084  -2.916  -0.981  1.00  0.00    -0.481 OA
ATOM      5  H   UNL     1       7.691  -3.811  -1.285  1.00  0.00     0.296 HD
ENDBRANCH   2   4
ENDBRANCH   1   2
BRANCH   1   6
ATOM      6  C   UNL     1       6.759  -1.418   1.298  1.00  0.00     0.047 C 
BRANCH   6   7
ATOM      7  C   UNL     1       6.176  -0.174   0.799  1.00  0.00    -0.047 A 
ATOM      8  C   UNL     1       5.375   0.600   1.605  1.00  0.00     0.004 A 
ATOM      9  C   UNL     1       6.439   0.219  -0.493  1.00  0.00     0.004 A 
ATOM     10  C   UNL     1       4.853   1.777   1.062  1.00  0.00     0.000 A 
ATOM     11  C   UNL     1       5.922   1.382  -1.028  1.00  0.00     0.000 A 
ATOM     12  C   UNL     1       5.118   2.164  -0.227  1.00  0.00     0.000 A 
ENDBRANCH   6   7
ENDBRANCH   1   6
TORSDOF 4
ENDMDL
