@<TRIPOS>MOLECULE
/home/cewinharhar/GITHUB/reincatalyze/data/processed/docking_pred/2023-Apr-26-1657_maxeplen10_maxtrainstep1000_exh32_gamma099_lrac9e-4_lrcr1e-3/de552809cd3cf8423e47c41d2ed627091c55f56d_ligand_2.pdbqt
 12 12 0 0 0
SMALL
GASTEIGER

@<TRIPOS>ATOM
      1  C          8.2380   -1.5270    1.0850 C.3     1  UNL1        0.1270
      2  C          8.5100   -2.7730    0.3300 C.2     1  UNL1        0.3030
      3  O          9.1300   -3.7300    0.8560 O.2     1  UNL1       -0.2520
      4  O          8.0840   -2.9160   -0.9810 O.3     1  UNL1       -0.4810
      5  H          7.6910   -3.8110   -1.2850 H       1  UNL1        0.2960
      6  C          6.7590   -1.4180    1.2980 C.3     1  UNL1        0.0470
      7  C          6.1760   -0.1740    0.7990 C.2     1  UNL1       -0.0470
      8  C          5.3750    0.6000    1.6050 C.2     1  UNL1        0.0040
      9  C          6.4390    0.2190   -0.4930 C.2     1  UNL1        0.0040
     10  C          4.8530    1.7770    1.0620 C.2     1  UNL1        0.0000
     11  C          5.9220    1.3820   -1.0280 C.2     1  UNL1        0.0000
     12  C          5.1180    2.1640   -0.2270 C.2     1  UNL1        0.0000
@<TRIPOS>BOND
     1     5     4    1
     2    11     9    1
     3    11    12    2
     4     4     2    1
     5     9     7    2
     6    12    10    1
     7     2     3    2
     8     2     1    1
     9     7     6    1
    10     7     8    1
    11    10     8    2
    12     1     6    1
