@<TRIPOS>MOLECULE
/home/cewinharhar/GITHUB/reincatalyze/data/processed/docking_pred/2023-Apr-26-1657_maxeplen10_maxtrainstep1000_exh32_gamma099_lrac9e-4_lrcr1e-3/de552809cd3cf8423e47c41d2ed627091c55f56d_ligand_2.pdbqt
 12 12 0 0 0
SMALL
GASTEIGER

@<TRIPOS>ATOM
      1  C          5.1050    1.7480    0.7180 C.3     1  UNL1        0.1270
      2  C          4.6010    1.0540    1.9260 C.2     1  UNL1        0.3030
      3  O          5.2850    0.1730    2.5030 O.2     1  UNL1       -0.2520
      4  O          3.3570    1.3600    2.4540 O.3     1  UNL1       -0.4810
      5  H          2.5370    1.3550    1.8400 H       1  UNL1        0.2960
      6  C          6.6020    1.7180    0.7470 C.3     1  UNL1        0.0470
      7  C          7.2040    0.9710   -0.3570 C.2     1  UNL1       -0.0470
      8  C          8.5060    1.2030   -0.7360 C.2     1  UNL1        0.0040
      9  C          6.4520    0.0270   -1.0170 C.2     1  UNL1        0.0040
     10  C          9.0150    0.4530   -1.7980 C.2     1  UNL1        0.0000
     11  C          6.9570   -0.7140   -2.0670 C.2     1  UNL1        0.0000
     12  C          8.2600   -0.4870   -2.4530 C.2     1  UNL1        0.0000
@<TRIPOS>BOND
     1    12    11    2
     2    12    10    1
     3    11     9    1
     4    10     8    2
     5     9     7    2
     6     8     7    1
     7     7     6    1
     8     1     6    1
     9     1     2    1
    10     5     4    1
    11     2     4    1
    12     2     3    2
