@<TRIPOS>MOLECULE
/home/cewinharhar/GITHUB/reincatalyze/data/processed/docking_pred/2023-Apr-26-1657_maxeplen10_maxtrainstep1000_exh32_gamma099_lrac9e-4_lrcr1e-3/de552809cd3cf8423e47c41d2ed627091c55f56d_ligand_2.pdbqt
 12 12 0 0 0
SMALL
GASTEIGER

@<TRIPOS>ATOM
      1  C          8.4620   -0.6480   -2.0900 C.3     1  UNL1        0.1270
      2  C          8.4770   -1.9050   -2.8750 C.2     1  UNL1        0.3030
      3  O          9.5490   -2.5210   -3.0960 O.2     1  UNL1       -0.2520
      4  O          7.3040   -2.4360   -3.3880 O.3     1  UNL1       -0.4810
      5  H          7.2050   -3.4520   -3.4620 H       1  UNL1        0.2960
      6  C          7.0640   -0.1080   -2.0930 C.3     1  UNL1        0.0470
      7  C          6.4900    0.0640   -0.7600 C.2     1  UNL1       -0.0470
      8  C          5.8310    1.2230   -0.4220 C.2     1  UNL1        0.0040
      9  C          6.6140   -0.9510    0.1600 C.2     1  UNL1        0.0040
     10  C          5.3070    1.3180    0.8700 C.2     1  UNL1        0.0000
     11  C          6.0960   -0.8560    1.4370 C.2     1  UNL1        0.0000
     12  C          5.4340    0.3020    1.7830 C.2     1  UNL1        0.0000
@<TRIPOS>BOND
     1     5     4    1
     2     4     2    1
     3     3     2    2
     4     2     1    1
     5     6     1    1
     6     6     7    1
     7     7     8    2
     8     7     9    1
     9     8    10    1
    10     9    11    2
    11    10    12    2
    12    11    12    1
