@<TRIPOS>MOLECULE
/home/cewinharhar/GITHUB/reincatalyze/data/processed/docking_pred/2023-Apr-26-1657_maxeplen10_maxtrainstep1000_exh32_gamma099_lrac9e-4_lrcr1e-3/dea2b8be3c05a7e32d8e1c0cb085cc688668c765_ligand_2.pdbqt
 12 12 0 0 0
SMALL
GASTEIGER

@<TRIPOS>ATOM
      1  C          8.4380   -0.6040   -2.1750 C.3     1  UNL1        0.1270
      2  C          8.4810   -1.8870   -2.9150 C.2     1  UNL1        0.3030
      3  O          9.5650   -2.4950   -3.1000 O.2     1  UNL1       -0.2520
      4  O          7.3240   -2.4530   -3.4250 O.3     1  UNL1       -0.4810
      5  H          6.4770   -1.8820   -3.4960 H       1  UNL1        0.2960
      6  C          7.0160   -0.1310   -2.1370 C.3     1  UNL1        0.0470
      7  C          6.4810    0.0330   -0.7860 C.2     1  UNL1       -0.0470
      8  C          6.6100   -0.9690    0.1480 C.2     1  UNL1        0.0040
      9  C          5.8440    1.2060   -0.4550 C.2     1  UNL1        0.0040
     10  C          6.0760   -0.7430    1.4180 C.2     1  UNL1        0.0000
     11  C          5.3160    1.4280    0.8010 C.2     1  UNL1        0.0000
     12  C          5.4400    0.4290    1.7430 C.2     1  UNL1        0.0000
@<TRIPOS>BOND
     1     5     4    1
     2     4     2    1
     3     3     2    2
     4     2     1    1
     5     1     6    1
     6     6     7    1
     7     7     9    2
     8     7     8    1
     9     9    11    1
    10     8    10    2
    11    11    12    2
    12    10    12    1
