@<TRIPOS>MOLECULE
/home/cewinharhar/GITHUB/reincatalyze/data/processed/docking_pred/2023-Apr-26-1657_maxeplen10_maxtrainstep1000_exh32_gamma099_lrac9e-4_lrcr1e-3/dea2b8be3c05a7e32d8e1c0cb085cc688668c765_ligand_2.pdbqt
 12 12 0 0 0
SMALL
GASTEIGER

@<TRIPOS>ATOM
      1  C          5.4220    2.8740    0.0250 C.3     1  UNL1        0.1270
      2  C          6.2230    3.8420    0.8090 C.2     1  UNL1        0.3030
      3  O          6.8500    4.7750    0.2470 O.2     1  UNL1       -0.2520
      4  O          6.3040    3.7450    2.1890 O.3     1  UNL1       -0.4810
      5  H          6.7600    2.9290    2.6080 H       1  UNL1        0.2960
      6  C          4.9180    1.8150    0.9570 C.3     1  UNL1        0.0470
      7  C          5.7080    0.5850    0.9420 C.2     1  UNL1       -0.0470
      8  C          6.3620    0.1820   -0.1990 C.2     1  UNL1        0.0040
      9  C          5.7950   -0.1720    2.0880 C.2     1  UNL1        0.0040
     10  C          7.0990   -1.0030   -0.1410 C.2     1  UNL1        0.0000
     11  C          6.5240   -1.3430    2.1440 C.2     1  UNL1        0.0000
     12  C          7.1810   -1.7530    1.0040 C.2     1  UNL1        0.0000
@<TRIPOS>BOND
     1     8    10    1
     2     8     7    2
     3    10    12    2
     4     1     2    1
     5     1     6    1
     6     3     2    2
     7     2     4    1
     8     7     6    1
     9     7     9    1
    10    12    11    1
    11     9    11    2
    12     4     5    1
