@<TRIPOS>MOLECULE
/home/cewinharhar/GITHUB/reincatalyze/data/processed/docking_pred/2023-Apr-26-1657_maxeplen10_maxtrainstep1000_exh32_gamma099_lrac9e-4_lrcr1e-3/dea2b8be3c05a7e32d8e1c0cb085cc688668c765_ligand_2.pdbqt
 12 12 0 0 0
SMALL
GASTEIGER

@<TRIPOS>ATOM
      1  C          8.4250   -0.5990   -2.1800 C.3     1  UNL1        0.1270
      2  C          8.4670   -1.8820   -2.9210 C.2     1  UNL1        0.3030
      3  O          9.5450   -2.5060   -3.0810 O.2     1  UNL1       -0.2520
      4  O          7.3130   -2.4280   -3.4590 O.3     1  UNL1       -0.4810
      5  H          6.8650   -1.9690   -4.2570 H       1  UNL1        0.2960
      6  C          7.0060   -0.1190   -2.1490 C.3     1  UNL1        0.0470
      7  C          6.4700    0.0650   -0.8010 C.2     1  UNL1       -0.0470
      8  C          5.8400    1.2360   -0.4490 C.2     1  UNL1        0.0040
      9  C          6.6010   -0.9500    0.1190 C.2     1  UNL1        0.0040
     10  C          5.3520    1.3430    0.8560 C.2     1  UNL1        0.0000
     11  C          6.1190   -0.8420    1.4080 C.2     1  UNL1        0.0000
     12  C          5.4860    0.3280    1.7690 C.2     1  UNL1        0.0000
@<TRIPOS>BOND
     1     5     4    1
     2     4     2    1
     3     3     2    2
     4     2     1    1
     5     1     6    1
     6     6     7    1
     7     7     8    2
     8     7     9    1
     9     8    10    1
    10     9    11    2
    11    10    12    2
    12    11    12    1
