@<TRIPOS>MOLECULE
/home/cewinharhar/GITHUB/reincatalyze/data/processed/docking_pred/2023-Apr-26-1657_maxeplen10_maxtrainstep1000_exh32_gamma099_lrac9e-4_lrcr1e-3/dea2b8be3c05a7e32d8e1c0cb085cc688668c765_ligand_2.pdbqt
 12 12 0 0 0
SMALL
GASTEIGER

@<TRIPOS>ATOM
      1  C          5.0110    1.7750    0.6280 C.3     1  UNL1        0.1270
      2  C          4.5280    1.1310    1.8720 C.2     1  UNL1        0.3030
      3  O          5.2130    0.2590    2.4620 O.2     1  UNL1       -0.2520
      4  O          3.3030    1.4750    2.4200 O.3     1  UNL1       -0.4810
      5  H          3.2520    2.2490    3.0890 H       1  UNL1        0.2960
      6  C          6.5080    1.8270    0.6750 C.3     1  UNL1        0.0470
      7  C          7.1630    1.0520   -0.3780 C.2     1  UNL1       -0.0470
      8  C          8.5040    1.2120   -0.6380 C.2     1  UNL1        0.0040
      9  C          6.4220    0.1530   -1.1090 C.2     1  UNL1        0.0040
     10  C          9.0630    0.4380   -1.6570 C.2     1  UNL1        0.0000
     11  C          6.9760   -0.6110   -2.1170 C.2     1  UNL1        0.0000
     12  C          8.3190   -0.4560   -2.3840 C.2     1  UNL1        0.0000
@<TRIPOS>BOND
     1    12    11    2
     2    12    10    1
     3    11     9    1
     4    10     8    2
     5     9     7    2
     6     8     7    1
     7     7     6    1
     8     1     6    1
     9     1     2    1
    10     2     4    1
    11     2     3    2
    12     4     5    1
