@<TRIPOS>MOLECULE
/home/cewinharhar/GITHUB/reincatalyze/data/processed/docking_pred/2023-Apr-26-1657_maxeplen10_maxtrainstep1000_exh32_gamma099_lrac9e-4_lrcr1e-3/dea2b8be3c05a7e32d8e1c0cb085cc688668c765_ligand_2.pdbqt
 12 12 0 0 0
SMALL
GASTEIGER

@<TRIPOS>ATOM
      1  C          8.2460    0.1950   -2.1700 C.3     1  UNL1        0.1270
      2  C          9.3820    0.3440   -1.2300 C.2     1  UNL1        0.3030
      3  O          9.4820   -0.3810   -0.2090 O.2     1  UNL1       -0.2520
      4  O         10.3680    1.2920   -1.4530 O.3     1  UNL1       -0.4810
      5  H         11.3510    1.0040   -1.4410 H       1  UNL1        0.2960
      6  C          7.1630   -0.5760   -1.4800 C.3     1  UNL1        0.0470
      7  C          6.3690    0.2200   -0.5450 C.2     1  UNL1       -0.0470
      8  C          6.1470   -0.2190    0.7390 C.2     1  UNL1        0.0040
      9  C          5.8450    1.4210   -0.9640 C.2     1  UNL1        0.0040
     10  C          5.3810    0.5940    1.5780 C.2     1  UNL1        0.0000
     11  C          5.0870    2.2220   -0.1330 C.2     1  UNL1        0.0000
     12  C          4.8590    1.7900    1.1550 C.2     1  UNL1        0.0000
@<TRIPOS>BOND
     1     1     6    1
     2     1     2    1
     3     6     7    1
     4     4     5    1
     5     4     2    1
     6     2     3    2
     7     9     7    2
     8     9    11    1
     9     7     8    1
    10    11    12    2
    11     8    10    2
    12    12    10    1
