@<TRIPOS>MOLECULE
/home/cewinharhar/GITHUB/reincatalyze/data/processed/docking_pred/2023-Apr-26-1657_maxeplen10_maxtrainstep1000_exh32_gamma099_lrac9e-4_lrcr1e-3/df357a1c250a0cea862119ec51667dccc9d8d697_ligand_2.pdbqt
 12 12 0 0 0
SMALL
GASTEIGER

@<TRIPOS>ATOM
      1  C          5.4410    2.9040   -0.0070 C.3     1  UNL1        0.1270
      2  C          6.2570    3.8470    0.7940 C.2     1  UNL1        0.3030
      3  O          6.9380    4.7470    0.2440 O.2     1  UNL1       -0.2520
      4  O          6.2900    3.7600    2.1770 O.3     1  UNL1       -0.4810
      5  H          7.0310    3.2150    2.6260 H       1  UNL1        0.2960
      6  C          4.9160    1.8400    0.9090 C.3     1  UNL1        0.0470
      7  C          5.7180    0.6180    0.9210 C.2     1  UNL1       -0.0470
      8  C          6.4130    0.2210   -0.1990 C.2     1  UNL1        0.0040
      9  C          5.7750   -0.1360    2.0690 C.2     1  UNL1        0.0040
     10  C          7.1590   -0.9560   -0.1150 C.2     1  UNL1        0.0000
     11  C          6.5130   -1.3010    2.1500 C.2     1  UNL1        0.0000
     12  C          7.2110   -1.7050    1.0330 C.2     1  UNL1        0.0000
@<TRIPOS>BOND
     1     8    10    1
     2     8     7    2
     3    10    12    2
     4     1     2    1
     5     1     6    1
     6     3     2    2
     7     2     4    1
     8     6     7    1
     9     7     9    1
    10    12    11    1
    11     9    11    2
    12     4     5    1
