@<TRIPOS>MOLECULE
/home/cewinharhar/GITHUB/reincatalyze/data/processed/docking_pred/2023-Apr-26-1657_maxeplen10_maxtrainstep1000_exh32_gamma099_lrac9e-4_lrcr1e-3/df357a1c250a0cea862119ec51667dccc9d8d697_ligand_2.pdbqt
 12 12 0 0 0
SMALL
GASTEIGER

@<TRIPOS>ATOM
      1  C          5.0700    1.7270    0.6880 C.3     1  UNL1        0.1270
      2  C          4.6080    1.0440    1.9200 C.2     1  UNL1        0.3030
      3  O          5.3240    0.1890    2.4970 O.2     1  UNL1       -0.2520
      4  O          3.3690    1.3310    2.4680 O.3     1  UNL1       -0.4810
      5  H          2.7700    2.0280    2.0170 H       1  UNL1        0.2960
      6  C          6.5680    1.7640    0.7050 C.3     1  UNL1        0.0470
      7  C          7.1940    0.9990   -0.3720 C.2     1  UNL1       -0.0470
      8  C          8.5130    1.2010   -0.7040 C.2     1  UNL1        0.0040
      9  C          6.4470    0.0670   -1.0550 C.2     1  UNL1        0.0040
     10  C          9.0460    0.4340   -1.7420 C.2     1  UNL1        0.0000
     11  C          6.9750   -0.6910   -2.0820 C.2     1  UNL1        0.0000
     12  C          8.2960   -0.4940   -2.4200 C.2     1  UNL1        0.0000
@<TRIPOS>BOND
     1    12    11    2
     2    12    10    1
     3    11     9    1
     4    10     8    2
     5     9     7    2
     6     8     7    1
     7     7     6    1
     8     1     6    1
     9     1     2    1
    10     2     4    1
    11     2     3    2
    12     5     4    1
