@<TRIPOS>MOLECULE
/home/cewinharhar/GITHUB/reincatalyze/data/processed/docking_pred/2023-Apr-26-1657_maxeplen10_maxtrainstep1000_exh32_gamma099_lrac9e-4_lrcr1e-3/df357a1c250a0cea862119ec51667dccc9d8d697_ligand_2.pdbqt
 12 12 0 0 0
SMALL
GASTEIGER

@<TRIPOS>ATOM
      1  C          8.3940   -0.6460   -2.0850 C.3     1  UNL1        0.1270
      2  C          8.3660   -1.9020   -2.8720 C.2     1  UNL1        0.3030
      3  O          7.2810   -2.4100   -3.2480 O.2     1  UNL1       -0.2520
      4  O          9.5410   -2.5510   -3.2150 O.3     1  UNL1       -0.4810
      5  H          9.7660   -3.4460   -2.7740 H       1  UNL1        0.2960
      6  C          7.0140   -0.0630   -2.0810 C.3     1  UNL1        0.0470
      7  C          6.4480    0.1140   -0.7440 C.2     1  UNL1       -0.0470
      8  C          5.7920    1.2760   -0.4060 C.2     1  UNL1        0.0040
      9  C          6.5740   -0.8980    0.1780 C.2     1  UNL1        0.0040
     10  C          5.2760    1.3750    0.8870 C.2     1  UNL1        0.0000
     11  C          6.0630   -0.7980    1.4570 C.2     1  UNL1        0.0000
     12  C          5.4060    0.3620    1.8040 C.2     1  UNL1        0.0000
@<TRIPOS>BOND
     1     3     2    2
     2     4     2    1
     3     4     5    1
     4     2     1    1
     5     1     6    1
     6     6     7    1
     7     7     8    2
     8     7     9    1
     9     8    10    1
    10     9    11    2
    11    10    12    2
    12    11    12    1
