@<TRIPOS>MOLECULE
/home/cewinharhar/GITHUB/reincatalyze/data/processed/docking_pred/2023-Apr-26-1657_maxeplen10_maxtrainstep1000_exh32_gamma099_lrac9e-4_lrcr1e-3/df357a1c250a0cea862119ec51667dccc9d8d697_ligand_2.pdbqt
 12 12 0 0 0
SMALL
GASTEIGER

@<TRIPOS>ATOM
      1  C          8.2140   -0.8470   -1.9140 C.3     1  UNL1        0.1270
      2  C          8.3920   -1.9690   -2.8650 C.2     1  UNL1        0.3030
      3  O          9.5280   -2.4530   -3.0970 O.2     1  UNL1       -0.2520
      4  O          7.3050   -2.5170   -3.5280 O.3     1  UNL1       -0.4810
      5  H          6.3620   -2.3500   -3.1660 H       1  UNL1        0.2960
      6  C          7.3970   -1.3360   -0.7570 C.3     1  UNL1        0.0470
      7  C          6.5660   -0.3040   -0.1380 C.2     1  UNL1       -0.0470
      8  C          6.1540   -0.4230    1.1690 C.2     1  UNL1        0.0040
      9  C          6.1980    0.7950   -0.8790 C.2     1  UNL1        0.0040
     10  C          5.3630    0.6010    1.6950 C.2     1  UNL1        0.0000
     11  C          5.4150    1.8060   -0.3580 C.2     1  UNL1        0.0000
     12  C          4.9980    1.6940    0.9510 C.2     1  UNL1        0.0000
@<TRIPOS>BOND
     1     4     5    1
     2     4     2    1
     3     3     2    2
     4     2     1    1
     5     1     6    1
     6     9    11    1
     7     9     7    2
     8     6     7    1
     9    11    12    2
    10     7     8    1
    11    12    10    1
    12     8    10    2
