@<TRIPOS>MOLECULE
/home/cewinharhar/GITHUB/reincatalyze/data/processed/docking_pred/2023-Apr-26-1657_maxeplen10_maxtrainstep1000_exh32_gamma099_lrac9e-4_lrcr1e-3/df357a1c250a0cea862119ec51667dccc9d8d697_ligand_2.pdbqt
 12 12 0 0 0
SMALL
GASTEIGER

@<TRIPOS>ATOM
      1  C          8.4540   -0.6060   -2.1840 C.3     1  UNL1        0.1270
      2  C          8.4900   -1.8920   -2.9200 C.2     1  UNL1        0.3030
      3  O          9.5690   -2.5090   -3.0980 O.2     1  UNL1       -0.2520
      4  O          7.3310   -2.4490   -3.4340 O.3     1  UNL1       -0.4810
      5  H          6.8150   -1.9500   -4.1640 H       1  UNL1        0.2960
      6  C          7.0350   -0.1250   -2.1490 C.3     1  UNL1        0.0470
      7  C          6.4950    0.0320   -0.7990 C.2     1  UNL1       -0.0470
      8  C          6.6240   -0.9720    0.1310 C.2     1  UNL1        0.0040
      9  C          5.8520    1.2020   -0.4650 C.2     1  UNL1        0.0040
     10  C          6.0850   -0.7530    1.4010 C.2     1  UNL1        0.0000
     11  C          5.3190    1.4170    0.7900 C.2     1  UNL1        0.0000
     12  C          5.4440    0.4150    1.7280 C.2     1  UNL1        0.0000
@<TRIPOS>BOND
     1     5     4    1
     2     4     2    1
     3     3     2    2
     4     2     1    1
     5     1     6    1
     6     6     7    1
     7     7     9    2
     8     7     8    1
     9     9    11    1
    10     8    10    2
    11    11    12    2
    12    10    12    1
