MODEL 1
REMARK VINA RESULT:      -7.4      0.000      0.000
REMARK SMILES O=C(O)CCc1ccccc1
REMARK SMILES IDX 4 1 2 2 1 3 3 4 5 6 6 7 7 8 11 9 8 10 10 11 9 12
REMARK H PARENT 3 5
REMARK Flexibility Score: inf
ROOT
ATOM      1  C   UNL     1       8.454  -0.606  -2.184  1.00  0.00     0.127 C 
ENDROOT
BRANCH   1   2
ATOM      2  C   UNL     1       8.490  -1.892  -2.920  1.00  0.00     0.303 C 
ATOM      3  O   UNL     1       9.569  -2.509  -3.098  1.00  0.00    -0.252 OA
BRANCH   2   4
ATOM      4  O   UNL     1       7.331  -2.449  -3.434  1.00  0.00    -0.481 OA
ATOM      5  H   UNL     1       6.815  -1.950  -4.164  1.00  0.00     0.296 HD
ENDBRANCH   2   4
ENDBRANCH   1   2
BRANCH   1   6
ATOM      6  C   UNL     1       7.035  -0.125  -2.149  1.00  0.00     0.047 C 
BRANCH   6   7
ATOM      7  C   UNL     1       6.495   0.032  -0.799  1.00  0.00    -0.047 A 
ATOM      8  C   UNL     1       6.624  -0.972   0.131  1.00  0.00     0.004 A 
ATOM      9  C   UNL     1       5.852   1.202  -0.465  1.00  0.00     0.004 A 
ATOM     10  C   UNL     1       6.085  -0.753   1.401  1.00  0.00     0.000 A 
ATOM     11  C   UNL     1       5.319   1.417   0.790  1.00  0.00     0.000 A 
ATOM     12  C   UNL     1       5.444   0.415   1.728  1.00  0.00     0.000 A 
ENDBRANCH   6   7
ENDBRANCH   1   6
TORSDOF 4
ENDMDL
MODEL 2
REMARK VINA RESULT:      -7.3      0.121      1.732
REMARK SMILES O=C(O)CCc1ccccc1
REMARK SMILES IDX 4 1 2 2 1 3 3 4 5 6 6 7 7 8 11 9 8 10 10 11 9 12
REMARK H PARENT 3 5
REMARK Flexibility Score: inf
ROOT
ATOM      1  C   UNL     1       8.394  -0.646  -2.085  1.00  0.00     0.127 C 
ENDROOT
BRANCH   1   2
ATOM      2  C   UNL     1       8.366  -1.902  -2.872  1.00  0.00     0.303 C 
ATOM      3  O   UNL     1       7.281  -2.410  -3.248  1.00  0.00    -0.252 OA
BRANCH   2   4
ATOM      4  O   UNL     1       9.541  -2.551  -3.215  1.00  0.00    -0.481 OA
ATOM      5  H   UNL     1       9.766  -3.446  -2.774  1.00  0.00     0.296 HD
ENDBRANCH   2   4
ENDBRANCH   1   2
BRANCH   1   6
ATOM      6  C   UNL     1       7.014  -0.063  -2.081  1.00  0.00     0.047 C 
BRANCH   6   7
ATOM      7  C   UNL     1       6.448   0.114  -0.744  1.00  0.00    -0.047 A 
ATOM      8  C   UNL     1       5.792   1.276  -0.406  1.00  0.00     0.004 A 
ATOM      9  C   UNL     1       6.574  -0.898   0.178  1.00  0.00     0.004 A 
ATOM     10  C   UNL     1       5.276   1.375   0.887  1.00  0.00     0.000 A 
ATOM     11  C   UNL     1       6.063  -0.798   1.457  1.00  0.00     0.000 A 
ATOM     12  C   UNL     1       5.406   0.362   1.804  1.00  0.00     0.000 A 
ENDBRANCH   6   7
ENDBRANCH   1   6
TORSDOF 4
ENDMDL
MODEL 3
REMARK VINA RESULT:      -7.3      0.614      1.076
REMARK SMILES O=C(O)CCc1ccccc1
REMARK SMILES IDX 4 1 2 2 1 3 3 4 5 6 6 7 7 8 11 9 8 10 10 11 9 12
REMARK H PARENT 3 5
REMARK Flexibility Score: inf
ROOT
ATOM      1  C   UNL     1       8.214  -0.847  -1.914  1.00  0.00     0.127 C 
ENDROOT
BRANCH   1   2
ATOM      2  C   UNL     1       8.392  -1.969  -2.865  1.00  0.00     0.303 C 
ATOM      3  O   UNL     1       9.528  -2.453  -3.097  1.00  0.00    -0.252 OA
BRANCH   2   4
ATOM      4  O   UNL     1       7.305  -2.517  -3.528  1.00  0.00    -0.481 OA
ATOM      5  H   UNL     1       6.362  -2.350  -3.166  1.00  0.00     0.296 HD
ENDBRANCH   2   4
ENDBRANCH   1   2
BRANCH   1   6
ATOM      6  C   UNL     1       7.397  -1.336  -0.757  1.00  0.00     0.047 C 
BRANCH   6   7
ATOM      7  C   UNL     1       6.566  -0.304  -0.138  1.00  0.00    -0.047 A 
ATOM      8  C   UNL     1       6.154  -0.423   1.169  1.00  0.00     0.004 A 
ATOM      9  C   UNL     1       6.198   0.795  -0.879  1.00  0.00     0.004 A 
ATOM     10  C   UNL     1       5.363   0.601   1.695  1.00  0.00     0.000 A 
ATOM     11  C   UNL     1       5.415   1.806  -0.358  1.00  0.00     0.000 A 
ATOM     12  C   UNL     1       4.998   1.694   0.951  1.00  0.00     0.000 A 
ENDBRANCH   6   7
ENDBRANCH   1   6
TORSDOF 4
ENDMDL
MODEL 4
REMARK VINA RESULT:      -6.7      3.346      5.044
REMARK SMILES O=C(O)CCc1ccccc1
REMARK SMILES IDX 4 1 2 2 1 3 3 4 5 6 6 7 7 8 11 9 8 10 10 11 9 12
REMARK H PARENT 3 5
REMARK Flexibility Score: inf
ROOT
ATOM      1  C   UNL     1       5.070   1.727   0.688  1.00  0.00     0.127 C 
ENDROOT
BRANCH   1   2
ATOM      2  C   UNL     1       4.608   1.044   1.920  1.00  0.00     0.303 C 
ATOM      3  O   UNL     1       5.324   0.189   2.497  1.00  0.00    -0.252 OA
BRANCH   2   4
ATOM      4  O   UNL     1       3.369   1.331   2.468  1.00  0.00    -0.481 OA
ATOM      5  H   UNL     1       2.770   2.028   2.017  1.00  0.00     0.296 HD
ENDBRANCH   2   4
ENDBRANCH   1   2
BRANCH   1   6
ATOM      6  C   UNL     1       6.568   1.764   0.705  1.00  0.00     0.047 C 
BRANCH   6   7
ATOM      7  C   UNL     1       7.194   0.999  -0.372  1.00  0.00    -0.047 A 
ATOM      8  C   UNL     1       8.513   1.201  -0.704  1.00  0.00     0.004 A 
ATOM      9  C   UNL     1       6.447   0.067  -1.055  1.00  0.00     0.004 A 
ATOM     10  C   UNL     1       9.046   0.434  -1.742  1.00  0.00     0.000 A 
ATOM     11  C   UNL     1       6.975  -0.691  -2.082  1.00  0.00     0.000 A 
ATOM     12  C   UNL     1       8.296  -0.494  -2.420  1.00  0.00     0.000 A 
ENDBRANCH   6   7
ENDBRANCH   1   6
TORSDOF 4
ENDMDL
MODEL 5
REMARK VINA RESULT:      -6.7      3.826      4.985
REMARK SMILES O=C(O)CCc1ccccc1
REMARK SMILES IDX 4 1 2 2 1 3 3 4 5 6 6 7 7 8 11 9 8 10 10 11 9 12
REMARK H PARENT 3 5
REMARK Flexibility Score: inf
ROOT
ATOM      1  C   UNL     1       5.441   2.904  -0.007  1.00  0.00     0.127 C 
ENDROOT
BRANCH   1   2
ATOM      2  C   UNL     1       6.257   3.847   0.794  1.00  0.00     0.303 C 
ATOM      3  O   UNL     1       6.938   4.747   0.244  1.00  0.00    -0.252 OA
BRANCH   2   4
ATOM      4  O   UNL     1       6.290   3.760   2.177  1.00  0.00    -0.481 OA
ATOM      5  H   UNL     1       7.031   3.215   2.626  1.00  0.00     0.296 HD
ENDBRANCH   2   4
ENDBRANCH   1   2
BRANCH   1   6
ATOM      6  C   UNL     1       4.916   1.840   0.909  1.00  0.00     0.047 C 
BRANCH   6   7
ATOM      7  C   UNL     1       5.718   0.618   0.921  1.00  0.00    -0.047 A 
ATOM      8  C   UNL     1       6.413   0.221  -0.199  1.00  0.00     0.004 A 
ATOM      9  C   UNL     1       5.775  -0.136   2.069  1.00  0.00     0.004 A 
ATOM     10  C   UNL     1       7.159  -0.956  -0.115  1.00  0.00     0.000 A 
ATOM     11  C   UNL     1       6.513  -1.301   2.150  1.00  0.00     0.000 A 
ATOM     12  C   UNL     1       7.211  -1.705   1.033  1.00  0.00     0.000 A 
ENDBRANCH   6   7
ENDBRANCH   1   6
TORSDOF 4
ENDMDL
