@<TRIPOS>MOLECULE
/home/cewinharhar/GITHUB/reincatalyze/data/processed/docking_pred/2023-Apr-26-1657_maxeplen10_maxtrainstep1000_exh32_gamma099_lrac9e-4_lrcr1e-3/e1ac879641feb84a16575019a922afe40680d27c_ligand_2.pdbqt
 12 12 0 0 0
SMALL
GASTEIGER

@<TRIPOS>ATOM
      1  C          8.4980   -0.6360   -2.1190 C.3     1  UNL1        0.1270
      2  C          8.4980   -1.8950   -2.9020 C.2     1  UNL1        0.3030
      3  O          9.5610   -2.5290   -3.1140 O.2     1  UNL1       -0.2520
      4  O          7.3210   -2.4080   -3.4230 O.3     1  UNL1       -0.4810
      5  H          7.3590   -3.0080   -4.2510 H       1  UNL1        0.2960
      6  C          7.1070   -0.0790   -2.1260 C.3     1  UNL1        0.0470
      7  C          6.5200    0.0710   -0.7950 C.2     1  UNL1       -0.0470
      8  C          6.6570   -0.9210    0.1490 C.2     1  UNL1        0.0040
      9  C          5.8270    1.2200   -0.4920 C.2     1  UNL1        0.0040
     10  C          6.0710   -0.7100    1.3990 C.2     1  UNL1        0.0000
     11  C          5.2480    1.4260    0.7440 C.2     1  UNL1        0.0000
     12  C          5.3800    0.4380    1.6960 C.2     1  UNL1        0.0000
@<TRIPOS>BOND
     1     5     4    1
     2     4     2    1
     3     3     2    2
     4     2     1    1
     5     6     1    1
     6     6     7    1
     7     7     9    2
     8     7     8    1
     9     9    11    1
    10     8    10    2
    11    11    12    2
    12    10    12    1
