@<TRIPOS>MOLECULE
/home/cewinharhar/GITHUB/reincatalyze/data/processed/docking_pred/2023-Apr-26-1657_maxeplen10_maxtrainstep1000_exh32_gamma099_lrac9e-4_lrcr1e-3/e1ac879641feb84a16575019a922afe40680d27c_ligand_2.pdbqt
 12 12 0 0 0
SMALL
GASTEIGER

@<TRIPOS>ATOM
      1  C          5.3310    2.9470    0.1480 C.3     1  UNL1        0.1270
      2  C          6.2230    3.8760    0.8800 C.2     1  UNL1        0.3030
      3  O          6.8760    4.7640    0.2770 O.2     1  UNL1       -0.2520
      4  O          6.3620    3.7900    2.2560 O.3     1  UNL1       -0.4810
      5  H          6.9180    3.0300    2.6570 H       1  UNL1        0.2960
      6  C          5.2840    1.6510    0.8970 C.3     1  UNL1        0.0470
      7  C          6.0210    0.5650    0.2540 C.2     1  UNL1       -0.0470
      8  C          6.4140   -0.5410    0.9720 C.2     1  UNL1        0.0040
      9  C          6.3180    0.6570   -1.0860 C.2     1  UNL1        0.0040
     10  C          7.1140   -1.5400    0.2920 C.2     1  UNL1        0.0000
     11  C          7.0110   -0.3320   -1.7570 C.2     1  UNL1        0.0000
     12  C          7.4080   -1.4420   -1.0450 C.2     1  UNL1        0.0000
@<TRIPOS>BOND
     1    11     9    1
     2    11    12    2
     3     9     7    2
     4    12    10    1
     5     1     2    1
     6     1     6    1
     7     7     6    1
     8     7     8    1
     9     3     2    2
    10    10     8    2
    11     2     4    1
    12     4     5    1
