MODEL 1
REMARK VINA RESULT:      -7.4      0.000      0.000
REMARK SMILES O=C(O)CCc1ccccc1
REMARK SMILES IDX 4 1 2 2 1 3 3 4 5 6 6 7 7 8 11 9 8 10 10 11 9 12
REMARK H PARENT 3 5
REMARK Flexibility Score: inf
ROOT
ATOM      1  C   UNL     1       8.498  -0.636  -2.119  1.00  0.00     0.127 C 
ENDROOT
BRANCH   1   2
ATOM      2  C   UNL     1       8.498  -1.895  -2.902  1.00  0.00     0.303 C 
ATOM      3  O   UNL     1       9.561  -2.529  -3.114  1.00  0.00    -0.252 OA
BRANCH   2   4
ATOM      4  O   UNL     1       7.321  -2.408  -3.423  1.00  0.00    -0.481 OA
ATOM      5  H   UNL     1       7.359  -3.008  -4.251  1.00  0.00     0.296 HD
ENDBRANCH   2   4
ENDBRANCH   1   2
BRANCH   1   6
ATOM      6  C   UNL     1       7.107  -0.079  -2.126  1.00  0.00     0.047 C 
BRANCH   6   7
ATOM      7  C   UNL     1       6.520   0.071  -0.795  1.00  0.00    -0.047 A 
ATOM      8  C   UNL     1       6.657  -0.921   0.149  1.00  0.00     0.004 A 
ATOM      9  C   UNL     1       5.827   1.220  -0.492  1.00  0.00     0.004 A 
ATOM     10  C   UNL     1       6.071  -0.710   1.399  1.00  0.00     0.000 A 
ATOM     11  C   UNL     1       5.248   1.426   0.744  1.00  0.00     0.000 A 
ATOM     12  C   UNL     1       5.380   0.438   1.696  1.00  0.00     0.000 A 
ENDBRANCH   6   7
ENDBRANCH   1   6
TORSDOF 4
ENDMDL
MODEL 2
REMARK VINA RESULT:      -7.3      0.130      1.732
REMARK SMILES O=C(O)CCc1ccccc1
REMARK SMILES IDX 4 1 2 2 1 3 3 4 5 6 6 7 7 8 11 9 8 10 10 11 9 12
REMARK H PARENT 3 5
REMARK Flexibility Score: inf
ROOT
ATOM      1  C   UNL     1       8.421  -0.630  -2.101  1.00  0.00     0.127 C 
ENDROOT
BRANCH   1   2
ATOM      2  C   UNL     1       8.385  -1.889  -2.882  1.00  0.00     0.303 C 
ATOM      3  O   UNL     1       7.296  -2.410  -3.226  1.00  0.00    -0.252 OA
BRANCH   2   4
ATOM      4  O   UNL     1       9.557  -2.528  -3.254  1.00  0.00    -0.481 OA
ATOM      5  H   UNL     1       9.595  -3.551  -3.245  1.00  0.00     0.296 HD
ENDBRANCH   2   4
ENDBRANCH   1   2
BRANCH   1   6
ATOM      6  C   UNL     1       7.042  -0.044  -2.089  1.00  0.00     0.047 C 
BRANCH   6   7
ATOM      7  C   UNL     1       6.473   0.111  -0.752  1.00  0.00    -0.047 A 
ATOM      8  C   UNL     1       5.825   1.270  -0.393  1.00  0.00     0.004 A 
ATOM      9  C   UNL     1       6.591  -0.920   0.151  1.00  0.00     0.004 A 
ATOM     10  C   UNL     1       5.305   1.348   0.901  1.00  0.00     0.000 A 
ATOM     11  C   UNL     1       6.077  -0.841   1.430  1.00  0.00     0.000 A 
ATOM     12  C   UNL     1       5.427   0.316   1.798  1.00  0.00     0.000 A 
ENDBRANCH   6   7
ENDBRANCH   1   6
TORSDOF 4
ENDMDL
MODEL 3
REMARK VINA RESULT:      -6.8      3.364      5.072
REMARK SMILES O=C(O)CCc1ccccc1
REMARK SMILES IDX 4 1 2 2 1 3 3 4 5 6 6 7 7 8 11 9 8 10 10 11 9 12
REMARK H PARENT 3 5
REMARK Flexibility Score: inf
ROOT
ATOM      1  C   UNL     1       5.021   1.772   0.688  1.00  0.00     0.127 C 
ENDROOT
BRANCH   1   2
ATOM      2  C   UNL     1       4.496   1.108   1.904  1.00  0.00     0.303 C 
ATOM      3  O   UNL     1       5.146   0.202   2.483  1.00  0.00    -0.252 OA
BRANCH   2   4
ATOM      4  O   UNL     1       3.269   1.469   2.437  1.00  0.00    -0.481 OA
ATOM      5  H   UNL     1       2.543   0.756   2.551  1.00  0.00     0.296 HD
ENDBRANCH   2   4
ENDBRANCH   1   2
BRANCH   1   6
ATOM      6  C   UNL     1       6.517   1.763   0.755  1.00  0.00     0.047 C 
BRANCH   6   7
ATOM      7  C   UNL     1       7.157   1.026  -0.332  1.00  0.00    -0.047 A 
ATOM      8  C   UNL     1       8.477   1.246  -0.651  1.00  0.00     0.004 A 
ATOM      9  C   UNL     1       6.424   0.101  -1.039  1.00  0.00     0.004 A 
ATOM     10  C   UNL     1       9.023   0.504  -1.701  1.00  0.00     0.000 A 
ATOM     11  C   UNL     1       6.965  -0.631  -2.077  1.00  0.00     0.000 A 
ATOM     12  C   UNL     1       8.287  -0.416  -2.403  1.00  0.00     0.000 A 
ENDBRANCH   6   7
ENDBRANCH   1   6
TORSDOF 4
ENDMDL
MODEL 4
REMARK VINA RESULT:      -6.6      3.712      4.988
REMARK SMILES O=C(O)CCc1ccccc1
REMARK SMILES IDX 4 1 2 2 1 3 3 4 5 6 6 7 7 8 11 9 8 10 10 11 9 12
REMARK H PARENT 3 5
REMARK Flexibility Score: inf
ROOT
ATOM      1  C   UNL     1       5.331   2.947   0.148  1.00  0.00     0.127 C 
ENDROOT
BRANCH   1   2
ATOM      2  C   UNL     1       6.223   3.876   0.880  1.00  0.00     0.303 C 
ATOM      3  O   UNL     1       6.876   4.764   0.277  1.00  0.00    -0.252 OA
BRANCH   2   4
ATOM      4  O   UNL     1       6.362   3.790   2.256  1.00  0.00    -0.481 OA
ATOM      5  H   UNL     1       6.918   3.030   2.657  1.00  0.00     0.296 HD
ENDBRANCH   2   4
ENDBRANCH   1   2
BRANCH   1   6
ATOM      6  C   UNL     1       5.284   1.651   0.897  1.00  0.00     0.047 C 
BRANCH   6   7
ATOM      7  C   UNL     1       6.021   0.565   0.254  1.00  0.00    -0.047 A 
ATOM      8  C   UNL     1       6.414  -0.541   0.972  1.00  0.00     0.004 A 
ATOM      9  C   UNL     1       6.318   0.657  -1.086  1.00  0.00     0.004 A 
ATOM     10  C   UNL     1       7.114  -1.540   0.292  1.00  0.00     0.000 A 
ATOM     11  C   UNL     1       7.011  -0.332  -1.757  1.00  0.00     0.000 A 
ATOM     12  C   UNL     1       7.408  -1.442  -1.045  1.00  0.00     0.000 A 
ENDBRANCH   6   7
ENDBRANCH   1   6
TORSDOF 4
ENDMDL
MODEL 5
REMARK VINA RESULT:      -6.5      1.871      2.789
REMARK SMILES O=C(O)CCc1ccccc1
REMARK SMILES IDX 4 1 2 2 1 3 3 4 5 6 6 7 7 8 11 9 8 10 10 11 9 12
REMARK H PARENT 3 5
REMARK Flexibility Score: inf
ROOT
ATOM      1  C   UNL     1       8.262  -1.498   1.046  1.00  0.00     0.127 C 
ENDROOT
BRANCH   1   2
ATOM      2  C   UNL     1       8.505  -2.753   0.296  1.00  0.00     0.303 C 
ATOM      3  O   UNL     1       9.111  -3.719   0.823  1.00  0.00    -0.252 OA
BRANCH   2   4
ATOM      4  O   UNL     1       8.071  -2.893  -1.012  1.00  0.00    -0.481 OA
ATOM      5  H   UNL     1       8.091  -2.082  -1.637  1.00  0.00     0.296 HD
ENDBRANCH   2   4
ENDBRANCH   1   2
BRANCH   1   6
ATOM      6  C   UNL     1       6.786  -1.361   1.267  1.00  0.00     0.047 C 
BRANCH   6   7
ATOM      7  C   UNL     1       6.216  -0.129   0.724  1.00  0.00    -0.047 A 
ATOM      8  C   UNL     1       6.451   0.240  -0.580  1.00  0.00     0.004 A 
ATOM      9  C   UNL     1       5.436   0.664   1.534  1.00  0.00     0.004 A 
ATOM     10  C   UNL     1       5.873   1.429  -1.031  1.00  0.00     0.000 A 
ATOM     11  C   UNL     1       4.867   1.839   1.087  1.00  0.00     0.000 A 
ATOM     12  C   UNL     1       5.097   2.216  -0.219  1.00  0.00     0.000 A 
ENDBRANCH   6   7
ENDBRANCH   1   6
TORSDOF 4
ENDMDL
