@<TRIPOS>MOLECULE
/home/cewinharhar/GITHUB/reincatalyze/data/processed/docking_pred/2023-Apr-26-1657_maxeplen10_maxtrainstep1000_exh32_gamma099_lrac9e-4_lrcr1e-3/e1ac879641feb84a16575019a922afe40680d27c_ligand_2.pdbqt
 12 12 0 0 0
SMALL
GASTEIGER

@<TRIPOS>ATOM
      1  C          5.0210    1.7720    0.6880 C.3     1  UNL1        0.1270
      2  C          4.4960    1.1080    1.9040 C.2     1  UNL1        0.3030
      3  O          5.1460    0.2020    2.4830 O.2     1  UNL1       -0.2520
      4  O          3.2690    1.4690    2.4370 O.3     1  UNL1       -0.4810
      5  H          2.5430    0.7560    2.5510 H       1  UNL1        0.2960
      6  C          6.5170    1.7630    0.7550 C.3     1  UNL1        0.0470
      7  C          7.1570    1.0260   -0.3320 C.2     1  UNL1       -0.0470
      8  C          8.4770    1.2460   -0.6510 C.2     1  UNL1        0.0040
      9  C          6.4240    0.1010   -1.0390 C.2     1  UNL1        0.0040
     10  C          9.0230    0.5040   -1.7010 C.2     1  UNL1        0.0000
     11  C          6.9650   -0.6310   -2.0770 C.2     1  UNL1        0.0000
     12  C          8.2870   -0.4160   -2.4030 C.2     1  UNL1        0.0000
@<TRIPOS>BOND
     1    12    11    2
     2    12    10    1
     3    11     9    1
     4    10     8    2
     5     9     7    2
     6     8     7    1
     7     7     6    1
     8     1     6    1
     9     1     2    1
    10     2     4    1
    11     2     3    2
    12     4     5    1
