@<TRIPOS>MOLECULE
/home/cewinharhar/GITHUB/reincatalyze/data/processed/docking_pred/2023-Apr-26-1657_maxeplen10_maxtrainstep1000_exh32_gamma099_lrac9e-4_lrcr1e-3/e1ac879641feb84a16575019a922afe40680d27c_ligand_2.pdbqt
 12 12 0 0 0
SMALL
GASTEIGER

@<TRIPOS>ATOM
      1  C          8.2620   -1.4980    1.0460 C.3     1  UNL1        0.1270
      2  C          8.5050   -2.7530    0.2960 C.2     1  UNL1        0.3030
      3  O          9.1110   -3.7190    0.8230 O.2     1  UNL1       -0.2520
      4  O          8.0710   -2.8930   -1.0120 O.3     1  UNL1       -0.4810
      5  H          8.0910   -2.0820   -1.6370 H       1  UNL1        0.2960
      6  C          6.7860   -1.3610    1.2670 C.3     1  UNL1        0.0470
      7  C          6.2160   -0.1290    0.7240 C.2     1  UNL1       -0.0470
      8  C          6.4510    0.2400   -0.5800 C.2     1  UNL1        0.0040
      9  C          5.4360    0.6640    1.5340 C.2     1  UNL1        0.0040
     10  C          5.8730    1.4290   -1.0310 C.2     1  UNL1        0.0000
     11  C          4.8670    1.8390    1.0870 C.2     1  UNL1        0.0000
     12  C          5.0970    2.2160   -0.2190 C.2     1  UNL1        0.0000
@<TRIPOS>BOND
     1     5     4    1
     2    10     8    1
     3    10    12    2
     4     4     2    1
     5     8     7    2
     6    12    11    1
     7     2     3    2
     8     2     1    1
     9     7     6    1
    10     7     9    1
    11     1     6    1
    12    11     9    2
