@<TRIPOS>MOLECULE
/home/cewinharhar/GITHUB/reincatalyze/data/processed/docking_pred/2023-Apr-26-1657_maxeplen10_maxtrainstep1000_exh32_gamma099_lrac9e-4_lrcr1e-3/e3e0f9713a2c6d1770d60d03407d62bfa70f046f_ligand_2.pdbqt
 12 12 0 0 0
SMALL
GASTEIGER

@<TRIPOS>ATOM
      1  C          5.0200    1.7130    0.6610 C.3     1  UNL1        0.1270
      2  C          4.5020    1.0870    1.9000 C.2     1  UNL1        0.3030
      3  O          5.1530    0.1970    2.5010 O.2     1  UNL1       -0.2520
      4  O          3.2800    1.4680    2.4310 O.3     1  UNL1       -0.4810
      5  H          2.5740    0.7520    2.6270 H       1  UNL1        0.2960
      6  C          6.5170    1.7250    0.7310 C.3     1  UNL1        0.0470
      7  C          7.1680    0.9890   -0.3520 C.2     1  UNL1       -0.0470
      8  C          8.4880    1.2180   -0.6640 C.2     1  UNL1        0.0040
      9  C          6.4450    0.0570   -1.0600 C.2     1  UNL1        0.0040
     10  C          9.0450    0.4780   -1.7090 C.2     1  UNL1        0.0000
     11  C          6.9970   -0.6730   -2.0930 C.2     1  UNL1        0.0000
     12  C          8.3180   -0.4490   -2.4130 C.2     1  UNL1        0.0000
@<TRIPOS>BOND
     1    12    11    2
     2    12    10    1
     3    11     9    1
     4    10     8    2
     5     9     7    2
     6     8     7    1
     7     7     6    1
     8     1     6    1
     9     1     2    1
    10     2     4    1
    11     2     3    2
    12     4     5    1
