@<TRIPOS>MOLECULE
/home/cewinharhar/GITHUB/reincatalyze/data/processed/docking_pred/2023-Apr-26-1657_maxeplen10_maxtrainstep1000_exh32_gamma099_lrac9e-4_lrcr1e-3/e3e0f9713a2c6d1770d60d03407d62bfa70f046f_ligand_2.pdbqt
 12 12 0 0 0
SMALL
GASTEIGER

@<TRIPOS>ATOM
      1  C          8.4260   -0.5530   -2.2620 C.3     1  UNL1        0.1270
      2  C          8.4830   -1.8740   -2.9310 C.2     1  UNL1        0.3030
      3  O          9.5710   -2.4880   -3.0680 O.2     1  UNL1       -0.2520
      4  O          7.3340   -2.4710   -3.4250 O.3     1  UNL1       -0.4810
      5  H          6.9760   -3.3180   -2.9750 H       1  UNL1        0.2960
      6  C          6.9920   -0.1240   -2.1910 C.3     1  UNL1        0.0470
      7  C          6.4840    0.0260   -0.8280 C.2     1  UNL1       -0.0470
      8  C          6.6200   -0.9900    0.0890 C.2     1  UNL1        0.0040
      9  C          5.8650    1.2010   -0.4680 C.2     1  UNL1        0.0040
     10  C          6.1120   -0.7760    1.3730 C.2     1  UNL1        0.0000
     11  C          5.3630    1.4100    0.8010 C.2     1  UNL1        0.0000
     12  C          5.4950    0.3970    1.7260 C.2     1  UNL1        0.0000
@<TRIPOS>BOND
     1     4     5    1
     2     4     2    1
     3     3     2    2
     4     2     1    1
     5     1     6    1
     6     6     7    1
     7     7     9    2
     8     7     8    1
     9     9    11    1
    10     8    10    2
    11    11    12    2
    12    10    12    1
