@<TRIPOS>MOLECULE
/home/cewinharhar/GITHUB/reincatalyze/data/processed/docking_pred/2023-Apr-26-1657_maxeplen10_maxtrainstep1000_exh32_gamma099_lrac9e-4_lrcr1e-3/e3e0f9713a2c6d1770d60d03407d62bfa70f046f_ligand_2.pdbqt
 12 12 0 0 0
SMALL
GASTEIGER

@<TRIPOS>ATOM
      1  C          4.9940    1.7740    0.6680 C.3     1  UNL1        0.1270
      2  C          4.4900    1.1160    1.8960 C.2     1  UNL1        0.3030
      3  O          5.1550    0.2200    2.4740 O.2     1  UNL1       -0.2520
      4  O          3.2670    1.4710    2.4420 O.3     1  UNL1       -0.4810
      5  H          2.6050    2.0100    1.8770 H       1  UNL1        0.2960
      6  C          6.4920    1.7880    0.7220 C.3     1  UNL1        0.0470
      7  C          7.1320    1.0370   -0.3560 C.2     1  UNL1       -0.0470
      8  C          6.4130    0.1420   -1.1130 C.2     1  UNL1        0.0040
      9  C          8.4700    1.2350   -0.6100 C.2     1  UNL1        0.0040
     10  C          7.0900   -0.5400   -2.1270 C.2     1  UNL1        0.0000
     11  C          9.1370    0.5600   -1.6120 C.2     1  UNL1        0.0000
     12  C          8.4240   -0.3390   -2.3750 C.2     1  UNL1        0.0000
@<TRIPOS>BOND
     1    12    10    2
     2    12    11    1
     3    10     8    1
     4    11     9    2
     5     8     7    2
     6     9     7    1
     7     7     6    1
     8     1     6    1
     9     1     2    1
    10     5     4    1
    11     2     4    1
    12     2     3    2
