MODEL 1
REMARK VINA RESULT:      -7.3      0.000      0.000
REMARK SMILES O=C(O)CCc1ccccc1
REMARK SMILES IDX 4 1 2 2 1 3 3 4 5 6 6 7 7 8 11 9 8 10 10 11 9 12
REMARK H PARENT 3 5
REMARK Flexibility Score: inf
ROOT
ATOM      1  C   UNL     1       8.426  -0.553  -2.262  1.00  0.00     0.127 C 
ENDROOT
BRANCH   1   2
ATOM      2  C   UNL     1       8.483  -1.874  -2.931  1.00  0.00     0.303 C 
ATOM      3  O   UNL     1       9.571  -2.488  -3.068  1.00  0.00    -0.252 OA
BRANCH   2   4
ATOM      4  O   UNL     1       7.334  -2.471  -3.425  1.00  0.00    -0.481 OA
ATOM      5  H   UNL     1       6.976  -3.318  -2.975  1.00  0.00     0.296 HD
ENDBRANCH   2   4
ENDBRANCH   1   2
BRANCH   1   6
ATOM      6  C   UNL     1       6.992  -0.124  -2.191  1.00  0.00     0.047 C 
BRANCH   6   7
ATOM      7  C   UNL     1       6.484   0.026  -0.828  1.00  0.00    -0.047 A 
ATOM      8  C   UNL     1       6.620  -0.990   0.089  1.00  0.00     0.004 A 
ATOM      9  C   UNL     1       5.865   1.201  -0.468  1.00  0.00     0.004 A 
ATOM     10  C   UNL     1       6.112  -0.776   1.373  1.00  0.00     0.000 A 
ATOM     11  C   UNL     1       5.363   1.410   0.801  1.00  0.00     0.000 A 
ATOM     12  C   UNL     1       5.495   0.397   1.726  1.00  0.00     0.000 A 
ENDBRANCH   6   7
ENDBRANCH   1   6
TORSDOF 4
ENDMDL
MODEL 2
REMARK VINA RESULT:      -7.3      0.145      1.733
REMARK SMILES O=C(O)CCc1ccccc1
REMARK SMILES IDX 4 1 2 2 1 3 3 4 5 6 6 7 7 8 11 9 8 10 10 11 9 12
REMARK H PARENT 3 5
REMARK Flexibility Score: inf
ROOT
ATOM      1  C   UNL     1       8.400  -0.627  -2.113  1.00  0.00     0.127 C 
ENDROOT
BRANCH   1   2
ATOM      2  C   UNL     1       8.366  -1.887  -2.891  1.00  0.00     0.303 C 
ATOM      3  O   UNL     1       7.278  -2.403  -3.248  1.00  0.00    -0.252 OA
BRANCH   2   4
ATOM      4  O   UNL     1       9.539  -2.533  -3.248  1.00  0.00    -0.481 OA
ATOM      5  H   UNL     1       9.769  -2.642  -4.239  1.00  0.00     0.296 HD
ENDBRANCH   2   4
ENDBRANCH   1   2
BRANCH   1   6
ATOM      6  C   UNL     1       7.016  -0.053  -2.087  1.00  0.00     0.047 C 
BRANCH   6   7
ATOM      7  C   UNL     1       6.460   0.098  -0.743  1.00  0.00    -0.047 A 
ATOM      8  C   UNL     1       5.817   1.257  -0.374  1.00  0.00     0.004 A 
ATOM      9  C   UNL     1       6.583  -0.937   0.154  1.00  0.00     0.004 A 
ATOM     10  C   UNL     1       5.309   1.331   0.925  1.00  0.00     0.000 A 
ATOM     11  C   UNL     1       6.081  -0.862   1.438  1.00  0.00     0.000 A 
ATOM     12  C   UNL     1       5.436   0.296   1.816  1.00  0.00     0.000 A 
ENDBRANCH   6   7
ENDBRANCH   1   6
TORSDOF 4
ENDMDL
MODEL 3
REMARK VINA RESULT:      -7.2      0.708      1.610
REMARK SMILES O=C(O)CCc1ccccc1
REMARK SMILES IDX 4 1 2 2 1 3 3 4 5 6 6 7 7 8 11 9 8 10 10 11 9 12
REMARK H PARENT 3 5
REMARK Flexibility Score: inf
ROOT
ATOM      1  C   UNL     1       8.359  -0.991  -1.739  1.00  0.00     0.127 C 
ENDROOT
BRANCH   1   2
ATOM      2  C   UNL     1       8.458  -2.018  -2.803  1.00  0.00     0.303 C 
ATOM      3  O   UNL     1       9.570  -2.480  -3.160  1.00  0.00    -0.252 OA
BRANCH   2   4
ATOM      4  O   UNL     1       7.322  -2.499  -3.433  1.00  0.00    -0.481 OA
ATOM      5  H   UNL     1       7.410  -3.258  -4.115  1.00  0.00     0.296 HD
ENDBRANCH   2   4
ENDBRANCH   1   2
BRANCH   1   6
ATOM      6  C   UNL     1       7.293  -1.412  -0.775  1.00  0.00     0.047 C 
BRANCH   6   7
ATOM      7  C   UNL     1       6.518  -0.302  -0.224  1.00  0.00    -0.047 A 
ATOM      8  C   UNL     1       6.189   0.782  -1.003  1.00  0.00     0.004 A 
ATOM      9  C   UNL     1       6.115  -0.352   1.091  1.00  0.00     0.004 A 
ATOM     10  C   UNL     1       5.446   1.806  -0.411  1.00  0.00     0.000 A 
ATOM     11  C   UNL     1       5.381   0.661   1.675  1.00  0.00     0.000 A 
ATOM     12  C   UNL     1       5.048   1.751   0.901  1.00  0.00     0.000 A 
ENDBRANCH   6   7
ENDBRANCH   1   6
TORSDOF 4
ENDMDL
MODEL 4
REMARK VINA RESULT:      -6.8      3.380      5.071
REMARK SMILES O=C(O)CCc1ccccc1
REMARK SMILES IDX 4 1 2 2 1 3 3 4 5 6 6 7 7 8 11 9 8 10 10 11 9 12
REMARK H PARENT 3 5
REMARK Flexibility Score: inf
ROOT
ATOM      1  C   UNL     1       5.020   1.713   0.661  1.00  0.00     0.127 C 
ENDROOT
BRANCH   1   2
ATOM      2  C   UNL     1       4.502   1.087   1.900  1.00  0.00     0.303 C 
ATOM      3  O   UNL     1       5.153   0.197   2.501  1.00  0.00    -0.252 OA
BRANCH   2   4
ATOM      4  O   UNL     1       3.280   1.468   2.431  1.00  0.00    -0.481 OA
ATOM      5  H   UNL     1       2.574   0.752   2.627  1.00  0.00     0.296 HD
ENDBRANCH   2   4
ENDBRANCH   1   2
BRANCH   1   6
ATOM      6  C   UNL     1       6.517   1.725   0.731  1.00  0.00     0.047 C 
BRANCH   6   7
ATOM      7  C   UNL     1       7.168   0.989  -0.352  1.00  0.00    -0.047 A 
ATOM      8  C   UNL     1       8.488   1.218  -0.664  1.00  0.00     0.004 A 
ATOM      9  C   UNL     1       6.445   0.057  -1.060  1.00  0.00     0.004 A 
ATOM     10  C   UNL     1       9.045   0.478  -1.709  1.00  0.00     0.000 A 
ATOM     11  C   UNL     1       6.997  -0.673  -2.093  1.00  0.00     0.000 A 
ATOM     12  C   UNL     1       8.318  -0.449  -2.413  1.00  0.00     0.000 A 
ENDBRANCH   6   7
ENDBRANCH   1   6
TORSDOF 4
ENDMDL
MODEL 5
REMARK VINA RESULT:      -6.8      3.387      5.060
REMARK SMILES O=C(O)CCc1ccccc1
REMARK SMILES IDX 4 1 2 2 1 3 3 4 5 6 6 7 7 8 11 9 8 10 10 11 9 12
REMARK H PARENT 3 5
REMARK Flexibility Score: inf
ROOT
ATOM      1  C   UNL     1       4.994   1.774   0.668  1.00  0.00     0.127 C 
ENDROOT
BRANCH   1   2
ATOM      2  C   UNL     1       4.490   1.116   1.896  1.00  0.00     0.303 C 
ATOM      3  O   UNL     1       5.155   0.220   2.474  1.00  0.00    -0.252 OA
BRANCH   2   4
ATOM      4  O   UNL     1       3.267   1.471   2.442  1.00  0.00    -0.481 OA
ATOM      5  H   UNL     1       2.605   2.010   1.877  1.00  0.00     0.296 HD
ENDBRANCH   2   4
ENDBRANCH   1   2
BRANCH   1   6
ATOM      6  C   UNL     1       6.492   1.788   0.722  1.00  0.00     0.047 C 
BRANCH   6   7
ATOM      7  C   UNL     1       7.132   1.037  -0.356  1.00  0.00    -0.047 A 
ATOM      8  C   UNL     1       6.413   0.142  -1.113  1.00  0.00     0.004 A 
ATOM      9  C   UNL     1       8.470   1.235  -0.610  1.00  0.00     0.004 A 
ATOM     10  C   UNL     1       7.090  -0.540  -2.127  1.00  0.00     0.000 A 
ATOM     11  C   UNL     1       9.137   0.560  -1.612  1.00  0.00     0.000 A 
ATOM     12  C   UNL     1       8.424  -0.339  -2.375  1.00  0.00     0.000 A 
ENDBRANCH   6   7
ENDBRANCH   1   6
TORSDOF 4
ENDMDL
