@<TRIPOS>MOLECULE
/home/cewinharhar/GITHUB/reincatalyze/data/processed/docking_pred/2023-Apr-26-1657_maxeplen10_maxtrainstep1000_exh32_gamma099_lrac9e-4_lrcr1e-3/e3e0f9713a2c6d1770d60d03407d62bfa70f046f_ligand_2.pdbqt
 12 12 0 0 0
SMALL
GASTEIGER

@<TRIPOS>ATOM
      1  C          8.4000   -0.6270   -2.1130 C.3     1  UNL1        0.1270
      2  C          8.3660   -1.8870   -2.8910 C.2     1  UNL1        0.3030
      3  O          7.2780   -2.4030   -3.2480 O.2     1  UNL1       -0.2520
      4  O          9.5390   -2.5330   -3.2480 O.3     1  UNL1       -0.4810
      5  H          9.7690   -2.6420   -4.2390 H       1  UNL1        0.2960
      6  C          7.0160   -0.0530   -2.0870 C.3     1  UNL1        0.0470
      7  C          6.4600    0.0980   -0.7430 C.2     1  UNL1       -0.0470
      8  C          5.8170    1.2570   -0.3740 C.2     1  UNL1        0.0040
      9  C          6.5830   -0.9370    0.1540 C.2     1  UNL1        0.0040
     10  C          5.3090    1.3310    0.9250 C.2     1  UNL1        0.0000
     11  C          6.0810   -0.8620    1.4380 C.2     1  UNL1        0.0000
     12  C          5.4360    0.2960    1.8160 C.2     1  UNL1        0.0000
@<TRIPOS>BOND
     1     5     4    1
     2     3     2    2
     3     4     2    1
     4     2     1    1
     5     1     6    1
     6     6     7    1
     7     7     8    2
     8     7     9    1
     9     8    10    1
    10     9    11    2
    11    10    12    2
    12    11    12    1
