@<TRIPOS>MOLECULE
/home/cewinharhar/GITHUB/reincatalyze/data/processed/docking_pred/2023-Apr-26-1657_maxeplen10_maxtrainstep1000_exh32_gamma099_lrac9e-4_lrcr1e-3/e3e0f9713a2c6d1770d60d03407d62bfa70f046f_ligand_2.pdbqt
 12 12 0 0 0
SMALL
GASTEIGER

@<TRIPOS>ATOM
      1  C          8.3590   -0.9910   -1.7390 C.3     1  UNL1        0.1270
      2  C          8.4580   -2.0180   -2.8030 C.2     1  UNL1        0.3030
      3  O          9.5700   -2.4800   -3.1600 O.2     1  UNL1       -0.2520
      4  O          7.3220   -2.4990   -3.4330 O.3     1  UNL1       -0.4810
      5  H          7.4100   -3.2580   -4.1150 H       1  UNL1        0.2960
      6  C          7.2930   -1.4120   -0.7750 C.3     1  UNL1        0.0470
      7  C          6.5180   -0.3020   -0.2240 C.2     1  UNL1       -0.0470
      8  C          6.1890    0.7820   -1.0030 C.2     1  UNL1        0.0040
      9  C          6.1150   -0.3520    1.0910 C.2     1  UNL1        0.0040
     10  C          5.4460    1.8060   -0.4110 C.2     1  UNL1        0.0000
     11  C          5.3810    0.6610    1.6750 C.2     1  UNL1        0.0000
     12  C          5.0480    1.7510    0.9010 C.2     1  UNL1        0.0000
@<TRIPOS>BOND
     1     5     4    1
     2     4     2    1
     3     3     2    2
     4     2     1    1
     5     1     6    1
     6     8    10    1
     7     8     7    2
     8     6     7    1
     9    10    12    2
    10     7     9    1
    11    12    11    1
    12     9    11    2
