@<TRIPOS>MOLECULE
/home/cewinharhar/GITHUB/reincatalyze/data/processed/docking_pred/2023-Apr-26-1657_maxeplen10_maxtrainstep1000_exh32_gamma099_lrac9e-4_lrcr1e-3/e3e22a08cc3fa656d2264310e8071e645bf38a06_ligand_2.pdbqt
 12 12 0 0 0
SMALL
GASTEIGER

@<TRIPOS>ATOM
      1  C          8.4930   -0.6530   -2.1040 C.3     1  UNL1        0.1270
      2  C          8.5010   -1.9110   -2.8880 C.2     1  UNL1        0.3030
      3  O          9.5710   -2.5290   -3.1160 O.2     1  UNL1       -0.2520
      4  O          7.3250   -2.4410   -3.3920 O.3     1  UNL1       -0.4810
      5  H          6.7720   -1.8920   -4.0570 H       1  UNL1        0.2960
      6  C          7.0990   -0.1060   -2.1080 C.3     1  UNL1        0.0470
      7  C          6.5190    0.0550   -0.7760 C.2     1  UNL1       -0.0470
      8  C          6.6350   -0.9400    0.1660 C.2     1  UNL1        0.0040
      9  C          5.8550    1.2200   -0.4690 C.2     1  UNL1        0.0040
     10  C          6.0580   -0.7180    1.4190 C.2     1  UNL1        0.0000
     11  C          5.2850    1.4380    0.7700 C.2     1  UNL1        0.0000
     12  C          5.3950    0.4460    1.7190 C.2     1  UNL1        0.0000
@<TRIPOS>BOND
     1     5     4    1
     2     4     2    1
     3     3     2    2
     4     2     1    1
     5     6     1    1
     6     6     7    1
     7     7     9    2
     8     7     8    1
     9     9    11    1
    10     8    10    2
    11    11    12    2
    12    10    12    1
