@<TRIPOS>MOLECULE
/home/cewinharhar/GITHUB/reincatalyze/data/processed/docking_pred/2023-Apr-26-1657_maxeplen10_maxtrainstep1000_exh32_gamma099_lrac9e-4_lrcr1e-3/e3e22a08cc3fa656d2264310e8071e645bf38a06_ligand_2.pdbqt
 12 12 0 0 0
SMALL
GASTEIGER

@<TRIPOS>ATOM
      1  C          5.0010    1.8180    0.7410 C.3     1  UNL1        0.1270
      2  C          4.4730    1.1140    1.9330 C.2     1  UNL1        0.3030
      3  O          5.1240    0.1950    2.4880 O.2     1  UNL1       -0.2520
      4  O          3.2410    1.4520    2.4690 O.3     1  UNL1       -0.4810
      5  H          2.5120    0.7370    2.5400 H       1  UNL1        0.2960
      6  C          6.4980    1.7680    0.7890 C.3     1  UNL1        0.0470
      7  C          7.1040    1.0330   -0.3200 C.2     1  UNL1       -0.0470
      8  C          6.3640    0.1410   -1.0610 C.2     1  UNL1        0.0040
      9  C          8.4300    1.2440   -0.6200 C.2     1  UNL1        0.0040
     10  C          7.0080   -0.5250   -2.1060 C.2     1  UNL1        0.0000
     11  C          9.0650    0.5850   -1.6530 C.2     1  UNL1        0.0000
     12  C          8.3320   -0.3110   -2.4000 C.2     1  UNL1        0.0000
@<TRIPOS>BOND
     1    12    10    2
     2    12    11    1
     3    10     8    1
     4    11     9    2
     5     8     7    2
     6     9     7    1
     7     7     6    1
     8     1     6    1
     9     1     2    1
    10     2     4    1
    11     2     3    2
    12     4     5    1
