@<TRIPOS>MOLECULE
/home/cewinharhar/GITHUB/reincatalyze/data/processed/docking_pred/2023-Apr-26-1657_maxeplen10_maxtrainstep1000_exh32_gamma099_lrac9e-4_lrcr1e-3/e3e22a08cc3fa656d2264310e8071e645bf38a06_ligand_2.pdbqt
 12 12 0 0 0
SMALL
GASTEIGER

@<TRIPOS>ATOM
      1  C          8.3930   -0.6700   -2.0620 C.3     1  UNL1        0.1270
      2  C          8.3710   -1.9060   -2.8800 C.2     1  UNL1        0.3030
      3  O          7.2880   -2.4180   -3.2570 O.2     1  UNL1       -0.2520
      4  O          9.5500   -2.5320   -3.2520 O.3     1  UNL1       -0.4810
      5  H          9.5660   -3.5510   -3.3500 H       1  UNL1        0.2960
      6  C          7.0150   -0.0820   -2.0620 C.3     1  UNL1        0.0470
      7  C          6.4450    0.0970   -0.7280 C.2     1  UNL1       -0.0470
      8  C          5.8030    1.2650   -0.3870 C.2     1  UNL1        0.0040
      9  C          6.5540   -0.9220    0.1910 C.2     1  UNL1        0.0040
     10  C          5.2820    1.3660    0.9050 C.2     1  UNL1        0.0000
     11  C          6.0390   -0.8210    1.4670 C.2     1  UNL1        0.0000
     12  C          5.3950    0.3470    1.8170 C.2     1  UNL1        0.0000
@<TRIPOS>BOND
     1     5     4    1
     2     3     2    2
     3     4     2    1
     4     2     1    1
     5     1     6    1
     6     6     7    1
     7     7     8    2
     8     7     9    1
     9     8    10    1
    10     9    11    2
    11    10    12    2
    12    11    12    1
