MODEL 1
REMARK VINA RESULT:      -7.4      0.000      0.000
REMARK SMILES O=C(O)CCc1ccccc1
REMARK SMILES IDX 4 1 2 2 1 3 3 4 5 6 6 7 7 8 11 9 8 10 10 11 9 12
REMARK H PARENT 3 5
REMARK Flexibility Score: inf
ROOT
ATOM      1  C   UNL     1       8.493  -0.653  -2.104  1.00  0.00     0.127 C 
ENDROOT
BRANCH   1   2
ATOM      2  C   UNL     1       8.501  -1.911  -2.888  1.00  0.00     0.303 C 
ATOM      3  O   UNL     1       9.571  -2.529  -3.116  1.00  0.00    -0.252 OA
BRANCH   2   4
ATOM      4  O   UNL     1       7.325  -2.441  -3.392  1.00  0.00    -0.481 OA
ATOM      5  H   UNL     1       6.772  -1.892  -4.057  1.00  0.00     0.296 HD
ENDBRANCH   2   4
ENDBRANCH   1   2
BRANCH   1   6
ATOM      6  C   UNL     1       7.099  -0.106  -2.108  1.00  0.00     0.047 C 
BRANCH   6   7
ATOM      7  C   UNL     1       6.519   0.055  -0.776  1.00  0.00    -0.047 A 
ATOM      8  C   UNL     1       6.635  -0.940   0.166  1.00  0.00     0.004 A 
ATOM      9  C   UNL     1       5.855   1.220  -0.469  1.00  0.00     0.004 A 
ATOM     10  C   UNL     1       6.058  -0.718   1.419  1.00  0.00     0.000 A 
ATOM     11  C   UNL     1       5.285   1.438   0.770  1.00  0.00     0.000 A 
ATOM     12  C   UNL     1       5.395   0.446   1.719  1.00  0.00     0.000 A 
ENDBRANCH   6   7
ENDBRANCH   1   6
TORSDOF 4
ENDMDL
MODEL 2
REMARK VINA RESULT:      -7.3      0.122      1.733
REMARK SMILES O=C(O)CCc1ccccc1
REMARK SMILES IDX 4 1 2 2 1 3 3 4 5 6 6 7 7 8 11 9 8 10 10 11 9 12
REMARK H PARENT 3 5
REMARK Flexibility Score: inf
ROOT
ATOM      1  C   UNL     1       8.393  -0.670  -2.062  1.00  0.00     0.127 C 
ENDROOT
BRANCH   1   2
ATOM      2  C   UNL     1       8.371  -1.906  -2.880  1.00  0.00     0.303 C 
ATOM      3  O   UNL     1       7.288  -2.418  -3.257  1.00  0.00    -0.252 OA
BRANCH   2   4
ATOM      4  O   UNL     1       9.550  -2.532  -3.252  1.00  0.00    -0.481 OA
ATOM      5  H   UNL     1       9.566  -3.551  -3.350  1.00  0.00     0.296 HD
ENDBRANCH   2   4
ENDBRANCH   1   2
BRANCH   1   6
ATOM      6  C   UNL     1       7.015  -0.082  -2.062  1.00  0.00     0.047 C 
BRANCH   6   7
ATOM      7  C   UNL     1       6.445   0.097  -0.728  1.00  0.00    -0.047 A 
ATOM      8  C   UNL     1       5.803   1.265  -0.387  1.00  0.00     0.004 A 
ATOM      9  C   UNL     1       6.554  -0.922   0.191  1.00  0.00     0.004 A 
ATOM     10  C   UNL     1       5.282   1.366   0.905  1.00  0.00     0.000 A 
ATOM     11  C   UNL     1       6.039  -0.821   1.467  1.00  0.00     0.000 A 
ATOM     12  C   UNL     1       5.395   0.347   1.817  1.00  0.00     0.000 A 
ENDBRANCH   6   7
ENDBRANCH   1   6
TORSDOF 4
ENDMDL
MODEL 3
REMARK VINA RESULT:      -7.0      0.985      1.486
REMARK SMILES O=C(O)CCc1ccccc1
REMARK SMILES IDX 4 1 2 2 1 3 3 4 5 6 6 7 7 8 11 9 8 10 10 11 9 12
REMARK H PARENT 3 5
REMARK Flexibility Score: inf
ROOT
ATOM      1  C   UNL     1       7.301  -1.242  -2.248  1.00  0.00     0.127 C 
ENDROOT
BRANCH   1   2
ATOM      2  C   UNL     1       8.753  -1.341  -2.530  1.00  0.00     0.303 C 
ATOM      3  O   UNL     1       9.559  -0.476  -2.107  1.00  0.00    -0.252 OA
BRANCH   2   4
ATOM      4  O   UNL     1       9.262  -2.396  -3.271  1.00  0.00    -0.481 OA
ATOM      5  H   UNL     1       9.122  -3.354  -2.939  1.00  0.00     0.296 HD
ENDBRANCH   2   4
ENDBRANCH   1   2
BRANCH   1   6
ATOM      6  C   UNL     1       7.095  -1.411  -0.773  1.00  0.00     0.047 C 
BRANCH   6   7
ATOM      7  C   UNL     1       6.376  -0.306  -0.143  1.00  0.00    -0.047 A 
ATOM      8  C   UNL     1       5.969  -0.389   1.168  1.00  0.00     0.004 A 
ATOM      9  C   UNL     1       6.110   0.827  -0.876  1.00  0.00     0.004 A 
ATOM     10  C   UNL     1       5.287   0.705   1.706  1.00  0.00     0.000 A 
ATOM     11  C   UNL     1       5.435   1.908  -0.343  1.00  0.00     0.000 A 
ATOM     12  C   UNL     1       5.023   1.832   0.969  1.00  0.00     0.000 A 
ENDBRANCH   6   7
ENDBRANCH   1   6
TORSDOF 4
ENDMDL
MODEL 4
REMARK VINA RESULT:      -6.8      3.370      5.076
REMARK SMILES O=C(O)CCc1ccccc1
REMARK SMILES IDX 4 1 2 2 1 3 3 4 5 6 6 7 7 8 11 9 8 10 10 11 9 12
REMARK H PARENT 3 5
REMARK Flexibility Score: inf
ROOT
ATOM      1  C   UNL     1       5.001   1.818   0.741  1.00  0.00     0.127 C 
ENDROOT
BRANCH   1   2
ATOM      2  C   UNL     1       4.473   1.114   1.933  1.00  0.00     0.303 C 
ATOM      3  O   UNL     1       5.124   0.195   2.488  1.00  0.00    -0.252 OA
BRANCH   2   4
ATOM      4  O   UNL     1       3.241   1.452   2.469  1.00  0.00    -0.481 OA
ATOM      5  H   UNL     1       2.512   0.737   2.540  1.00  0.00     0.296 HD
ENDBRANCH   2   4
ENDBRANCH   1   2
BRANCH   1   6
ATOM      6  C   UNL     1       6.498   1.768   0.789  1.00  0.00     0.047 C 
BRANCH   6   7
ATOM      7  C   UNL     1       7.104   1.033  -0.320  1.00  0.00    -0.047 A 
ATOM      8  C   UNL     1       6.364   0.141  -1.061  1.00  0.00     0.004 A 
ATOM      9  C   UNL     1       8.430   1.244  -0.620  1.00  0.00     0.004 A 
ATOM     10  C   UNL     1       7.008  -0.525  -2.106  1.00  0.00     0.000 A 
ATOM     11  C   UNL     1       9.065   0.585  -1.653  1.00  0.00     0.000 A 
ATOM     12  C   UNL     1       8.332  -0.311  -2.400  1.00  0.00     0.000 A 
ENDBRANCH   6   7
ENDBRANCH   1   6
TORSDOF 4
ENDMDL
MODEL 5
REMARK VINA RESULT:      -6.7      3.837      4.925
REMARK SMILES O=C(O)CCc1ccccc1
REMARK SMILES IDX 4 1 2 2 1 3 3 4 5 6 6 7 7 8 11 9 8 10 10 11 9 12
REMARK H PARENT 3 5
REMARK Flexibility Score: inf
ROOT
ATOM      1  C   UNL     1       5.591   2.871  -0.098  1.00  0.00     0.127 C 
ENDROOT
BRANCH   1   2
ATOM      2  C   UNL     1       6.269   3.871   0.759  1.00  0.00     0.303 C 
ATOM      3  O   UNL     1       6.989   4.773   0.263  1.00  0.00    -0.252 OA
BRANCH   2   4
ATOM      4  O   UNL     1       6.128   3.837   2.137  1.00  0.00    -0.481 OA
ATOM      5  H   UNL     1       5.249   3.506   2.543  1.00  0.00     0.296 HD
ENDBRANCH   2   4
ENDBRANCH   1   2
BRANCH   1   6
ATOM      6  C   UNL     1       4.940   1.854   0.789  1.00  0.00     0.047 C 
BRANCH   6   7
ATOM      7  C   UNL     1       5.699   0.612   0.926  1.00  0.00    -0.047 A 
ATOM      8  C   UNL     1       5.761  -0.045   2.132  1.00  0.00     0.004 A 
ATOM      9  C   UNL     1       6.354   0.101  -0.171  1.00  0.00     0.004 A 
ATOM     10  C   UNL     1       6.504  -1.227   2.190  1.00  0.00     0.000 A 
ATOM     11  C   UNL     1       7.088  -1.067  -0.113  1.00  0.00     0.000 A 
ATOM     12  C   UNL     1       7.156  -1.731   1.093  1.00  0.00     0.000 A 
ENDBRANCH   6   7
ENDBRANCH   1   6
TORSDOF 4
ENDMDL
