@<TRIPOS>MOLECULE
/home/cewinharhar/GITHUB/reincatalyze/data/processed/docking_pred/2023-Apr-26-1657_maxeplen10_maxtrainstep1000_exh32_gamma099_lrac9e-4_lrcr1e-3/e3e22a08cc3fa656d2264310e8071e645bf38a06_ligand_2.pdbqt
 12 12 0 0 0
SMALL
GASTEIGER

@<TRIPOS>ATOM
      1  C          5.5910    2.8710   -0.0980 C.3     1  UNL1        0.1270
      2  C          6.2690    3.8710    0.7590 C.2     1  UNL1        0.3030
      3  O          6.9890    4.7730    0.2630 O.2     1  UNL1       -0.2520
      4  O          6.1280    3.8370    2.1370 O.3     1  UNL1       -0.4810
      5  H          5.2490    3.5060    2.5430 H       1  UNL1        0.2960
      6  C          4.9400    1.8540    0.7890 C.3     1  UNL1        0.0470
      7  C          5.6990    0.6120    0.9260 C.2     1  UNL1       -0.0470
      8  C          5.7610   -0.0450    2.1320 C.2     1  UNL1        0.0040
      9  C          6.3540    0.1010   -0.1710 C.2     1  UNL1        0.0040
     10  C          6.5040   -1.2270    2.1900 C.2     1  UNL1        0.0000
     11  C          7.0880   -1.0670   -0.1130 C.2     1  UNL1        0.0000
     12  C          7.1560   -1.7310    1.0930 C.2     1  UNL1        0.0000
@<TRIPOS>BOND
     1     9    11    1
     2     9     7    2
     3    11    12    2
     4     1     2    1
     5     1     6    1
     6     3     2    2
     7     2     4    1
     8     6     7    1
     9     7     8    1
    10    12    10    1
    11     8    10    2
    12     4     5    1
