@<TRIPOS>MOLECULE
/home/cewinharhar/GITHUB/reincatalyze/data/processed/docking_pred/2023-Apr-26-1657_maxeplen10_maxtrainstep1000_exh32_gamma099_lrac9e-4_lrcr1e-3/e3e22a08cc3fa656d2264310e8071e645bf38a06_ligand_2.pdbqt
 12 12 0 0 0
SMALL
GASTEIGER

@<TRIPOS>ATOM
      1  C          7.3010   -1.2420   -2.2480 C.3     1  UNL1        0.1270
      2  C          8.7530   -1.3410   -2.5300 C.2     1  UNL1        0.3030
      3  O          9.5590   -0.4760   -2.1070 O.2     1  UNL1       -0.2520
      4  O          9.2620   -2.3960   -3.2710 O.3     1  UNL1       -0.4810
      5  H          9.1220   -3.3540   -2.9390 H       1  UNL1        0.2960
      6  C          7.0950   -1.4110   -0.7730 C.3     1  UNL1        0.0470
      7  C          6.3760   -0.3060   -0.1430 C.2     1  UNL1       -0.0470
      8  C          5.9690   -0.3890    1.1680 C.2     1  UNL1        0.0040
      9  C          6.1100    0.8270   -0.8760 C.2     1  UNL1        0.0040
     10  C          5.2870    0.7050    1.7060 C.2     1  UNL1        0.0000
     11  C          5.4350    1.9080   -0.3430 C.2     1  UNL1        0.0000
     12  C          5.0230    1.8320    0.9690 C.2     1  UNL1        0.0000
@<TRIPOS>BOND
     1     4     5    1
     2     4     2    1
     3     2     1    1
     4     2     3    2
     5     1     6    1
     6     9    11    1
     7     9     7    2
     8     6     7    1
     9    11    12    2
    10     7     8    1
    11    12    10    1
    12     8    10    2
