@<TRIPOS>MOLECULE
/home/cewinharhar/GITHUB/reincatalyze/data/processed/docking_pred/2023-Apr-26-1657_maxeplen10_maxtrainstep1000_exh32_gamma099_lrac9e-4_lrcr1e-3/e3fbdfe9b196bdc40f83d7817e536621cd4b8c1b_ligand_2.pdbqt
 12 12 0 0 0
SMALL
GASTEIGER

@<TRIPOS>ATOM
      1  C          5.3310    2.9830    0.0550 C.3     1  UNL1        0.1270
      2  C          6.2180    3.8770    0.8340 C.2     1  UNL1        0.3030
      3  O          6.8950    4.7730    0.2710 O.2     1  UNL1       -0.2520
      4  O          6.3270    3.7490    2.2090 O.3     1  UNL1       -0.4810
      5  H          5.5450    4.0410    2.8030 H       1  UNL1        0.2960
      6  C          5.1870    1.6930    0.8050 C.3     1  UNL1        0.0470
      7  C          5.9710    0.5920    0.2490 C.2     1  UNL1       -0.0470
      8  C          6.3640   -0.4610    1.0420 C.2     1  UNL1        0.0040
      9  C          6.3130    0.6160   -1.0830 C.2     1  UNL1        0.0040
     10  C          7.1110   -1.4790    0.4440 C.2     1  UNL1        0.0000
     11  C          7.0520   -0.3910   -1.6720 C.2     1  UNL1        0.0000
     12  C          7.4500   -1.4490   -0.8850 C.2     1  UNL1        0.0000
@<TRIPOS>BOND
     1    11     9    1
     2    11    12    2
     3     9     7    2
     4    12    10    1
     5     1     6    1
     6     1     2    1
     7     7     6    1
     8     7     8    1
     9     3     2    2
    10    10     8    2
    11     2     4    1
    12     4     5    1
