@<TRIPOS>MOLECULE
/home/cewinharhar/GITHUB/reincatalyze/data/processed/docking_pred/2023-Apr-26-1657_maxeplen10_maxtrainstep1000_exh32_gamma099_lrac9e-4_lrcr1e-3/e3fbdfe9b196bdc40f83d7817e536621cd4b8c1b_ligand_2.pdbqt
 12 12 0 0 0
SMALL
GASTEIGER

@<TRIPOS>ATOM
      1  C          5.0170    1.7620    0.7010 C.3     1  UNL1        0.1270
      2  C          4.5030    1.0970    1.9220 C.2     1  UNL1        0.3030
      3  O          5.1670    0.2040    2.5050 O.2     1  UNL1       -0.2520
      4  O          3.2720    1.4430    2.4550 O.3     1  UNL1       -0.4810
      5  H          2.6160    0.7040    2.7230 H       1  UNL1        0.2960
      6  C          6.5140    1.7660    0.7620 C.3     1  UNL1        0.0470
      7  C          7.1550    1.0250   -0.3240 C.2     1  UNL1       -0.0470
      8  C          8.4840    1.2200   -0.6190 C.2     1  UNL1        0.0040
      9  C          6.4120    0.1250   -1.0520 C.2     1  UNL1        0.0040
     10  C          9.0310    0.4770   -1.6680 C.2     1  UNL1        0.0000
     11  C          6.9540   -0.6080   -2.0890 C.2     1  UNL1        0.0000
     12  C          8.2850   -0.4190   -2.3910 C.2     1  UNL1        0.0000
@<TRIPOS>BOND
     1    12    11    2
     2    12    10    1
     3    11     9    1
     4    10     8    2
     5     9     7    2
     6     8     7    1
     7     7     6    1
     8     1     6    1
     9     1     2    1
    10     2     4    1
    11     2     3    2
    12     4     5    1
