@<TRIPOS>MOLECULE
/home/cewinharhar/GITHUB/reincatalyze/data/processed/docking_pred/2023-Apr-26-1657_maxeplen10_maxtrainstep1000_exh32_gamma099_lrac9e-4_lrcr1e-3/e3fbdfe9b196bdc40f83d7817e536621cd4b8c1b_ligand_2.pdbqt
 12 12 0 0 0
SMALL
GASTEIGER

@<TRIPOS>ATOM
      1  C          8.4290   -0.6210   -2.1430 C.3     1  UNL1        0.1270
      2  C          8.4700   -1.8960   -2.8980 C.2     1  UNL1        0.3030
      3  O          9.5540   -2.4990   -3.0980 O.2     1  UNL1       -0.2520
      4  O          7.3100   -2.4580   -3.4060 O.3     1  UNL1       -0.4810
      5  H          7.2600   -2.6880   -4.4020 H       1  UNL1        0.2960
      6  C          7.0130   -0.1330   -2.1200 C.3     1  UNL1        0.0470
      7  C          6.4680    0.0480   -0.7750 C.2     1  UNL1       -0.0470
      8  C          5.8410    1.2200   -0.4230 C.2     1  UNL1        0.0040
      9  C          6.5880   -0.9710    0.1410 C.2     1  UNL1        0.0040
     10  C          5.3440    1.3240    0.8780 C.2     1  UNL1        0.0000
     11  C          6.0960   -0.8670    1.4270 C.2     1  UNL1        0.0000
     12  C          5.4670    0.3040    1.7880 C.2     1  UNL1        0.0000
@<TRIPOS>BOND
     1     5     4    1
     2     4     2    1
     3     3     2    2
     4     2     1    1
     5     1     6    1
     6     6     7    1
     7     7     8    2
     8     7     9    1
     9     8    10    1
    10     9    11    2
    11    10    12    2
    12    11    12    1
