@<TRIPOS>MOLECULE
/home/cewinharhar/GITHUB/reincatalyze/data/processed/docking_pred/2023-Apr-26-1657_maxeplen10_maxtrainstep1000_exh32_gamma099_lrac9e-4_lrcr1e-3/e3fbdfe9b196bdc40f83d7817e536621cd4b8c1b_ligand_2.pdbqt
 12 12 0 0 0
SMALL
GASTEIGER

@<TRIPOS>ATOM
      1  C          8.1390    0.3060   -2.1860 C.3     1  UNL1        0.1270
      2  C          9.2960    0.3960   -1.2640 C.2     1  UNL1        0.3030
      3  O          9.4290   -0.4060   -0.3070 O.2     1  UNL1       -0.2520
      4  O         10.2650    1.3720   -1.4340 O.3     1  UNL1       -0.4810
      5  H         10.2500    1.9510   -2.2780 H       1  UNL1        0.2960
      6  C          7.0770   -0.5220   -1.5280 C.3     1  UNL1        0.0470
      7  C          6.3270    0.1880   -0.4930 C.2     1  UNL1       -0.0470
      8  C          5.7810    1.4250   -0.7430 C.2     1  UNL1        0.0040
      9  C          6.1690   -0.3980    0.7420 C.2     1  UNL1        0.0040
     10  C          5.0760    2.0440    0.2920 C.2     1  UNL1        0.0000
     11  C          5.4720    0.2150    1.7640 C.2     1  UNL1        0.0000
     12  C          4.9220    1.4550    1.5220 C.2     1  UNL1        0.0000
@<TRIPOS>BOND
     1     5     4    1
     2     1     6    1
     3     1     2    1
     4     6     7    1
     5     4     2    1
     6     2     3    2
     7     8     7    2
     8     8    10    1
     9     7     9    1
    10    10    12    2
    11     9    11    2
    12    12    11    1
