MODEL 1
REMARK VINA RESULT:      -7.4      0.000      0.000
REMARK SMILES O=C(O)CCc1ccccc1
REMARK SMILES IDX 4 1 2 2 1 3 3 4 5 6 6 7 7 8 11 9 8 10 10 11 9 12
REMARK H PARENT 3 5
REMARK Flexibility Score: inf
ROOT
ATOM      1  C   UNL     1       8.449  -0.602  -2.173  1.00  0.00     0.127 C 
ENDROOT
BRANCH   1   2
ATOM      2  C   UNL     1       8.488  -1.887  -2.911  1.00  0.00     0.303 C 
ATOM      3  O   UNL     1       9.569  -2.499  -3.095  1.00  0.00    -0.252 OA
BRANCH   2   4
ATOM      4  O   UNL     1       7.328  -2.448  -3.420  1.00  0.00    -0.481 OA
ATOM      5  H   UNL     1       6.431  -2.234  -2.975  1.00  0.00     0.296 HD
ENDBRANCH   2   4
ENDBRANCH   1   2
BRANCH   1   6
ATOM      6  C   UNL     1       7.030  -0.121  -2.140  1.00  0.00     0.047 C 
BRANCH   6   7
ATOM      7  C   UNL     1       6.488   0.039  -0.792  1.00  0.00    -0.047 A 
ATOM      8  C   UNL     1       6.622  -0.962   0.143  1.00  0.00     0.004 A 
ATOM      9  C   UNL     1       5.840   1.207  -0.462  1.00  0.00     0.004 A 
ATOM     10  C   UNL     1       6.081  -0.740   1.412  1.00  0.00     0.000 A 
ATOM     11  C   UNL     1       5.305   1.424   0.792  1.00  0.00     0.000 A 
ATOM     12  C   UNL     1       5.435   0.426   1.734  1.00  0.00     0.000 A 
ENDBRANCH   6   7
ENDBRANCH   1   6
TORSDOF 4
ENDMDL
MODEL 2
REMARK VINA RESULT:      -7.3      0.075      1.438
REMARK SMILES O=C(O)CCc1ccccc1
REMARK SMILES IDX 4 1 2 2 1 3 3 4 5 6 6 7 7 8 11 9 8 10 10 11 9 12
REMARK H PARENT 3 5
REMARK Flexibility Score: inf
ROOT
ATOM      1  C   UNL     1       8.429  -0.621  -2.143  1.00  0.00     0.127 C 
ENDROOT
BRANCH   1   2
ATOM      2  C   UNL     1       8.470  -1.896  -2.898  1.00  0.00     0.303 C 
ATOM      3  O   UNL     1       9.554  -2.499  -3.098  1.00  0.00    -0.252 OA
BRANCH   2   4
ATOM      4  O   UNL     1       7.310  -2.458  -3.406  1.00  0.00    -0.481 OA
ATOM      5  H   UNL     1       7.260  -2.688  -4.402  1.00  0.00     0.296 HD
ENDBRANCH   2   4
ENDBRANCH   1   2
BRANCH   1   6
ATOM      6  C   UNL     1       7.013  -0.133  -2.120  1.00  0.00     0.047 C 
BRANCH   6   7
ATOM      7  C   UNL     1       6.468   0.048  -0.775  1.00  0.00    -0.047 A 
ATOM      8  C   UNL     1       5.841   1.220  -0.423  1.00  0.00     0.004 A 
ATOM      9  C   UNL     1       6.588  -0.971   0.141  1.00  0.00     0.004 A 
ATOM     10  C   UNL     1       5.344   1.324   0.878  1.00  0.00     0.000 A 
ATOM     11  C   UNL     1       6.096  -0.867   1.427  1.00  0.00     0.000 A 
ATOM     12  C   UNL     1       5.467   0.304   1.788  1.00  0.00     0.000 A 
ENDBRANCH   6   7
ENDBRANCH   1   6
TORSDOF 4
ENDMDL
MODEL 3
REMARK VINA RESULT:      -6.8      3.375      5.073
REMARK SMILES O=C(O)CCc1ccccc1
REMARK SMILES IDX 4 1 2 2 1 3 3 4 5 6 6 7 7 8 11 9 8 10 10 11 9 12
REMARK H PARENT 3 5
REMARK Flexibility Score: inf
ROOT
ATOM      1  C   UNL     1       5.017   1.762   0.701  1.00  0.00     0.127 C 
ENDROOT
BRANCH   1   2
ATOM      2  C   UNL     1       4.503   1.097   1.922  1.00  0.00     0.303 C 
ATOM      3  O   UNL     1       5.167   0.204   2.505  1.00  0.00    -0.252 OA
BRANCH   2   4
ATOM      4  O   UNL     1       3.272   1.443   2.455  1.00  0.00    -0.481 OA
ATOM      5  H   UNL     1       2.616   0.704   2.723  1.00  0.00     0.296 HD
ENDBRANCH   2   4
ENDBRANCH   1   2
BRANCH   1   6
ATOM      6  C   UNL     1       6.514   1.766   0.762  1.00  0.00     0.047 C 
BRANCH   6   7
ATOM      7  C   UNL     1       7.155   1.025  -0.324  1.00  0.00    -0.047 A 
ATOM      8  C   UNL     1       8.484   1.220  -0.619  1.00  0.00     0.004 A 
ATOM      9  C   UNL     1       6.412   0.125  -1.052  1.00  0.00     0.004 A 
ATOM     10  C   UNL     1       9.031   0.477  -1.668  1.00  0.00     0.000 A 
ATOM     11  C   UNL     1       6.954  -0.608  -2.089  1.00  0.00     0.000 A 
ATOM     12  C   UNL     1       8.285  -0.419  -2.391  1.00  0.00     0.000 A 
ENDBRANCH   6   7
ENDBRANCH   1   6
TORSDOF 4
ENDMDL
MODEL 4
REMARK VINA RESULT:      -6.6      3.711      4.962
REMARK SMILES O=C(O)CCc1ccccc1
REMARK SMILES IDX 4 1 2 2 1 3 3 4 5 6 6 7 7 8 11 9 8 10 10 11 9 12
REMARK H PARENT 3 5
REMARK Flexibility Score: inf
ROOT
ATOM      1  C   UNL     1       5.331   2.983   0.055  1.00  0.00     0.127 C 
ENDROOT
BRANCH   1   2
ATOM      2  C   UNL     1       6.218   3.877   0.834  1.00  0.00     0.303 C 
ATOM      3  O   UNL     1       6.895   4.773   0.271  1.00  0.00    -0.252 OA
BRANCH   2   4
ATOM      4  O   UNL     1       6.327   3.749   2.209  1.00  0.00    -0.481 OA
ATOM      5  H   UNL     1       5.545   4.041   2.803  1.00  0.00     0.296 HD
ENDBRANCH   2   4
ENDBRANCH   1   2
BRANCH   1   6
ATOM      6  C   UNL     1       5.187   1.693   0.805  1.00  0.00     0.047 C 
BRANCH   6   7
ATOM      7  C   UNL     1       5.971   0.592   0.249  1.00  0.00    -0.047 A 
ATOM      8  C   UNL     1       6.364  -0.461   1.042  1.00  0.00     0.004 A 
ATOM      9  C   UNL     1       6.313   0.616  -1.083  1.00  0.00     0.004 A 
ATOM     10  C   UNL     1       7.111  -1.479   0.444  1.00  0.00     0.000 A 
ATOM     11  C   UNL     1       7.052  -0.391  -1.672  1.00  0.00     0.000 A 
ATOM     12  C   UNL     1       7.450  -1.449  -0.885  1.00  0.00     0.000 A 
ENDBRANCH   6   7
ENDBRANCH   1   6
TORSDOF 4
ENDMDL
MODEL 5
REMARK VINA RESULT:      -6.6      1.902      2.605
REMARK SMILES O=C(O)CCc1ccccc1
REMARK SMILES IDX 4 1 2 2 1 3 3 4 5 6 6 7 7 8 11 9 8 10 10 11 9 12
REMARK H PARENT 3 5
REMARK Flexibility Score: inf
ROOT
ATOM      1  C   UNL     1       8.139   0.306  -2.186  1.00  0.00     0.127 C 
ENDROOT
BRANCH   1   2
ATOM      2  C   UNL     1       9.296   0.396  -1.264  1.00  0.00     0.303 C 
ATOM      3  O   UNL     1       9.429  -0.406  -0.307  1.00  0.00    -0.252 OA
BRANCH   2   4
ATOM      4  O   UNL     1      10.265   1.372  -1.434  1.00  0.00    -0.481 OA
ATOM      5  H   UNL     1      10.250   1.951  -2.278  1.00  0.00     0.296 HD
ENDBRANCH   2   4
ENDBRANCH   1   2
BRANCH   1   6
ATOM      6  C   UNL     1       7.077  -0.522  -1.528  1.00  0.00     0.047 C 
BRANCH   6   7
ATOM      7  C   UNL     1       6.327   0.188  -0.493  1.00  0.00    -0.047 A 
ATOM      8  C   UNL     1       5.781   1.425  -0.743  1.00  0.00     0.004 A 
ATOM      9  C   UNL     1       6.169  -0.398   0.742  1.00  0.00     0.004 A 
ATOM     10  C   UNL     1       5.076   2.044   0.292  1.00  0.00     0.000 A 
ATOM     11  C   UNL     1       5.472   0.215   1.764  1.00  0.00     0.000 A 
ATOM     12  C   UNL     1       4.922   1.455   1.522  1.00  0.00     0.000 A 
ENDBRANCH   6   7
ENDBRANCH   1   6
TORSDOF 4
ENDMDL
