@<TRIPOS>MOLECULE
/home/cewinharhar/GITHUB/reincatalyze/data/processed/docking_pred/2023-Apr-26-1657_maxeplen10_maxtrainstep1000_exh32_gamma099_lrac9e-4_lrcr1e-3/e3fbdfe9b196bdc40f83d7817e536621cd4b8c1b_ligand_2.pdbqt
 12 12 0 0 0
SMALL
GASTEIGER

@<TRIPOS>ATOM
      1  C          8.4490   -0.6020   -2.1730 C.3     1  UNL1        0.1270
      2  C          8.4880   -1.8870   -2.9110 C.2     1  UNL1        0.3030
      3  O          9.5690   -2.4990   -3.0950 O.2     1  UNL1       -0.2520
      4  O          7.3280   -2.4480   -3.4200 O.3     1  UNL1       -0.4810
      5  H          6.4310   -2.2340   -2.9750 H       1  UNL1        0.2960
      6  C          7.0300   -0.1210   -2.1400 C.3     1  UNL1        0.0470
      7  C          6.4880    0.0390   -0.7920 C.2     1  UNL1       -0.0470
      8  C          6.6220   -0.9620    0.1430 C.2     1  UNL1        0.0040
      9  C          5.8400    1.2070   -0.4620 C.2     1  UNL1        0.0040
     10  C          6.0810   -0.7400    1.4120 C.2     1  UNL1        0.0000
     11  C          5.3050    1.4240    0.7920 C.2     1  UNL1        0.0000
     12  C          5.4350    0.4260    1.7340 C.2     1  UNL1        0.0000
@<TRIPOS>BOND
     1     4     5    1
     2     4     2    1
     3     3     2    2
     4     2     1    1
     5     1     6    1
     6     6     7    1
     7     7     9    2
     8     7     8    1
     9     9    11    1
    10     8    10    2
    11    11    12    2
    12    10    12    1
