@<TRIPOS>MOLECULE
/home/cewinharhar/GITHUB/reincatalyze/data/processed/docking_pred/2023-Apr-26-1657_maxeplen10_maxtrainstep1000_exh32_gamma099_lrac9e-4_lrcr1e-3/e4036567ae6c7c824a0e93db279f74886267d276_ligand_2.pdbqt
 12 12 0 0 0
SMALL
GASTEIGER

@<TRIPOS>ATOM
      1  C          8.4120   -0.6980   -2.0230 C.3     1  UNL1        0.1270
      2  C          8.3740   -1.9140   -2.8700 C.2     1  UNL1        0.3030
      3  O          7.2840   -2.4090   -3.2490 O.2     1  UNL1       -0.2520
      4  O          9.5450   -2.5390   -3.2680 O.3     1  UNL1       -0.4810
      5  H         10.3130   -2.6370   -2.5980 H       1  UNL1        0.2960
      6  C          7.0520   -0.0700   -2.0400 C.3     1  UNL1        0.0470
      7  C          6.4620    0.1070   -0.7130 C.2     1  UNL1       -0.0470
      8  C          5.8020    1.2680   -0.3870 C.2     1  UNL1        0.0040
      9  C          6.5730   -0.9060    0.2110 C.2     1  UNL1        0.0040
     10  C          5.2630    1.3680    0.8980 C.2     1  UNL1        0.0000
     11  C          6.0400   -0.8050    1.4810 C.2     1  UNL1        0.0000
     12  C          5.3770    0.3550    1.8160 C.2     1  UNL1        0.0000
@<TRIPOS>BOND
     1     4     2    1
     2     4     5    1
     3     3     2    2
     4     2     1    1
     5     6     1    1
     6     6     7    1
     7     7     8    2
     8     7     9    1
     9     8    10    1
    10     9    11    2
    11    10    12    2
    12    11    12    1
