@<TRIPOS>MOLECULE
/home/cewinharhar/GITHUB/reincatalyze/data/processed/docking_pred/2023-Apr-26-1657_maxeplen10_maxtrainstep1000_exh32_gamma099_lrac9e-4_lrcr1e-3/e4036567ae6c7c824a0e93db279f74886267d276_ligand_2.pdbqt
 12 12 0 0 0
SMALL
GASTEIGER

@<TRIPOS>ATOM
      1  C          8.1520    0.2400   -2.0710 C.3     1  UNL1        0.1270
      2  C          9.3440    0.3520   -1.1970 C.2     1  UNL1        0.3030
      3  O          9.4860   -0.3890   -0.1930 O.2     1  UNL1       -0.2520
      4  O         10.3360    1.2810   -1.4650 O.3     1  UNL1       -0.4810
      5  H         10.7120    1.3520   -2.4140 H       1  UNL1        0.2960
      6  C          7.1400   -0.6220   -1.3800 C.3     1  UNL1        0.0470
      7  C          6.3520    0.0800   -0.3690 C.2     1  UNL1       -0.0470
      8  C          6.1450   -0.4750    0.8720 C.2     1  UNL1        0.0040
      9  C          5.8170    1.3110   -0.6710 C.2     1  UNL1        0.0040
     10  C          5.3820    0.2520    1.7890 C.2     1  UNL1        0.0000
     11  C          5.0640    2.0290    0.2370 C.2     1  UNL1        0.0000
     12  C          4.8510    1.4790    1.4820 C.2     1  UNL1        0.0000
@<TRIPOS>BOND
     1     5     4    1
     2     1     6    1
     3     1     2    1
     4     4     2    1
     5     6     7    1
     6     2     3    2
     7     9     7    2
     8     9    11    1
     9     7     8    1
    10    11    12    2
    11     8    10    2
    12    12    10    1
