@<TRIPOS>MOLECULE
/home/cewinharhar/GITHUB/reincatalyze/data/processed/docking_pred/2023-Apr-26-1657_maxeplen10_maxtrainstep1000_exh32_gamma099_lrac9e-4_lrcr1e-3/e4036567ae6c7c824a0e93db279f74886267d276_ligand_2.pdbqt
 12 12 0 0 0
SMALL
GASTEIGER

@<TRIPOS>ATOM
      1  C          8.4340   -0.6510   -2.0860 C.3     1  UNL1        0.1270
      2  C          8.3880   -1.8980   -2.8840 C.2     1  UNL1        0.3030
      3  O          7.2950   -2.4100   -3.2300 O.2     1  UNL1       -0.2520
      4  O          9.5550   -2.5360   -3.2720 O.3     1  UNL1       -0.4810
      5  H         10.4440   -2.0310   -3.2190 H       1  UNL1        0.2960
      6  C          7.0630   -0.0460   -2.0780 C.3     1  UNL1        0.0470
      7  C          6.4840    0.0980   -0.7430 C.2     1  UNL1       -0.0470
      8  C          6.6130   -0.9030    0.1910 C.2     1  UNL1        0.0040
      9  C          5.8070    1.2530   -0.4270 C.2     1  UNL1        0.0040
     10  C          6.0350   -0.6970    1.4460 C.2     1  UNL1        0.0000
     11  C          5.2360    1.4550    0.8140 C.2     1  UNL1        0.0000
     12  C          5.3600    0.4560    1.7560 C.2     1  UNL1        0.0000
@<TRIPOS>BOND
     1     4     5    1
     2     4     2    1
     3     3     2    2
     4     2     1    1
     5     1     6    1
     6     6     7    1
     7     7     9    2
     8     7     8    1
     9     9    11    1
    10     8    10    2
    11    11    12    2
    12    10    12    1
