MODEL 1
REMARK VINA RESULT:      -7.3      0.000      0.000
REMARK SMILES O=C(O)CCc1ccccc1
REMARK SMILES IDX 4 1 2 2 1 3 3 4 5 6 6 7 7 8 11 9 8 10 10 11 9 12
REMARK H PARENT 3 5
REMARK Flexibility Score: inf
ROOT
ATOM      1  C   UNL     1       8.412  -0.698  -2.023  1.00  0.00     0.127 C 
ENDROOT
BRANCH   1   2
ATOM      2  C   UNL     1       8.374  -1.914  -2.870  1.00  0.00     0.303 C 
ATOM      3  O   UNL     1       7.284  -2.409  -3.249  1.00  0.00    -0.252 OA
BRANCH   2   4
ATOM      4  O   UNL     1       9.545  -2.539  -3.268  1.00  0.00    -0.481 OA
ATOM      5  H   UNL     1      10.313  -2.637  -2.598  1.00  0.00     0.296 HD
ENDBRANCH   2   4
ENDBRANCH   1   2
BRANCH   1   6
ATOM      6  C   UNL     1       7.052  -0.070  -2.040  1.00  0.00     0.047 C 
BRANCH   6   7
ATOM      7  C   UNL     1       6.462   0.107  -0.713  1.00  0.00    -0.047 A 
ATOM      8  C   UNL     1       5.802   1.268  -0.387  1.00  0.00     0.004 A 
ATOM      9  C   UNL     1       6.573  -0.906   0.211  1.00  0.00     0.004 A 
ATOM     10  C   UNL     1       5.263   1.368   0.898  1.00  0.00     0.000 A 
ATOM     11  C   UNL     1       6.040  -0.805   1.481  1.00  0.00     0.000 A 
ATOM     12  C   UNL     1       5.377   0.355   1.816  1.00  0.00     0.000 A 
ENDBRANCH   6   7
ENDBRANCH   1   6
TORSDOF 4
ENDMDL
MODEL 2
REMARK VINA RESULT:      -7.3      0.072      1.438
REMARK SMILES O=C(O)CCc1ccccc1
REMARK SMILES IDX 4 1 2 2 1 3 3 4 5 6 6 7 7 8 11 9 8 10 10 11 9 12
REMARK H PARENT 3 5
REMARK Flexibility Score: inf
ROOT
ATOM      1  C   UNL     1       8.434  -0.651  -2.086  1.00  0.00     0.127 C 
ENDROOT
BRANCH   1   2
ATOM      2  C   UNL     1       8.388  -1.898  -2.884  1.00  0.00     0.303 C 
ATOM      3  O   UNL     1       7.295  -2.410  -3.230  1.00  0.00    -0.252 OA
BRANCH   2   4
ATOM      4  O   UNL     1       9.555  -2.536  -3.272  1.00  0.00    -0.481 OA
ATOM      5  H   UNL     1      10.444  -2.031  -3.219  1.00  0.00     0.296 HD
ENDBRANCH   2   4
ENDBRANCH   1   2
BRANCH   1   6
ATOM      6  C   UNL     1       7.063  -0.046  -2.078  1.00  0.00     0.047 C 
BRANCH   6   7
ATOM      7  C   UNL     1       6.484   0.098  -0.743  1.00  0.00    -0.047 A 
ATOM      8  C   UNL     1       6.613  -0.903   0.191  1.00  0.00     0.004 A 
ATOM      9  C   UNL     1       5.807   1.253  -0.427  1.00  0.00     0.004 A 
ATOM     10  C   UNL     1       6.035  -0.697   1.446  1.00  0.00     0.000 A 
ATOM     11  C   UNL     1       5.236   1.455   0.814  1.00  0.00     0.000 A 
ATOM     12  C   UNL     1       5.360   0.456   1.756  1.00  0.00     0.000 A 
ENDBRANCH   6   7
ENDBRANCH   1   6
TORSDOF 4
ENDMDL
MODEL 3
REMARK VINA RESULT:      -7.1      0.623      1.866
REMARK SMILES O=C(O)CCc1ccccc1
REMARK SMILES IDX 4 1 2 2 1 3 3 4 5 6 6 7 7 8 11 9 8 10 10 11 9 12
REMARK H PARENT 3 5
REMARK Flexibility Score: inf
ROOT
ATOM      1  C   UNL     1       7.961  -0.774  -2.061  1.00  0.00     0.127 C 
ENDROOT
BRANCH   1   2
ATOM      2  C   UNL     1       8.244  -1.962  -2.900  1.00  0.00     0.303 C 
ATOM      3  O   UNL     1       9.401  -2.445  -2.977  1.00  0.00    -0.252 OA
BRANCH   2   4
ATOM      4  O   UNL     1       7.235  -2.575  -3.626  1.00  0.00    -0.481 OA
ATOM      5  H   UNL     1       6.850  -2.100  -4.447  1.00  0.00     0.296 HD
ENDBRANCH   2   4
ENDBRANCH   1   2
BRANCH   1   6
ATOM      6  C   UNL     1       7.338  -1.240  -0.780  1.00  0.00     0.047 C 
BRANCH   6   7
ATOM      7  C   UNL     1       6.507  -0.234  -0.122  1.00  0.00    -0.047 A 
ATOM      8  C   UNL     1       6.072  -0.416   1.170  1.00  0.00     0.004 A 
ATOM      9  C   UNL     1       6.163   0.906  -0.811  1.00  0.00     0.004 A 
ATOM     10  C   UNL     1       5.282   0.587   1.735  1.00  0.00     0.000 A 
ATOM     11  C   UNL     1       5.381   1.897  -0.250  1.00  0.00     0.000 A 
ATOM     12  C   UNL     1       4.940   1.722   1.043  1.00  0.00     0.000 A 
ENDBRANCH   6   7
ENDBRANCH   1   6
TORSDOF 4
ENDMDL
MODEL 4
REMARK VINA RESULT:      -6.8      3.316      5.166
REMARK SMILES O=C(O)CCc1ccccc1
REMARK SMILES IDX 4 1 2 2 1 3 3 4 5 6 6 7 7 8 11 9 8 10 10 11 9 12
REMARK H PARENT 3 5
REMARK Flexibility Score: inf
ROOT
ATOM      1  C   UNL     1       5.037   1.782   0.737  1.00  0.00     0.127 C 
ENDROOT
BRANCH   1   2
ATOM      2  C   UNL     1       4.483   1.104   1.933  1.00  0.00     0.303 C 
ATOM      3  O   UNL     1       5.113   0.183   2.509  1.00  0.00    -0.252 OA
BRANCH   2   4
ATOM      4  O   UNL     1       3.251   1.470   2.450  1.00  0.00    -0.481 OA
ATOM      5  H   UNL     1       3.209   1.955   3.350  1.00  0.00     0.296 HD
ENDBRANCH   2   4
ENDBRANCH   1   2
BRANCH   1   6
ATOM      6  C   UNL     1       6.532   1.695   0.797  1.00  0.00     0.047 C 
BRANCH   6   7
ATOM      7  C   UNL     1       7.128   0.951  -0.311  1.00  0.00    -0.047 A 
ATOM      8  C   UNL     1       6.411  -0.016  -0.977  1.00  0.00     0.004 A 
ATOM      9  C   UNL     1       8.422   1.229  -0.687  1.00  0.00     0.004 A 
ATOM     10  C   UNL     1       7.044  -0.686  -2.026  1.00  0.00     0.000 A 
ATOM     11  C   UNL     1       9.047   0.565  -1.724  1.00  0.00     0.000 A 
ATOM     12  C   UNL     1       8.335  -0.405  -2.396  1.00  0.00     0.000 A 
ENDBRANCH   6   7
ENDBRANCH   1   6
TORSDOF 4
ENDMDL
MODEL 5
REMARK VINA RESULT:      -6.6      1.940      2.571
REMARK SMILES O=C(O)CCc1ccccc1
REMARK SMILES IDX 4 1 2 2 1 3 3 4 5 6 6 7 7 8 11 9 8 10 10 11 9 12
REMARK H PARENT 3 5
REMARK Flexibility Score: inf
ROOT
ATOM      1  C   UNL     1       8.152   0.240  -2.071  1.00  0.00     0.127 C 
ENDROOT
BRANCH   1   2
ATOM      2  C   UNL     1       9.344   0.352  -1.197  1.00  0.00     0.303 C 
ATOM      3  O   UNL     1       9.486  -0.389  -0.193  1.00  0.00    -0.252 OA
BRANCH   2   4
ATOM      4  O   UNL     1      10.336   1.281  -1.465  1.00  0.00    -0.481 OA
ATOM      5  H   UNL     1      10.712   1.352  -2.414  1.00  0.00     0.296 HD
ENDBRANCH   2   4
ENDBRANCH   1   2
BRANCH   1   6
ATOM      6  C   UNL     1       7.140  -0.622  -1.380  1.00  0.00     0.047 C 
BRANCH   6   7
ATOM      7  C   UNL     1       6.352   0.080  -0.369  1.00  0.00    -0.047 A 
ATOM      8  C   UNL     1       6.145  -0.475   0.872  1.00  0.00     0.004 A 
ATOM      9  C   UNL     1       5.817   1.311  -0.671  1.00  0.00     0.004 A 
ATOM     10  C   UNL     1       5.382   0.252   1.789  1.00  0.00     0.000 A 
ATOM     11  C   UNL     1       5.064   2.029   0.237  1.00  0.00     0.000 A 
ATOM     12  C   UNL     1       4.851   1.479   1.482  1.00  0.00     0.000 A 
ENDBRANCH   6   7
ENDBRANCH   1   6
TORSDOF 4
ENDMDL
