@<TRIPOS>MOLECULE
/home/cewinharhar/GITHUB/reincatalyze/data/processed/docking_pred/2023-Apr-26-1657_maxeplen10_maxtrainstep1000_exh32_gamma099_lrac9e-4_lrcr1e-3/e4036567ae6c7c824a0e93db279f74886267d276_ligand_2.pdbqt
 12 12 0 0 0
SMALL
GASTEIGER

@<TRIPOS>ATOM
      1  C          5.0370    1.7820    0.7370 C.3     1  UNL1        0.1270
      2  C          4.4830    1.1040    1.9330 C.2     1  UNL1        0.3030
      3  O          5.1130    0.1830    2.5090 O.2     1  UNL1       -0.2520
      4  O          3.2510    1.4700    2.4500 O.3     1  UNL1       -0.4810
      5  H          3.2090    1.9550    3.3500 H       1  UNL1        0.2960
      6  C          6.5320    1.6950    0.7970 C.3     1  UNL1        0.0470
      7  C          7.1280    0.9510   -0.3110 C.2     1  UNL1       -0.0470
      8  C          6.4110   -0.0160   -0.9770 C.2     1  UNL1        0.0040
      9  C          8.4220    1.2290   -0.6870 C.2     1  UNL1        0.0040
     10  C          7.0440   -0.6860   -2.0260 C.2     1  UNL1        0.0000
     11  C          9.0470    0.5650   -1.7240 C.2     1  UNL1        0.0000
     12  C          8.3350   -0.4050   -2.3960 C.2     1  UNL1        0.0000
@<TRIPOS>BOND
     1    12    10    2
     2    12    11    1
     3    10     8    1
     4    11     9    2
     5     8     7    2
     6     9     7    1
     7     7     6    1
     8     1     6    1
     9     1     2    1
    10     2     4    1
    11     2     3    2
    12     4     5    1
