@<TRIPOS>MOLECULE
/home/cewinharhar/GITHUB/reincatalyze/data/processed/docking_pred/2023-Apr-26-1657_maxeplen10_maxtrainstep1000_exh32_gamma099_lrac9e-4_lrcr1e-3/e4036567ae6c7c824a0e93db279f74886267d276_ligand_2.pdbqt
 12 12 0 0 0
SMALL
GASTEIGER

@<TRIPOS>ATOM
      1  C          7.9610   -0.7740   -2.0610 C.3     1  UNL1        0.1270
      2  C          8.2440   -1.9620   -2.9000 C.2     1  UNL1        0.3030
      3  O          9.4010   -2.4450   -2.9770 O.2     1  UNL1       -0.2520
      4  O          7.2350   -2.5750   -3.6260 O.3     1  UNL1       -0.4810
      5  H          6.8500   -2.1000   -4.4470 H       1  UNL1        0.2960
      6  C          7.3380   -1.2400   -0.7800 C.3     1  UNL1        0.0470
      7  C          6.5070   -0.2340   -0.1220 C.2     1  UNL1       -0.0470
      8  C          6.0720   -0.4160    1.1700 C.2     1  UNL1        0.0040
      9  C          6.1630    0.9060   -0.8110 C.2     1  UNL1        0.0040
     10  C          5.2820    0.5870    1.7350 C.2     1  UNL1        0.0000
     11  C          5.3810    1.8970   -0.2500 C.2     1  UNL1        0.0000
     12  C          4.9400    1.7220    1.0430 C.2     1  UNL1        0.0000
@<TRIPOS>BOND
     1     5     4    1
     2     4     2    1
     3     3     2    2
     4     2     1    1
     5     1     6    1
     6     9    11    1
     7     9     7    2
     8     6     7    1
     9    11    12    2
    10     7     8    1
    11    12    10    1
    12     8    10    2
