@<TRIPOS>MOLECULE
/home/cewinharhar/GITHUB/reincatalyze/data/processed/docking_pred/2023-Apr-26-1657_maxeplen10_maxtrainstep1000_exh32_gamma099_lrac9e-4_lrcr1e-3/e5153a6a2872aa0f73be7da8df97a591d10f8a10_ligand_2.pdbqt
 12 12 0 0 0
SMALL
GASTEIGER

@<TRIPOS>ATOM
      1  C          4.9850    1.8020    0.6960 C.3     1  UNL1        0.1270
      2  C          4.4820    1.1200    1.9120 C.2     1  UNL1        0.3030
      3  O          5.1520    0.2200    2.4770 O.2     1  UNL1       -0.2520
      4  O          3.2550    1.4570    2.4590 O.3     1  UNL1       -0.4810
      5  H          2.6380    2.0950    1.9490 H       1  UNL1        0.2960
      6  C          6.4830    1.8010    0.7410 C.3     1  UNL1        0.0470
      7  C          7.1100    1.0480   -0.3430 C.2     1  UNL1       -0.0470
      8  C          6.3770    0.1650   -1.1020 C.2     1  UNL1        0.0040
      9  C          8.4490    1.2330   -0.6030 C.2     1  UNL1        0.0040
     10  C          7.0420   -0.5190   -2.1230 C.2     1  UNL1        0.0000
     11  C          9.1040    0.5550   -1.6120 C.2     1  UNL1        0.0000
     12  C          8.3770   -0.3320   -2.3760 C.2     1  UNL1        0.0000
@<TRIPOS>BOND
     1    12    10    2
     2    12    11    1
     3    10     8    1
     4    11     9    2
     5     8     7    2
     6     9     7    1
     7     7     6    1
     8     1     6    1
     9     1     2    1
    10     2     4    1
    11     2     3    2
    12     5     4    1
