MODEL 1
REMARK VINA RESULT:      -7.4      0.000      0.000
REMARK SMILES O=C(O)CCc1ccccc1
REMARK SMILES IDX 4 1 2 2 1 3 3 4 5 6 6 7 7 8 11 9 8 10 10 11 9 12
REMARK H PARENT 3 5
REMARK Flexibility Score: inf
ROOT
ATOM      1  C   UNL     1       8.435  -0.602  -2.166  1.00  0.00     0.127 C 
ENDROOT
BRANCH   1   2
ATOM      2  C   UNL     1       8.477  -1.885  -2.906  1.00  0.00     0.303 C 
ATOM      3  O   UNL     1       9.559  -2.495  -3.090  1.00  0.00    -0.252 OA
BRANCH   2   4
ATOM      4  O   UNL     1       7.318  -2.447  -3.417  1.00  0.00    -0.481 OA
ATOM      5  H   UNL     1       6.459  -1.890  -3.442  1.00  0.00     0.296 HD
ENDBRANCH   2   4
ENDBRANCH   1   2
BRANCH   1   6
ATOM      6  C   UNL     1       7.016  -0.123  -2.132  1.00  0.00     0.047 C 
BRANCH   6   7
ATOM      7  C   UNL     1       6.476   0.043  -0.784  1.00  0.00    -0.047 A 
ATOM      8  C   UNL     1       6.600  -0.958   0.151  1.00  0.00     0.004 A 
ATOM      9  C   UNL     1       5.840   1.218  -0.455  1.00  0.00     0.004 A 
ATOM     10  C   UNL     1       6.061  -0.731   1.420  1.00  0.00     0.000 A 
ATOM     11  C   UNL     1       5.308   1.441   0.799  1.00  0.00     0.000 A 
ATOM     12  C   UNL     1       5.427   0.443   1.742  1.00  0.00     0.000 A 
ENDBRANCH   6   7
ENDBRANCH   1   6
TORSDOF 4
ENDMDL
MODEL 2
REMARK VINA RESULT:      -7.3      0.046      1.437
REMARK SMILES O=C(O)CCc1ccccc1
REMARK SMILES IDX 4 1 2 2 1 3 3 4 5 6 6 7 7 8 11 9 8 10 10 11 9 12
REMARK H PARENT 3 5
REMARK Flexibility Score: inf
ROOT
ATOM      1  C   UNL     1       8.432  -0.647  -2.134  1.00  0.00     0.127 C 
ENDROOT
BRANCH   1   2
ATOM      2  C   UNL     1       8.474  -1.908  -2.912  1.00  0.00     0.303 C 
ATOM      3  O   UNL     1       9.553  -2.522  -3.099  1.00  0.00    -0.252 OA
BRANCH   2   4
ATOM      4  O   UNL     1       7.319  -2.444  -3.458  1.00  0.00    -0.481 OA
ATOM      5  H   UNL     1       7.362  -2.902  -4.372  1.00  0.00     0.296 HD
ENDBRANCH   2   4
ENDBRANCH   1   2
BRANCH   1   6
ATOM      6  C   UNL     1       7.021  -0.143  -2.130  1.00  0.00     0.047 C 
BRANCH   6   7
ATOM      7  C   UNL     1       6.470   0.070  -0.793  1.00  0.00    -0.047 A 
ATOM      8  C   UNL     1       5.827   1.244  -0.476  1.00  0.00     0.004 A 
ATOM      9  C   UNL     1       6.598  -0.921   0.153  1.00  0.00     0.004 A 
ATOM     10  C   UNL     1       5.324   1.379   0.820  1.00  0.00     0.000 A 
ATOM     11  C   UNL     1       6.101  -0.786   1.434  1.00  0.00     0.000 A 
ATOM     12  C   UNL     1       5.456   0.388   1.759  1.00  0.00     0.000 A 
ENDBRANCH   6   7
ENDBRANCH   1   6
TORSDOF 4
ENDMDL
MODEL 3
REMARK VINA RESULT:      -7.2      0.661      1.103
REMARK SMILES O=C(O)CCc1ccccc1
REMARK SMILES IDX 4 1 2 2 1 3 3 4 5 6 6 7 7 8 11 9 8 10 10 11 9 12
REMARK H PARENT 3 5
REMARK Flexibility Score: inf
ROOT
ATOM      1  C   UNL     1       8.308  -1.005  -1.736  1.00  0.00     0.127 C 
ENDROOT
BRANCH   1   2
ATOM      2  C   UNL     1       8.417  -2.037  -2.794  1.00  0.00     0.303 C 
ATOM      3  O   UNL     1       9.531  -2.511  -3.129  1.00  0.00    -0.252 OA
BRANCH   2   4
ATOM      4  O   UNL     1       7.288  -2.508  -3.445  1.00  0.00    -0.481 OA
ATOM      5  H   UNL     1       6.363  -2.227  -3.110  1.00  0.00     0.296 HD
ENDBRANCH   2   4
ENDBRANCH   1   2
BRANCH   1   6
ATOM      6  C   UNL     1       7.290  -1.461  -0.737  1.00  0.00     0.047 C 
BRANCH   6   7
ATOM      7  C   UNL     1       6.516  -0.374  -0.138  1.00  0.00    -0.047 A 
ATOM      8  C   UNL     1       6.093  -0.449   1.169  1.00  0.00     0.004 A 
ATOM      9  C   UNL     1       6.215   0.733  -0.897  1.00  0.00     0.004 A 
ATOM     10  C   UNL     1       5.360   0.626   1.675  1.00  0.00     0.000 A 
ATOM     11  C   UNL     1       5.489   1.794  -0.395  1.00  0.00     0.000 A 
ATOM     12  C   UNL     1       5.061   1.727   0.913  1.00  0.00     0.000 A 
ENDBRANCH   6   7
ENDBRANCH   1   6
TORSDOF 4
ENDMDL
MODEL 4
REMARK VINA RESULT:      -6.8      3.377      5.068
REMARK SMILES O=C(O)CCc1ccccc1
REMARK SMILES IDX 4 1 2 2 1 3 3 4 5 6 6 7 7 8 11 9 8 10 10 11 9 12
REMARK H PARENT 3 5
REMARK Flexibility Score: inf
ROOT
ATOM      1  C   UNL     1       4.985   1.802   0.696  1.00  0.00     0.127 C 
ENDROOT
BRANCH   1   2
ATOM      2  C   UNL     1       4.482   1.120   1.912  1.00  0.00     0.303 C 
ATOM      3  O   UNL     1       5.152   0.220   2.477  1.00  0.00    -0.252 OA
BRANCH   2   4
ATOM      4  O   UNL     1       3.255   1.457   2.459  1.00  0.00    -0.481 OA
ATOM      5  H   UNL     1       2.638   2.095   1.949  1.00  0.00     0.296 HD
ENDBRANCH   2   4
ENDBRANCH   1   2
BRANCH   1   6
ATOM      6  C   UNL     1       6.483   1.801   0.741  1.00  0.00     0.047 C 
BRANCH   6   7
ATOM      7  C   UNL     1       7.110   1.048  -0.343  1.00  0.00    -0.047 A 
ATOM      8  C   UNL     1       6.377   0.165  -1.102  1.00  0.00     0.004 A 
ATOM      9  C   UNL     1       8.449   1.233  -0.603  1.00  0.00     0.004 A 
ATOM     10  C   UNL     1       7.042  -0.519  -2.123  1.00  0.00     0.000 A 
ATOM     11  C   UNL     1       9.104   0.555  -1.612  1.00  0.00     0.000 A 
ATOM     12  C   UNL     1       8.377  -0.332  -2.376  1.00  0.00     0.000 A 
ENDBRANCH   6   7
ENDBRANCH   1   6
TORSDOF 4
ENDMDL
MODEL 5
REMARK VINA RESULT:      -6.7      3.831      4.924
REMARK SMILES O=C(O)CCc1ccccc1
REMARK SMILES IDX 4 1 2 2 1 3 3 4 5 6 6 7 7 8 11 9 8 10 10 11 9 12
REMARK H PARENT 3 5
REMARK Flexibility Score: inf
ROOT
ATOM      1  C   UNL     1       5.441   2.903  -0.005  1.00  0.00     0.127 C 
ENDROOT
BRANCH   1   2
ATOM      2  C   UNL     1       6.249   3.852   0.797  1.00  0.00     0.303 C 
ATOM      3  O   UNL     1       6.901   4.775   0.249  1.00  0.00    -0.252 OA
BRANCH   2   4
ATOM      4  O   UNL     1       6.308   3.746   2.177  1.00  0.00    -0.481 OA
ATOM      5  H   UNL     1       6.814   4.456   2.713  1.00  0.00     0.296 HD
ENDBRANCH   2   4
ENDBRANCH   1   2
BRANCH   1   6
ATOM      6  C   UNL     1       4.873   1.870   0.921  1.00  0.00     0.047 C 
BRANCH   6   7
ATOM      7  C   UNL     1       5.640   0.627   0.966  1.00  0.00    -0.047 A 
ATOM      8  C   UNL     1       5.682  -0.132   2.113  1.00  0.00     0.004 A 
ATOM      9  C   UNL     1       6.322   0.217  -0.156  1.00  0.00     0.004 A 
ATOM     10  C   UNL     1       6.434  -1.309   2.084  1.00  0.00     0.000 A 
ATOM     11  C   UNL     1       7.065  -0.946  -0.183  1.00  0.00     0.000 A 
ATOM     12  C   UNL     1       7.113  -1.712   0.962  1.00  0.00     0.000 A 
ENDBRANCH   6   7
ENDBRANCH   1   6
TORSDOF 4
ENDMDL
