@<TRIPOS>MOLECULE
/home/cewinharhar/GITHUB/reincatalyze/data/processed/docking_pred/2023-Apr-26-1657_maxeplen10_maxtrainstep1000_exh32_gamma099_lrac9e-4_lrcr1e-3/e5153a6a2872aa0f73be7da8df97a591d10f8a10_ligand_2.pdbqt
 12 12 0 0 0
SMALL
GASTEIGER

@<TRIPOS>ATOM
      1  C          8.4320   -0.6470   -2.1340 C.3     1  UNL1        0.1270
      2  C          8.4740   -1.9080   -2.9120 C.2     1  UNL1        0.3030
      3  O          9.5530   -2.5220   -3.0990 O.2     1  UNL1       -0.2520
      4  O          7.3190   -2.4440   -3.4580 O.3     1  UNL1       -0.4810
      5  H          7.3620   -2.9020   -4.3720 H       1  UNL1        0.2960
      6  C          7.0210   -0.1430   -2.1300 C.3     1  UNL1        0.0470
      7  C          6.4700    0.0700   -0.7930 C.2     1  UNL1       -0.0470
      8  C          5.8270    1.2440   -0.4760 C.2     1  UNL1        0.0040
      9  C          6.5980   -0.9210    0.1530 C.2     1  UNL1        0.0040
     10  C          5.3240    1.3790    0.8200 C.2     1  UNL1        0.0000
     11  C          6.1010   -0.7860    1.4340 C.2     1  UNL1        0.0000
     12  C          5.4560    0.3880    1.7590 C.2     1  UNL1        0.0000
@<TRIPOS>BOND
     1     5     4    1
     2     4     2    1
     3     3     2    2
     4     2     1    1
     5     1     6    1
     6     6     7    1
     7     7     8    2
     8     7     9    1
     9     8    10    1
    10     9    11    2
    11    10    12    2
    12    11    12    1
