@<TRIPOS>MOLECULE
/home/cewinharhar/GITHUB/reincatalyze/data/processed/docking_pred/2023-Apr-26-1657_maxeplen10_maxtrainstep1000_exh32_gamma099_lrac9e-4_lrcr1e-3/e5153a6a2872aa0f73be7da8df97a591d10f8a10_ligand_2.pdbqt
 12 12 0 0 0
SMALL
GASTEIGER

@<TRIPOS>ATOM
      1  C          5.4410    2.9030   -0.0050 C.3     1  UNL1        0.1270
      2  C          6.2490    3.8520    0.7970 C.2     1  UNL1        0.3030
      3  O          6.9010    4.7750    0.2490 O.2     1  UNL1       -0.2520
      4  O          6.3080    3.7460    2.1770 O.3     1  UNL1       -0.4810
      5  H          6.8140    4.4560    2.7130 H       1  UNL1        0.2960
      6  C          4.8730    1.8700    0.9210 C.3     1  UNL1        0.0470
      7  C          5.6400    0.6270    0.9660 C.2     1  UNL1       -0.0470
      8  C          5.6820   -0.1320    2.1130 C.2     1  UNL1        0.0040
      9  C          6.3220    0.2170   -0.1560 C.2     1  UNL1        0.0040
     10  C          6.4340   -1.3090    2.0840 C.2     1  UNL1        0.0000
     11  C          7.0650   -0.9460   -0.1830 C.2     1  UNL1        0.0000
     12  C          7.1130   -1.7120    0.9620 C.2     1  UNL1        0.0000
@<TRIPOS>BOND
     1    11     9    1
     2    11    12    2
     3     9     7    2
     4     1     2    1
     5     1     6    1
     6     3     2    2
     7     2     4    1
     8     6     7    1
     9    12    10    1
    10     7     8    1
    11    10     8    2
    12     4     5    1
