@<TRIPOS>MOLECULE
/home/cewinharhar/GITHUB/reincatalyze/data/processed/docking_pred/2023-Apr-26-1657_maxeplen10_maxtrainstep1000_exh32_gamma099_lrac9e-4_lrcr1e-3/e5153a6a2872aa0f73be7da8df97a591d10f8a10_ligand_2.pdbqt
 12 12 0 0 0
SMALL
GASTEIGER

@<TRIPOS>ATOM
      1  C          8.3080   -1.0050   -1.7360 C.3     1  UNL1        0.1270
      2  C          8.4170   -2.0370   -2.7940 C.2     1  UNL1        0.3030
      3  O          9.5310   -2.5110   -3.1290 O.2     1  UNL1       -0.2520
      4  O          7.2880   -2.5080   -3.4450 O.3     1  UNL1       -0.4810
      5  H          6.3630   -2.2270   -3.1100 H       1  UNL1        0.2960
      6  C          7.2900   -1.4610   -0.7370 C.3     1  UNL1        0.0470
      7  C          6.5160   -0.3740   -0.1380 C.2     1  UNL1       -0.0470
      8  C          6.0930   -0.4490    1.1690 C.2     1  UNL1        0.0040
      9  C          6.2150    0.7330   -0.8970 C.2     1  UNL1        0.0040
     10  C          5.3600    0.6260    1.6750 C.2     1  UNL1        0.0000
     11  C          5.4890    1.7940   -0.3950 C.2     1  UNL1        0.0000
     12  C          5.0610    1.7270    0.9130 C.2     1  UNL1        0.0000
@<TRIPOS>BOND
     1     4     5    1
     2     4     2    1
     3     3     2    2
     4     2     1    1
     5     1     6    1
     6     9    11    1
     7     9     7    2
     8     6     7    1
     9    11    12    2
    10     7     8    1
    11    12    10    1
    12     8    10    2
