@<TRIPOS>MOLECULE
/home/cewinharhar/GITHUB/reincatalyze/data/processed/docking_pred/2023-Apr-26-1657_maxeplen10_maxtrainstep1000_exh32_gamma099_lrac9e-4_lrcr1e-3/e69dee760b6a4f483691253cffcee702e9155e2b_ligand_2.pdbqt
 12 12 0 0 0
SMALL
GASTEIGER

@<TRIPOS>ATOM
      1  C          9.5180   -7.3320   11.3500 C.3     1  UNL1        0.1270
      2  C          9.0000   -6.0040   10.9440 C.2     1  UNL1        0.3030
      3  O          8.1330   -5.8920   10.0410 O.2     1  UNL1       -0.2520
      4  O          9.4590   -4.8460   11.5510 O.3     1  UNL1       -0.4810
      5  H          8.8670   -4.0110   11.5500 H       1  UNL1        0.2960
      6  C         10.6920   -7.6650   10.4810 C.3     1  UNL1        0.0470
      7  C         11.1070   -9.0650   10.5520 C.2     1  UNL1       -0.0470
      8  C         10.2410  -10.0320   11.0080 C.2     1  UNL1        0.0040
      9  C         12.3780   -9.4090   10.1560 C.2     1  UNL1        0.0040
     10  C         10.7050  -11.3490   11.0480 C.2     1  UNL1        0.0000
     11  C         12.8350  -10.7120   10.1980 C.2     1  UNL1        0.0000
     12  C         11.9740  -11.6870   10.6530 C.2     1  UNL1        0.0000
@<TRIPOS>BOND
     1     3     2    2
     2     9    11    1
     3     9     7    2
     4    11    12    2
     5     6     7    1
     6     6     1    1
     7     7     8    1
     8    12    10    1
     9     2     1    1
    10     2     4    1
    11     8    10    2
    12     5     4    1
