@<TRIPOS>MOLECULE
/home/cewinharhar/GITHUB/reincatalyze/data/processed/docking_pred/2023-Apr-26-1657_maxeplen10_maxtrainstep1000_exh32_gamma099_lrac9e-4_lrcr1e-3/e69dee760b6a4f483691253cffcee702e9155e2b_ligand_2.pdbqt
 12 12 0 0 0
SMALL
GASTEIGER

@<TRIPOS>ATOM
      1  C          6.4250   -0.5060    2.7200 C.3     1  UNL1        0.1270
      2  C          7.1300   -1.5160    1.8960 C.2     1  UNL1        0.3030
      3  O          8.2950   -1.3130    1.4730 O.2     1  UNL1       -0.2520
      4  O          6.5200   -2.7170    1.5680 O.3     1  UNL1       -0.4810
      5  H          6.8360   -3.2300    0.7400 H       1  UNL1        0.2960
      6  C          5.2880    0.0470    1.9160 C.3     1  UNL1        0.0470
      7  C          5.5600    1.3550    1.3230 C.2     1  UNL1       -0.0470
      8  C          4.8490    1.7930    0.2300 C.2     1  UNL1        0.0040
      9  C          6.5380    2.1510    1.8740 C.2     1  UNL1        0.0040
     10  C          5.1620    3.0550   -0.2830 C.2     1  UNL1        0.0000
     11  C          6.8450    3.3970    1.3650 C.2     1  UNL1        0.0000
     12  C          6.1390    3.8440    0.2700 C.2     1  UNL1        0.0000
@<TRIPOS>BOND
     1    10     8    1
     2    10    12    2
     3     8     7    2
     4    12    11    1
     5     5     4    1
     6     7     9    1
     7     7     6    1
     8    11     9    2
     9     3     2    2
    10     4     2    1
    11     2     1    1
    12     6     1    1
