@<TRIPOS>MOLECULE
/home/cewinharhar/GITHUB/reincatalyze/data/processed/docking_pred/2023-Apr-26-1657_maxeplen10_maxtrainstep1000_exh32_gamma099_lrac9e-4_lrcr1e-3/e69dee760b6a4f483691253cffcee702e9155e2b_ligand_2.pdbqt
 12 12 0 0 0
SMALL
GASTEIGER

@<TRIPOS>ATOM
      1  C          8.2650   -5.8810   11.7090 C.3     1  UNL1        0.1270
      2  C          7.9300   -4.4600   11.4570 C.2     1  UNL1        0.3030
      3  O          7.9170   -3.6190   12.3890 O.2     1  UNL1       -0.2520
      4  O          7.6200   -4.0200   10.1800 O.3     1  UNL1       -0.4810
      5  H          7.8080   -3.0460    9.9270 H       1  UNL1        0.2960
      6  C          8.6830   -6.5040   10.4120 C.3     1  UNL1        0.0470
      7  C          9.9840   -7.1690   10.4630 C.2     1  UNL1       -0.0470
      8  C         11.1470   -6.4350   10.4930 C.2     1  UNL1        0.0040
      9  C         10.0350   -8.5430   10.4830 C.2     1  UNL1        0.0040
     10  C         12.3540   -7.1370   10.5420 C.2     1  UNL1        0.0000
     11  C         11.2290   -9.2350   10.5310 C.2     1  UNL1        0.0000
     12  C         12.3990   -8.5080   10.5610 C.2     1  UNL1        0.0000
@<TRIPOS>BOND
     1     5     4    1
     2     4     2    1
     3     6     7    1
     4     6     1    1
     5     7     9    2
     6     7     8    1
     7     9    11    1
     8     8    10    2
     9    11    12    2
    10    10    12    1
    11     2     1    1
    12     2     3    2
