@<TRIPOS>MOLECULE
/home/cewinharhar/GITHUB/reincatalyze/data/processed/docking_pred/2023-Apr-26-1657_maxeplen10_maxtrainstep1000_exh32_gamma099_lrac9e-4_lrcr1e-3/e69dee760b6a4f483691253cffcee702e9155e2b_ligand_2.pdbqt
 12 12 0 0 0
SMALL
GASTEIGER

@<TRIPOS>ATOM
      1  C          7.9670   -6.3690   11.0120 C.3     1  UNL1        0.1270
      2  C          8.2930   -4.9350   11.1880 C.2     1  UNL1        0.3030
      3  O          7.6290   -4.0400   10.6080 O.2     1  UNL1       -0.2520
      4  O          9.3440   -4.5390   12.0000 O.3     1  UNL1       -0.4810
      5  H          9.1430   -4.1610   12.9300 H       1  UNL1        0.2960
      6  C          8.5340   -7.1270   12.1740 C.3     1  UNL1        0.0470
      7  C          9.3650   -8.2670   11.7920 C.2     1  UNL1       -0.0470
      8  C          9.2530   -9.4710   12.4480 C.2     1  UNL1        0.0040
      9  C         10.2660   -8.1250   10.7630 C.2     1  UNL1        0.0040
     10  C         10.0780  -10.5170   12.0300 C.2     1  UNL1        0.0000
     11  C         11.0820   -9.1600   10.3500 C.2     1  UNL1        0.0000
     12  C         10.9760  -10.3690   11.0030 C.2     1  UNL1        0.0000
@<TRIPOS>BOND
     1    11     9    1
     2    11    12    2
     3     3     2    2
     4     9     7    2
     5    12    10    1
     6     1     2    1
     7     1     6    1
     8     2     4    1
     9     7     6    1
    10     7     8    1
    11     4     5    1
    12    10     8    2
