MODEL 1
REMARK VINA RESULT:      -5.6      0.000      0.000
REMARK SMILES O=C(O)CCc1ccccc1
REMARK SMILES IDX 4 1 2 2 1 3 3 4 5 6 6 7 7 8 11 9 8 10 10 11 9 12
REMARK H PARENT 3 5
REMARK Flexibility Score: inf
ROOT
ATOM      1  C   UNL     1       6.425  -0.506   2.720  1.00  0.00     0.127 C 
ENDROOT
BRANCH   1   2
ATOM      2  C   UNL     1       7.130  -1.516   1.896  1.00  0.00     0.303 C 
ATOM      3  O   UNL     1       8.295  -1.313   1.473  1.00  0.00    -0.252 OA
BRANCH   2   4
ATOM      4  O   UNL     1       6.520  -2.717   1.568  1.00  0.00    -0.481 OA
ATOM      5  H   UNL     1       6.836  -3.230   0.740  1.00  0.00     0.296 HD
ENDBRANCH   2   4
ENDBRANCH   1   2
BRANCH   1   6
ATOM      6  C   UNL     1       5.288   0.047   1.916  1.00  0.00     0.047 C 
BRANCH   6   7
ATOM      7  C   UNL     1       5.560   1.355   1.323  1.00  0.00    -0.047 A 
ATOM      8  C   UNL     1       4.849   1.793   0.230  1.00  0.00     0.004 A 
ATOM      9  C   UNL     1       6.538   2.151   1.874  1.00  0.00     0.004 A 
ATOM     10  C   UNL     1       5.162   3.055  -0.283  1.00  0.00     0.000 A 
ATOM     11  C   UNL     1       6.845   3.397   1.365  1.00  0.00     0.000 A 
ATOM     12  C   UNL     1       6.139   3.844   0.270  1.00  0.00     0.000 A 
ENDBRANCH   6   7
ENDBRANCH   1   6
TORSDOF 4
ENDMDL
MODEL 2
REMARK VINA RESULT:      -5.5      0.101      1.440
REMARK SMILES O=C(O)CCc1ccccc1
REMARK SMILES IDX 4 1 2 2 1 3 3 4 5 6 6 7 7 8 11 9 8 10 10 11 9 12
REMARK H PARENT 3 5
REMARK Flexibility Score: inf
ROOT
ATOM      1  C   UNL     1       6.377  -0.592   2.762  1.00  0.00     0.127 C 
ENDROOT
BRANCH   1   2
ATOM      2  C   UNL     1       7.147  -1.526   1.906  1.00  0.00     0.303 C 
ATOM      3  O   UNL     1       8.302  -1.239   1.505  1.00  0.00    -0.252 OA
BRANCH   2   4
ATOM      4  O   UNL     1       6.610  -2.745   1.524  1.00  0.00    -0.481 OA
ATOM      5  H   UNL     1       7.094  -3.306   0.818  1.00  0.00     0.296 HD
ENDBRANCH   2   4
ENDBRANCH   1   2
BRANCH   1   6
ATOM      6  C   UNL     1       5.260  -0.018   1.946  1.00  0.00     0.047 C 
BRANCH   6   7
ATOM      7  C   UNL     1       5.560   1.290   1.364  1.00  0.00    -0.047 A 
ATOM      8  C   UNL     1       6.541   2.090   1.902  1.00  0.00     0.004 A 
ATOM      9  C   UNL     1       4.849   1.715   0.266  1.00  0.00     0.004 A 
ATOM     10  C   UNL     1       6.774   3.326   1.294  1.00  0.00     0.000 A 
ATOM     11  C   UNL     1       5.081   2.937  -0.334  1.00  0.00     0.000 A 
ATOM     12  C   UNL     1       6.061   3.745   0.199  1.00  0.00     0.000 A 
ENDBRANCH   6   7
ENDBRANCH   1   6
TORSDOF 4
ENDMDL
MODEL 3
REMARK VINA RESULT:      -3.7     11.777     14.306
REMARK SMILES O=C(O)CCc1ccccc1
REMARK SMILES IDX 4 1 2 2 1 3 3 4 5 6 6 7 7 8 11 9 8 10 10 11 9 12
REMARK H PARENT 3 5
REMARK Flexibility Score: inf
ROOT
ATOM      1  C   UNL     1       7.967  -6.369  11.012  1.00  0.00     0.127 C 
ENDROOT
BRANCH   1   2
ATOM      2  C   UNL     1       8.293  -4.935  11.188  1.00  0.00     0.303 C 
ATOM      3  O   UNL     1       7.629  -4.040  10.608  1.00  0.00    -0.252 OA
BRANCH   2   4
ATOM      4  O   UNL     1       9.344  -4.539  12.000  1.00  0.00    -0.481 OA
ATOM      5  H   UNL     1       9.143  -4.161  12.930  1.00  0.00     0.296 HD
ENDBRANCH   2   4
ENDBRANCH   1   2
BRANCH   1   6
ATOM      6  C   UNL     1       8.534  -7.127  12.174  1.00  0.00     0.047 C 
BRANCH   6   7
ATOM      7  C   UNL     1       9.365  -8.267  11.792  1.00  0.00    -0.047 A 
ATOM      8  C   UNL     1       9.253  -9.471  12.448  1.00  0.00     0.004 A 
ATOM      9  C   UNL     1      10.266  -8.125  10.763  1.00  0.00     0.004 A 
ATOM     10  C   UNL     1      10.078 -10.517  12.030  1.00  0.00     0.000 A 
ATOM     11  C   UNL     1      11.082  -9.160  10.350  1.00  0.00     0.000 A 
ATOM     12  C   UNL     1      10.976 -10.369  11.003  1.00  0.00     0.000 A 
ENDBRANCH   6   7
ENDBRANCH   1   6
TORSDOF 4
ENDMDL
MODEL 4
REMARK VINA RESULT:      -3.7     11.644     13.364
REMARK SMILES O=C(O)CCc1ccccc1
REMARK SMILES IDX 4 1 2 2 1 3 3 4 5 6 6 7 7 8 11 9 8 10 10 11 9 12
REMARK H PARENT 3 5
REMARK Flexibility Score: inf
ROOT
ATOM      1  C   UNL     1       8.265  -5.881  11.709  1.00  0.00     0.127 C 
ENDROOT
BRANCH   1   2
ATOM      2  C   UNL     1       7.930  -4.460  11.457  1.00  0.00     0.303 C 
ATOM      3  O   UNL     1       7.917  -3.619  12.389  1.00  0.00    -0.252 OA
BRANCH   2   4
ATOM      4  O   UNL     1       7.620  -4.020  10.180  1.00  0.00    -0.481 OA
ATOM      5  H   UNL     1       7.808  -3.046   9.927  1.00  0.00     0.296 HD
ENDBRANCH   2   4
ENDBRANCH   1   2
BRANCH   1   6
ATOM      6  C   UNL     1       8.683  -6.504  10.412  1.00  0.00     0.047 C 
BRANCH   6   7
ATOM      7  C   UNL     1       9.984  -7.169  10.463  1.00  0.00    -0.047 A 
ATOM      8  C   UNL     1      11.147  -6.435  10.493  1.00  0.00     0.004 A 
ATOM      9  C   UNL     1      10.035  -8.543  10.483  1.00  0.00     0.004 A 
ATOM     10  C   UNL     1      12.354  -7.137  10.542  1.00  0.00     0.000 A 
ATOM     11  C   UNL     1      11.229  -9.235  10.531  1.00  0.00     0.000 A 
ATOM     12  C   UNL     1      12.399  -8.508  10.561  1.00  0.00     0.000 A 
ENDBRANCH   6   7
ENDBRANCH   1   6
TORSDOF 4
ENDMDL
MODEL 5
REMARK VINA RESULT:      -3.5     12.261     14.814
REMARK SMILES O=C(O)CCc1ccccc1
REMARK SMILES IDX 4 1 2 2 1 3 3 4 5 6 6 7 7 8 11 9 8 10 10 11 9 12
REMARK H PARENT 3 5
REMARK Flexibility Score: inf
ROOT
ATOM      1  C   UNL     1       9.518  -7.332  11.350  1.00  0.00     0.127 C 
ENDROOT
BRANCH   1   2
ATOM      2  C   UNL     1       9.000  -6.004  10.944  1.00  0.00     0.303 C 
ATOM      3  O   UNL     1       8.133  -5.892  10.041  1.00  0.00    -0.252 OA
BRANCH   2   4
ATOM      4  O   UNL     1       9.459  -4.846  11.551  1.00  0.00    -0.481 OA
ATOM      5  H   UNL     1       8.867  -4.011  11.550  1.00  0.00     0.296 HD
ENDBRANCH   2   4
ENDBRANCH   1   2
BRANCH   1   6
ATOM      6  C   UNL     1      10.692  -7.665  10.481  1.00  0.00     0.047 C 
BRANCH   6   7
ATOM      7  C   UNL     1      11.107  -9.065  10.552  1.00  0.00    -0.047 A 
ATOM      8  C   UNL     1      10.241 -10.032  11.008  1.00  0.00     0.004 A 
ATOM      9  C   UNL     1      12.378  -9.409  10.156  1.00  0.00     0.004 A 
ATOM     10  C   UNL     1      10.705 -11.349  11.048  1.00  0.00     0.000 A 
ATOM     11  C   UNL     1      12.835 -10.712  10.198  1.00  0.00     0.000 A 
ATOM     12  C   UNL     1      11.974 -11.687  10.653  1.00  0.00     0.000 A 
ENDBRANCH   6   7
ENDBRANCH   1   6
TORSDOF 4
ENDMDL
