@<TRIPOS>MOLECULE
/home/cewinharhar/GITHUB/reincatalyze/data/processed/docking_pred/2023-Apr-26-1657_maxeplen10_maxtrainstep1000_exh32_gamma099_lrac9e-4_lrcr1e-3/e69dee760b6a4f483691253cffcee702e9155e2b_ligand_2.pdbqt
 12 12 0 0 0
SMALL
GASTEIGER

@<TRIPOS>ATOM
      1  C          6.3770   -0.5920    2.7620 C.3     1  UNL1        0.1270
      2  C          7.1470   -1.5260    1.9060 C.2     1  UNL1        0.3030
      3  O          8.3020   -1.2390    1.5050 O.2     1  UNL1       -0.2520
      4  O          6.6100   -2.7450    1.5240 O.3     1  UNL1       -0.4810
      5  H          7.0940   -3.3060    0.8180 H       1  UNL1        0.2960
      6  C          5.2600   -0.0180    1.9460 C.3     1  UNL1        0.0470
      7  C          5.5600    1.2900    1.3640 C.2     1  UNL1       -0.0470
      8  C          6.5410    2.0900    1.9020 C.2     1  UNL1        0.0040
      9  C          4.8490    1.7150    0.2660 C.2     1  UNL1        0.0040
     10  C          6.7740    3.3260    1.2940 C.2     1  UNL1        0.0000
     11  C          5.0810    2.9370   -0.3340 C.2     1  UNL1        0.0000
     12  C          6.0610    3.7450    0.1990 C.2     1  UNL1        0.0000
@<TRIPOS>BOND
     1    11    12    2
     2    11     9    1
     3    12    10    1
     4     9     7    2
     5     5     4    1
     6    10     8    2
     7     7     8    1
     8     7     6    1
     9     3     2    2
    10     4     2    1
    11     2     1    1
    12     6     1    1
