@<TRIPOS>MOLECULE
/home/cewinharhar/GITHUB/reincatalyze/data/processed/docking_pred/2023-Apr-26-1657_maxeplen10_maxtrainstep1000_exh32_gamma099_lrac9e-4_lrcr1e-3/e72dfb9ce69b60d9dd63e32278a4acfac8a78322_ligand_2.pdbqt
 12 12 0 0 0
SMALL
GASTEIGER

@<TRIPOS>ATOM
      1  C          5.3520    2.9590    0.1310 C.3     1  UNL1        0.1270
      2  C          6.2390    3.8790    0.8820 C.2     1  UNL1        0.3030
      3  O          6.8950    4.7740    0.2950 O.2     1  UNL1       -0.2520
      4  O          6.3690    3.7740    2.2580 O.3     1  UNL1       -0.4810
      5  H          7.1970    4.1650    2.7140 H       1  UNL1        0.2960
      6  C          5.2870    1.6580    0.8710 C.3     1  UNL1        0.0470
      7  C          6.0150    0.5680    0.2240 C.2     1  UNL1       -0.0470
      8  C          6.4310   -0.5260    0.9460 C.2     1  UNL1        0.0040
      9  C          6.2790    0.6450   -1.1240 C.2     1  UNL1        0.0040
     10  C          7.1200   -1.5300    0.2620 C.2     1  UNL1        0.0000
     11  C          6.9610   -0.3480   -1.7980 C.2     1  UNL1        0.0000
     12  C          7.3820   -1.4470   -1.0820 C.2     1  UNL1        0.0000
@<TRIPOS>BOND
     1    11     9    1
     2    11    12    2
     3     9     7    2
     4    12    10    1
     5     1     6    1
     6     1     2    1
     7     7     6    1
     8     7     8    1
     9    10     8    2
    10     3     2    2
    11     2     4    1
    12     4     5    1
