@<TRIPOS>MOLECULE
/home/cewinharhar/GITHUB/reincatalyze/data/processed/docking_pred/2023-Apr-26-1657_maxeplen10_maxtrainstep1000_exh32_gamma099_lrac9e-4_lrcr1e-3/e72dfb9ce69b60d9dd63e32278a4acfac8a78322_ligand_2.pdbqt
 12 12 0 0 0
SMALL
GASTEIGER

@<TRIPOS>ATOM
      1  C          8.4680   -0.6470   -2.0760 C.3     1  UNL1        0.1270
      2  C          8.4060   -1.8970   -2.8690 C.2     1  UNL1        0.3030
      3  O          7.3060   -2.4030   -3.2020 O.2     1  UNL1       -0.2520
      4  O          9.5650   -2.5440   -3.2660 O.3     1  UNL1       -0.4810
      5  H          9.5350   -3.1770   -4.0700 H       1  UNL1        0.2960
      6  C          7.1060   -0.0220   -2.0740 C.3     1  UNL1        0.0470
      7  C          6.5130    0.1070   -0.7440 C.2     1  UNL1       -0.0470
      8  C          6.6330   -0.9040    0.1810 C.2     1  UNL1        0.0040
      9  C          5.8320    1.2580   -0.4220 C.2     1  UNL1        0.0040
     10  C          6.0430   -0.7120    1.4320 C.2     1  UNL1        0.0000
     11  C          5.2480    1.4460    0.8160 C.2     1  UNL1        0.0000
     12  C          5.3630    0.4380    1.7480 C.2     1  UNL1        0.0000
@<TRIPOS>BOND
     1     5     4    1
     2     4     2    1
     3     3     2    2
     4     2     1    1
     5     1     6    1
     6     6     7    1
     7     7     9    2
     8     7     8    1
     9     9    11    1
    10     8    10    2
    11    11    12    2
    12    10    12    1
