MODEL 1
REMARK VINA RESULT:      -7.4      0.000      0.000
REMARK SMILES O=C(O)CCc1ccccc1
REMARK SMILES IDX 4 1 2 2 1 3 3 4 5 6 6 7 7 8 11 9 8 10 10 11 9 12
REMARK H PARENT 3 5
REMARK Flexibility Score: inf
ROOT
ATOM      1  C   UNL     1       8.390  -0.551  -2.221  1.00  0.00     0.127 C 
ENDROOT
BRANCH   1   2
ATOM      2  C   UNL     1       8.448  -1.857  -2.919  1.00  0.00     0.303 C 
ATOM      3  O   UNL     1       9.538  -2.458  -3.086  1.00  0.00    -0.252 OA
BRANCH   2   4
ATOM      4  O   UNL     1       7.296  -2.453  -3.407  1.00  0.00    -0.481 OA
ATOM      5  H   UNL     1       6.557  -2.725  -2.753  1.00  0.00     0.296 HD
ENDBRANCH   2   4
ENDBRANCH   1   2
BRANCH   1   6
ATOM      6  C   UNL     1       6.958  -0.114  -2.159  1.00  0.00     0.047 C 
BRANCH   6   7
ATOM      7  C   UNL     1       6.448   0.064  -0.801  1.00  0.00    -0.047 A 
ATOM      8  C   UNL     1       5.849   1.243  -0.422  1.00  0.00     0.004 A 
ATOM      9  C   UNL     1       6.572  -0.967   0.102  1.00  0.00     0.004 A 
ATOM     10  C   UNL     1       5.384   1.341   0.891  1.00  0.00     0.000 A 
ATOM     11  C   UNL     1       6.112  -0.867   1.401  1.00  0.00     0.000 A 
ATOM     12  C   UNL     1       5.511   0.311   1.788  1.00  0.00     0.000 A 
ENDBRANCH   6   7
ENDBRANCH   1   6
TORSDOF 4
ENDMDL
MODEL 2
REMARK VINA RESULT:      -7.3      0.163      1.733
REMARK SMILES O=C(O)CCc1ccccc1
REMARK SMILES IDX 4 1 2 2 1 3 3 4 5 6 6 7 7 8 11 9 8 10 10 11 9 12
REMARK H PARENT 3 5
REMARK Flexibility Score: inf
ROOT
ATOM      1  C   UNL     1       8.468  -0.647  -2.076  1.00  0.00     0.127 C 
ENDROOT
BRANCH   1   2
ATOM      2  C   UNL     1       8.406  -1.897  -2.869  1.00  0.00     0.303 C 
ATOM      3  O   UNL     1       7.306  -2.403  -3.202  1.00  0.00    -0.252 OA
BRANCH   2   4
ATOM      4  O   UNL     1       9.565  -2.544  -3.266  1.00  0.00    -0.481 OA
ATOM      5  H   UNL     1       9.535  -3.177  -4.070  1.00  0.00     0.296 HD
ENDBRANCH   2   4
ENDBRANCH   1   2
BRANCH   1   6
ATOM      6  C   UNL     1       7.106  -0.022  -2.074  1.00  0.00     0.047 C 
BRANCH   6   7
ATOM      7  C   UNL     1       6.513   0.107  -0.744  1.00  0.00    -0.047 A 
ATOM      8  C   UNL     1       6.633  -0.904   0.181  1.00  0.00     0.004 A 
ATOM      9  C   UNL     1       5.832   1.258  -0.422  1.00  0.00     0.004 A 
ATOM     10  C   UNL     1       6.043  -0.712   1.432  1.00  0.00     0.000 A 
ATOM     11  C   UNL     1       5.248   1.446   0.816  1.00  0.00     0.000 A 
ATOM     12  C   UNL     1       5.363   0.438   1.748  1.00  0.00     0.000 A 
ENDBRANCH   6   7
ENDBRANCH   1   6
TORSDOF 4
ENDMDL
MODEL 3
REMARK VINA RESULT:      -7.2      0.628      1.063
REMARK SMILES O=C(O)CCc1ccccc1
REMARK SMILES IDX 4 1 2 2 1 3 3 4 5 6 6 7 7 8 11 9 8 10 10 11 9 12
REMARK H PARENT 3 5
REMARK Flexibility Score: inf
ROOT
ATOM      1  C   UNL     1       8.155  -0.735  -2.110  1.00  0.00     0.127 C 
ENDROOT
BRANCH   1   2
ATOM      2  C   UNL     1       8.339  -1.958  -2.928  1.00  0.00     0.303 C 
ATOM      3  O   UNL     1       9.471  -2.483  -3.068  1.00  0.00    -0.252 OA
BRANCH   2   4
ATOM      4  O   UNL     1       7.262  -2.556  -3.562  1.00  0.00    -0.481 OA
ATOM      5  H   UNL     1       6.582  -3.082  -3.005  1.00  0.00     0.296 HD
ENDBRANCH   2   4
ENDBRANCH   1   2
BRANCH   1   6
ATOM      6  C   UNL     1       7.650  -1.143  -0.760  1.00  0.00     0.047 C 
BRANCH   6   7
ATOM      7  C   UNL     1       6.713  -0.193  -0.164  1.00  0.00    -0.047 A 
ATOM      8  C   UNL     1       6.269   0.898  -0.875  1.00  0.00     0.004 A 
ATOM      9  C   UNL     1       6.272  -0.401   1.123  1.00  0.00     0.004 A 
ATOM     10  C   UNL     1       5.374   1.763  -0.243  1.00  0.00     0.000 A 
ATOM     11  C   UNL     1       5.387   0.455   1.746  1.00  0.00     0.000 A 
ATOM     12  C   UNL     1       4.939   1.551   1.041  1.00  0.00     0.000 A 
ENDBRANCH   6   7
ENDBRANCH   1   6
TORSDOF 4
ENDMDL
MODEL 4
REMARK VINA RESULT:      -6.9      3.375      5.074
REMARK SMILES O=C(O)CCc1ccccc1
REMARK SMILES IDX 4 1 2 2 1 3 3 4 5 6 6 7 7 8 11 9 8 10 10 11 9 12
REMARK H PARENT 3 5
REMARK Flexibility Score: inf
ROOT
ATOM      1  C   UNL     1       5.003   1.788   0.706  1.00  0.00     0.127 C 
ENDROOT
BRANCH   1   2
ATOM      2  C   UNL     1       4.483   1.111   1.917  1.00  0.00     0.303 C 
ATOM      3  O   UNL     1       5.139   0.204   2.488  1.00  0.00    -0.252 OA
BRANCH   2   4
ATOM      4  O   UNL     1       3.255   1.461   2.455  1.00  0.00    -0.481 OA
ATOM      5  H   UNL     1       3.004   2.451   2.529  1.00  0.00     0.296 HD
ENDBRANCH   2   4
ENDBRANCH   1   2
BRANCH   1   6
ATOM      6  C   UNL     1       6.500   1.758   0.756  1.00  0.00     0.047 C 
BRANCH   6   7
ATOM      7  C   UNL     1       7.116   1.007  -0.337  1.00  0.00    -0.047 A 
ATOM      8  C   UNL     1       6.388   0.091  -1.060  1.00  0.00     0.004 A 
ATOM      9  C   UNL     1       8.440   1.228  -0.641  1.00  0.00     0.004 A 
ATOM     10  C   UNL     1       7.041  -0.589  -2.090  1.00  0.00     0.000 A 
ATOM     11  C   UNL     1       9.084   0.555  -1.660  1.00  0.00     0.000 A 
ATOM     12  C   UNL     1       8.361  -0.365  -2.388  1.00  0.00     0.000 A 
ENDBRANCH   6   7
ENDBRANCH   1   6
TORSDOF 4
ENDMDL
MODEL 5
REMARK VINA RESULT:      -6.6      3.732      5.095
REMARK SMILES O=C(O)CCc1ccccc1
REMARK SMILES IDX 4 1 2 2 1 3 3 4 5 6 6 7 7 8 11 9 8 10 10 11 9 12
REMARK H PARENT 3 5
REMARK Flexibility Score: inf
ROOT
ATOM      1  C   UNL     1       5.352   2.959   0.131  1.00  0.00     0.127 C 
ENDROOT
BRANCH   1   2
ATOM      2  C   UNL     1       6.239   3.879   0.882  1.00  0.00     0.303 C 
ATOM      3  O   UNL     1       6.895   4.774   0.295  1.00  0.00    -0.252 OA
BRANCH   2   4
ATOM      4  O   UNL     1       6.369   3.774   2.258  1.00  0.00    -0.481 OA
ATOM      5  H   UNL     1       7.197   4.165   2.714  1.00  0.00     0.296 HD
ENDBRANCH   2   4
ENDBRANCH   1   2
BRANCH   1   6
ATOM      6  C   UNL     1       5.287   1.658   0.871  1.00  0.00     0.047 C 
BRANCH   6   7
ATOM      7  C   UNL     1       6.015   0.568   0.224  1.00  0.00    -0.047 A 
ATOM      8  C   UNL     1       6.431  -0.526   0.946  1.00  0.00     0.004 A 
ATOM      9  C   UNL     1       6.279   0.645  -1.124  1.00  0.00     0.004 A 
ATOM     10  C   UNL     1       7.120  -1.530   0.262  1.00  0.00     0.000 A 
ATOM     11  C   UNL     1       6.961  -0.348  -1.798  1.00  0.00     0.000 A 
ATOM     12  C   UNL     1       7.382  -1.447  -1.082  1.00  0.00     0.000 A 
ENDBRANCH   6   7
ENDBRANCH   1   6
TORSDOF 4
ENDMDL
