@<TRIPOS>MOLECULE
/home/cewinharhar/GITHUB/reincatalyze/data/processed/docking_pred/2023-Apr-26-1657_maxeplen10_maxtrainstep1000_exh32_gamma099_lrac9e-4_lrcr1e-3/e72dfb9ce69b60d9dd63e32278a4acfac8a78322_ligand_2.pdbqt
 12 12 0 0 0
SMALL
GASTEIGER

@<TRIPOS>ATOM
      1  C          8.1550   -0.7350   -2.1100 C.3     1  UNL1        0.1270
      2  C          8.3390   -1.9580   -2.9280 C.2     1  UNL1        0.3030
      3  O          9.4710   -2.4830   -3.0680 O.2     1  UNL1       -0.2520
      4  O          7.2620   -2.5560   -3.5620 O.3     1  UNL1       -0.4810
      5  H          6.5820   -3.0820   -3.0050 H       1  UNL1        0.2960
      6  C          7.6500   -1.1430   -0.7600 C.3     1  UNL1        0.0470
      7  C          6.7130   -0.1930   -0.1640 C.2     1  UNL1       -0.0470
      8  C          6.2690    0.8980   -0.8750 C.2     1  UNL1        0.0040
      9  C          6.2720   -0.4010    1.1230 C.2     1  UNL1        0.0040
     10  C          5.3740    1.7630   -0.2430 C.2     1  UNL1        0.0000
     11  C          5.3870    0.4550    1.7460 C.2     1  UNL1        0.0000
     12  C          4.9390    1.5510    1.0410 C.2     1  UNL1        0.0000
@<TRIPOS>BOND
     1     4     5    1
     2     4     2    1
     3     3     2    2
     4     2     1    1
     5     1     6    1
     6     8    10    1
     7     8     7    2
     8     6     7    1
     9    10    12    2
    10     7     9    1
    11    12    11    1
    12     9    11    2
