@<TRIPOS>MOLECULE
/home/cewinharhar/GITHUB/reincatalyze/data/processed/docking_pred/2023-Apr-26-1657_maxeplen10_maxtrainstep1000_exh32_gamma099_lrac9e-4_lrcr1e-3/e72dfb9ce69b60d9dd63e32278a4acfac8a78322_ligand_2.pdbqt
 12 12 0 0 0
SMALL
GASTEIGER

@<TRIPOS>ATOM
      1  C          5.0030    1.7880    0.7060 C.3     1  UNL1        0.1270
      2  C          4.4830    1.1110    1.9170 C.2     1  UNL1        0.3030
      3  O          5.1390    0.2040    2.4880 O.2     1  UNL1       -0.2520
      4  O          3.2550    1.4610    2.4550 O.3     1  UNL1       -0.4810
      5  H          3.0040    2.4510    2.5290 H       1  UNL1        0.2960
      6  C          6.5000    1.7580    0.7560 C.3     1  UNL1        0.0470
      7  C          7.1160    1.0070   -0.3370 C.2     1  UNL1       -0.0470
      8  C          6.3880    0.0910   -1.0600 C.2     1  UNL1        0.0040
      9  C          8.4400    1.2280   -0.6410 C.2     1  UNL1        0.0040
     10  C          7.0410   -0.5890   -2.0900 C.2     1  UNL1        0.0000
     11  C          9.0840    0.5550   -1.6600 C.2     1  UNL1        0.0000
     12  C          8.3610   -0.3650   -2.3880 C.2     1  UNL1        0.0000
@<TRIPOS>BOND
     1    12    10    2
     2    12    11    1
     3    10     8    1
     4    11     9    2
     5     8     7    2
     6     9     7    1
     7     7     6    1
     8     1     6    1
     9     1     2    1
    10     2     4    1
    11     2     3    2
    12     4     5    1
