@<TRIPOS>MOLECULE
/home/cewinharhar/GITHUB/reincatalyze/data/processed/docking_pred/2023-Apr-26-1657_maxeplen10_maxtrainstep1000_exh32_gamma099_lrac9e-4_lrcr1e-3/e72dfb9ce69b60d9dd63e32278a4acfac8a78322_ligand_2.pdbqt
 12 12 0 0 0
SMALL
GASTEIGER

@<TRIPOS>ATOM
      1  C          8.3900   -0.5510   -2.2210 C.3     1  UNL1        0.1270
      2  C          8.4480   -1.8570   -2.9190 C.2     1  UNL1        0.3030
      3  O          9.5380   -2.4580   -3.0860 O.2     1  UNL1       -0.2520
      4  O          7.2960   -2.4530   -3.4070 O.3     1  UNL1       -0.4810
      5  H          6.5570   -2.7250   -2.7530 H       1  UNL1        0.2960
      6  C          6.9580   -0.1140   -2.1590 C.3     1  UNL1        0.0470
      7  C          6.4480    0.0640   -0.8010 C.2     1  UNL1       -0.0470
      8  C          5.8490    1.2430   -0.4220 C.2     1  UNL1        0.0040
      9  C          6.5720   -0.9670    0.1020 C.2     1  UNL1        0.0040
     10  C          5.3840    1.3410    0.8910 C.2     1  UNL1        0.0000
     11  C          6.1120   -0.8670    1.4010 C.2     1  UNL1        0.0000
     12  C          5.5110    0.3110    1.7880 C.2     1  UNL1        0.0000
@<TRIPOS>BOND
     1     4     2    1
     2     4     5    1
     3     3     2    2
     4     2     1    1
     5     1     6    1
     6     6     7    1
     7     7     8    2
     8     7     9    1
     9     8    10    1
    10     9    11    2
    11    10    12    2
    12    11    12    1
