@<TRIPOS>MOLECULE
/home/cewinharhar/GITHUB/reincatalyze/data/processed/docking_pred/2023-Apr-26-1657_maxeplen10_maxtrainstep1000_exh32_gamma099_lrac9e-4_lrcr1e-3/e8fc6854485d68a8d0bf78bf523603f1a9cbeca9_ligand_2.pdbqt
 12 12 0 0 0
SMALL
GASTEIGER

@<TRIPOS>ATOM
      1  C          7.0810   -1.3080   -2.2180 C.3     1  UNL1        0.1270
      2  C          8.5050   -1.6530   -2.4400 C.2     1  UNL1        0.3030
      3  O          8.8460   -2.8060   -2.8040 O.2     1  UNL1       -0.2520
      4  O          9.5020   -0.7090   -2.2520 O.3     1  UNL1       -0.4810
      5  H         10.1980   -0.8560   -1.5160 H       1  UNL1        0.2960
      6  C          7.0000    0.1400   -1.8420 C.3     1  UNL1        0.0470
      7  C          6.3250    0.3860   -0.5690 C.2     1  UNL1       -0.0470
      8  C          5.6270    1.5530   -0.3570 C.2     1  UNL1        0.0040
      9  C          6.3910   -0.5660    0.4220 C.2     1  UNL1        0.0040
     10  C          5.0060    1.7210    0.8820 C.2     1  UNL1        0.0000
     11  C          5.7760   -0.3980    1.6470 C.2     1  UNL1        0.0000
     12  C          5.0760    0.7690    1.8670 C.2     1  UNL1        0.0000
@<TRIPOS>BOND
     1     3     2    2
     2     2     4    1
     3     2     1    1
     4     4     5    1
     5     1     6    1
     6     6     7    1
     7     7     8    2
     8     7     9    1
     9     8    10    1
    10     9    11    2
    11    10    12    2
    12    11    12    1
