@<TRIPOS>MOLECULE
/home/cewinharhar/GITHUB/reincatalyze/data/processed/docking_pred/2023-Apr-26-1657_maxeplen10_maxtrainstep1000_exh32_gamma099_lrac9e-4_lrcr1e-3/e8fc6854485d68a8d0bf78bf523603f1a9cbeca9_ligand_2.pdbqt
 12 12 0 0 0
SMALL
GASTEIGER

@<TRIPOS>ATOM
      1  C          5.3650    2.9310    0.0710 C.3     1  UNL1        0.1270
      2  C          6.3050    3.7740    0.8460 C.2     1  UNL1        0.3030
      3  O          6.8620    4.7740    0.3280 O.2     1  UNL1       -0.2520
      4  O          6.5960    3.4810    2.1680 O.3     1  UNL1       -0.4810
      5  H          7.0270    2.5810    2.3990 H       1  UNL1        0.2960
      6  C          5.2150    1.6190    0.7790 C.3     1  UNL1        0.0470
      7  C          6.0090    0.5370    0.2000 C.2     1  UNL1       -0.0470
      8  C          6.4240   -0.5220    0.9740 C.2     1  UNL1        0.0040
      9  C          6.3370    0.5850   -1.1350 C.2     1  UNL1        0.0040
     10  C          7.1790   -1.5210    0.3540 C.2     1  UNL1        0.0000
     11  C          7.0830   -0.4040   -1.7460 C.2     1  UNL1        0.0000
     12  C          7.5040   -1.4670   -0.9770 C.2     1  UNL1        0.0000
@<TRIPOS>BOND
     1    11     9    1
     2    11    12    2
     3     9     7    2
     4    12    10    1
     5     1     6    1
     6     1     2    1
     7     7     6    1
     8     7     8    1
     9     3     2    2
    10    10     8    2
    11     2     4    1
    12     4     5    1
