@<TRIPOS>MOLECULE
/home/cewinharhar/GITHUB/reincatalyze/data/processed/docking_pred/2023-Apr-26-1657_maxeplen10_maxtrainstep1000_exh32_gamma099_lrac9e-4_lrcr1e-3/e8fc6854485d68a8d0bf78bf523603f1a9cbeca9_ligand_2.pdbqt
 12 12 0 0 0
SMALL
GASTEIGER

@<TRIPOS>ATOM
      1  C          5.0370    1.7910    0.6680 C.3     1  UNL1        0.1270
      2  C          4.5230    1.1250    1.8880 C.2     1  UNL1        0.3030
      3  O          5.1880    0.2350    2.4730 O.2     1  UNL1       -0.2520
      4  O          3.2890    1.4680    2.4180 O.3     1  UNL1       -0.4810
      5  H          2.5490    0.7620    2.4620 H       1  UNL1        0.2960
      6  C          6.5340    1.7900    0.7270 C.3     1  UNL1        0.0470
      7  C          7.1710    1.0380   -0.3530 C.2     1  UNL1       -0.0470
      8  C          8.5010    1.2220   -0.6490 C.2     1  UNL1        0.0040
      9  C          6.4230    0.1370   -1.0760 C.2     1  UNL1        0.0040
     10  C          9.0430    0.4690   -1.6930 C.2     1  UNL1        0.0000
     11  C          6.9600   -0.6060   -2.1080 C.2     1  UNL1        0.0000
     12  C          8.2920   -0.4270   -2.4110 C.2     1  UNL1        0.0000
@<TRIPOS>BOND
     1    12    11    2
     2    12    10    1
     3    11     9    1
     4    10     8    2
     5     9     7    2
     6     8     7    1
     7     7     6    1
     8     1     6    1
     9     1     2    1
    10     2     4    1
    11     2     3    2
    12     4     5    1
