MODEL 1
REMARK VINA RESULT:      -7.3      0.000      0.000
REMARK SMILES O=C(O)CCc1ccccc1
REMARK SMILES IDX 4 1 2 2 1 3 3 4 5 6 6 7 7 8 11 9 8 10 10 11 9 12
REMARK H PARENT 3 5
REMARK Flexibility Score: inf
ROOT
ATOM      1  C   UNL     1       8.451  -0.569  -2.204  1.00  0.00     0.127 C 
ENDROOT
BRANCH   1   2
ATOM      2  C   UNL     1       8.494  -1.866  -2.920  1.00  0.00     0.303 C 
ATOM      3  O   UNL     1       9.574  -2.487  -3.078  1.00  0.00    -0.252 OA
BRANCH   2   4
ATOM      4  O   UNL     1       7.338  -2.430  -3.437  1.00  0.00    -0.481 OA
ATOM      5  H   UNL     1       6.979  -3.298  -3.029  1.00  0.00     0.296 HD
ENDBRANCH   2   4
ENDBRANCH   1   2
BRANCH   1   6
ATOM      6  C   UNL     1       7.029  -0.099  -2.166  1.00  0.00     0.047 C 
BRANCH   6   7
ATOM      7  C   UNL     1       6.494   0.070  -0.816  1.00  0.00    -0.047 A 
ATOM      8  C   UNL     1       5.850   1.231  -0.455  1.00  0.00     0.004 A 
ATOM      9  C   UNL     1       6.639  -0.950   0.095  1.00  0.00     0.004 A 
ATOM     10  C   UNL     1       5.363   1.322   0.851  1.00  0.00     0.000 A 
ATOM     11  C   UNL     1       6.157  -0.858   1.386  1.00  0.00     0.000 A 
ATOM     12  C   UNL     1       5.512   0.302   1.756  1.00  0.00     0.000 A 
ENDBRANCH   6   7
ENDBRANCH   1   6
TORSDOF 4
ENDMDL
MODEL 2
REMARK VINA RESULT:      -7.3      0.130      1.732
REMARK SMILES O=C(O)CCc1ccccc1
REMARK SMILES IDX 4 1 2 2 1 3 3 4 5 6 6 7 7 8 11 9 8 10 10 11 9 12
REMARK H PARENT 3 5
REMARK Flexibility Score: inf
ROOT
ATOM      1  C   UNL     1       8.386  -0.613  -2.140  1.00  0.00     0.127 C 
ENDROOT
BRANCH   1   2
ATOM      2  C   UNL     1       8.364  -1.884  -2.901  1.00  0.00     0.303 C 
ATOM      3  O   UNL     1       7.281  -2.411  -3.256  1.00  0.00    -0.252 OA
BRANCH   2   4
ATOM      4  O   UNL     1       9.542  -2.526  -3.244  1.00  0.00    -0.481 OA
ATOM      5  H   UNL     1      10.436  -2.051  -3.088  1.00  0.00     0.296 HD
ENDBRANCH   2   4
ENDBRANCH   1   2
BRANCH   1   6
ATOM      6  C   UNL     1       6.989  -0.073  -2.085  1.00  0.00     0.047 C 
BRANCH   6   7
ATOM      7  C   UNL     1       6.454   0.055  -0.730  1.00  0.00    -0.047 A 
ATOM      8  C   UNL     1       6.588  -0.969   0.178  1.00  0.00     0.004 A 
ATOM      9  C   UNL     1       5.812   1.217  -0.369  1.00  0.00     0.004 A 
ATOM     10  C   UNL     1       6.053  -0.778   1.454  1.00  0.00     0.000 A 
ATOM     11  C   UNL     1       5.284   1.404   0.893  1.00  0.00     0.000 A 
ATOM     12  C   UNL     1       5.413   0.383   1.809  1.00  0.00     0.000 A 
ENDBRANCH   6   7
ENDBRANCH   1   6
TORSDOF 4
ENDMDL
MODEL 3
REMARK VINA RESULT:      -6.9      0.867      1.145
REMARK SMILES O=C(O)CCc1ccccc1
REMARK SMILES IDX 4 1 2 2 1 3 3 4 5 6 6 7 7 8 11 9 8 10 10 11 9 12
REMARK H PARENT 3 5
REMARK Flexibility Score: inf
ROOT
ATOM      1  C   UNL     1       7.081  -1.308  -2.218  1.00  0.00     0.127 C 
ENDROOT
BRANCH   1   2
ATOM      2  C   UNL     1       8.505  -1.653  -2.440  1.00  0.00     0.303 C 
ATOM      3  O   UNL     1       8.846  -2.806  -2.804  1.00  0.00    -0.252 OA
BRANCH   2   4
ATOM      4  O   UNL     1       9.502  -0.709  -2.252  1.00  0.00    -0.481 OA
ATOM      5  H   UNL     1      10.198  -0.856  -1.516  1.00  0.00     0.296 HD
ENDBRANCH   2   4
ENDBRANCH   1   2
BRANCH   1   6
ATOM      6  C   UNL     1       7.000   0.140  -1.842  1.00  0.00     0.047 C 
BRANCH   6   7
ATOM      7  C   UNL     1       6.325   0.386  -0.569  1.00  0.00    -0.047 A 
ATOM      8  C   UNL     1       5.627   1.553  -0.357  1.00  0.00     0.004 A 
ATOM      9  C   UNL     1       6.391  -0.566   0.422  1.00  0.00     0.004 A 
ATOM     10  C   UNL     1       5.006   1.721   0.882  1.00  0.00     0.000 A 
ATOM     11  C   UNL     1       5.776  -0.398   1.647  1.00  0.00     0.000 A 
ATOM     12  C   UNL     1       5.076   0.769   1.867  1.00  0.00     0.000 A 
ENDBRANCH   6   7
ENDBRANCH   1   6
TORSDOF 4
ENDMDL
MODEL 4
REMARK VINA RESULT:      -6.8      3.375      5.040
REMARK SMILES O=C(O)CCc1ccccc1
REMARK SMILES IDX 4 1 2 2 1 3 3 4 5 6 6 7 7 8 11 9 8 10 10 11 9 12
REMARK H PARENT 3 5
REMARK Flexibility Score: inf
ROOT
ATOM      1  C   UNL     1       5.037   1.791   0.668  1.00  0.00     0.127 C 
ENDROOT
BRANCH   1   2
ATOM      2  C   UNL     1       4.523   1.125   1.888  1.00  0.00     0.303 C 
ATOM      3  O   UNL     1       5.188   0.235   2.473  1.00  0.00    -0.252 OA
BRANCH   2   4
ATOM      4  O   UNL     1       3.289   1.468   2.418  1.00  0.00    -0.481 OA
ATOM      5  H   UNL     1       2.549   0.762   2.462  1.00  0.00     0.296 HD
ENDBRANCH   2   4
ENDBRANCH   1   2
BRANCH   1   6
ATOM      6  C   UNL     1       6.534   1.790   0.727  1.00  0.00     0.047 C 
BRANCH   6   7
ATOM      7  C   UNL     1       7.171   1.038  -0.353  1.00  0.00    -0.047 A 
ATOM      8  C   UNL     1       8.501   1.222  -0.649  1.00  0.00     0.004 A 
ATOM      9  C   UNL     1       6.423   0.137  -1.076  1.00  0.00     0.004 A 
ATOM     10  C   UNL     1       9.043   0.469  -1.693  1.00  0.00     0.000 A 
ATOM     11  C   UNL     1       6.960  -0.606  -2.108  1.00  0.00     0.000 A 
ATOM     12  C   UNL     1       8.292  -0.427  -2.411  1.00  0.00     0.000 A 
ENDBRANCH   6   7
ENDBRANCH   1   6
TORSDOF 4
ENDMDL
MODEL 5
REMARK VINA RESULT:      -6.6      3.691      5.038
REMARK SMILES O=C(O)CCc1ccccc1
REMARK SMILES IDX 4 1 2 2 1 3 3 4 5 6 6 7 7 8 11 9 8 10 10 11 9 12
REMARK H PARENT 3 5
REMARK Flexibility Score: inf
ROOT
ATOM      1  C   UNL     1       5.365   2.931   0.071  1.00  0.00     0.127 C 
ENDROOT
BRANCH   1   2
ATOM      2  C   UNL     1       6.305   3.774   0.846  1.00  0.00     0.303 C 
ATOM      3  O   UNL     1       6.862   4.774   0.328  1.00  0.00    -0.252 OA
BRANCH   2   4
ATOM      4  O   UNL     1       6.596   3.481   2.168  1.00  0.00    -0.481 OA
ATOM      5  H   UNL     1       7.027   2.581   2.399  1.00  0.00     0.296 HD
ENDBRANCH   2   4
ENDBRANCH   1   2
BRANCH   1   6
ATOM      6  C   UNL     1       5.215   1.619   0.779  1.00  0.00     0.047 C 
BRANCH   6   7
ATOM      7  C   UNL     1       6.009   0.537   0.200  1.00  0.00    -0.047 A 
ATOM      8  C   UNL     1       6.424  -0.522   0.974  1.00  0.00     0.004 A 
ATOM      9  C   UNL     1       6.337   0.585  -1.135  1.00  0.00     0.004 A 
ATOM     10  C   UNL     1       7.179  -1.521   0.354  1.00  0.00     0.000 A 
ATOM     11  C   UNL     1       7.083  -0.404  -1.746  1.00  0.00     0.000 A 
ATOM     12  C   UNL     1       7.504  -1.467  -0.977  1.00  0.00     0.000 A 
ENDBRANCH   6   7
ENDBRANCH   1   6
TORSDOF 4
ENDMDL
