@<TRIPOS>MOLECULE
/home/cewinharhar/GITHUB/reincatalyze/data/processed/docking_pred/2023-Apr-26-1657_maxeplen10_maxtrainstep1000_exh32_gamma099_lrac9e-4_lrcr1e-3/e8fc6854485d68a8d0bf78bf523603f1a9cbeca9_ligand_2.pdbqt
 12 12 0 0 0
SMALL
GASTEIGER

@<TRIPOS>ATOM
      1  C          8.4510   -0.5690   -2.2040 C.3     1  UNL1        0.1270
      2  C          8.4940   -1.8660   -2.9200 C.2     1  UNL1        0.3030
      3  O          9.5740   -2.4870   -3.0780 O.2     1  UNL1       -0.2520
      4  O          7.3380   -2.4300   -3.4370 O.3     1  UNL1       -0.4810
      5  H          6.9790   -3.2980   -3.0290 H       1  UNL1        0.2960
      6  C          7.0290   -0.0990   -2.1660 C.3     1  UNL1        0.0470
      7  C          6.4940    0.0700   -0.8160 C.2     1  UNL1       -0.0470
      8  C          5.8500    1.2310   -0.4550 C.2     1  UNL1        0.0040
      9  C          6.6390   -0.9500    0.0950 C.2     1  UNL1        0.0040
     10  C          5.3630    1.3220    0.8510 C.2     1  UNL1        0.0000
     11  C          6.1570   -0.8580    1.3860 C.2     1  UNL1        0.0000
     12  C          5.5120    0.3020    1.7560 C.2     1  UNL1        0.0000
@<TRIPOS>BOND
     1     4     5    1
     2     4     2    1
     3     3     2    2
     4     2     1    1
     5     1     6    1
     6     6     7    1
     7     7     8    2
     8     7     9    1
     9     8    10    1
    10     9    11    2
    11    10    12    2
    12    11    12    1
