@<TRIPOS>MOLECULE
/home/cewinharhar/GITHUB/reincatalyze/data/processed/docking_pred/2023-Apr-26-1657_maxeplen10_maxtrainstep1000_exh32_gamma099_lrac9e-4_lrcr1e-3/e8fc6854485d68a8d0bf78bf523603f1a9cbeca9_ligand_2.pdbqt
 12 12 0 0 0
SMALL
GASTEIGER

@<TRIPOS>ATOM
      1  C          8.3860   -0.6130   -2.1400 C.3     1  UNL1        0.1270
      2  C          8.3640   -1.8840   -2.9010 C.2     1  UNL1        0.3030
      3  O          7.2810   -2.4110   -3.2560 O.2     1  UNL1       -0.2520
      4  O          9.5420   -2.5260   -3.2440 O.3     1  UNL1       -0.4810
      5  H         10.4360   -2.0510   -3.0880 H       1  UNL1        0.2960
      6  C          6.9890   -0.0730   -2.0850 C.3     1  UNL1        0.0470
      7  C          6.4540    0.0550   -0.7300 C.2     1  UNL1       -0.0470
      8  C          6.5880   -0.9690    0.1780 C.2     1  UNL1        0.0040
      9  C          5.8120    1.2170   -0.3690 C.2     1  UNL1        0.0040
     10  C          6.0530   -0.7780    1.4540 C.2     1  UNL1        0.0000
     11  C          5.2840    1.4040    0.8930 C.2     1  UNL1        0.0000
     12  C          5.4130    0.3830    1.8090 C.2     1  UNL1        0.0000
@<TRIPOS>BOND
     1     3     2    2
     2     4     5    1
     3     4     2    1
     4     2     1    1
     5     1     6    1
     6     6     7    1
     7     7     9    2
     8     7     8    1
     9     9    11    1
    10     8    10    2
    11    11    12    2
    12    10    12    1
