@<TRIPOS>MOLECULE
/home/cewinharhar/GITHUB/reincatalyze/data/processed/docking_pred/2023-Apr-26-1657_maxeplen10_maxtrainstep1000_exh32_gamma099_lrac9e-4_lrcr1e-3/e9ca5ba4bc0452251e134010a3e53239cf47eed8_ligand_2.pdbqt
 12 12 0 0 0
SMALL
GASTEIGER

@<TRIPOS>ATOM
      1  C          5.0420    1.7810    0.7410 C.3     1  UNL1        0.1270
      2  C          4.4820    1.1000    1.9330 C.2     1  UNL1        0.3030
      3  O          5.1050    0.1720    2.5050 O.2     1  UNL1       -0.2520
      4  O          3.2500    1.4700    2.4480 O.3     1  UNL1       -0.4810
      5  H          2.4030    1.0160    2.0970 H       1  UNL1        0.2960
      6  C          6.5360    1.6860    0.8040 C.3     1  UNL1        0.0470
      7  C          7.1320    0.9470   -0.3070 C.2     1  UNL1       -0.0470
      8  C          6.4160   -0.0190   -0.9740 C.2     1  UNL1        0.0040
      9  C          8.4240    1.2300   -0.6860 C.2     1  UNL1        0.0040
     10  C          7.0480   -0.6850   -2.0270 C.2     1  UNL1        0.0000
     11  C          9.0480    0.5720   -1.7270 C.2     1  UNL1        0.0000
     12  C          8.3370   -0.3990   -2.3990 C.2     1  UNL1        0.0000
@<TRIPOS>BOND
     1    12    10    2
     2    12    11    1
     3    10     8    1
     4    11     9    2
     5     8     7    2
     6     9     7    1
     7     7     6    1
     8     1     6    1
     9     1     2    1
    10     2     4    1
    11     2     3    2
    12     5     4    1
