@<TRIPOS>MOLECULE
/home/cewinharhar/GITHUB/reincatalyze/data/processed/docking_pred/2023-Apr-26-1657_maxeplen10_maxtrainstep1000_exh32_gamma099_lrac9e-4_lrcr1e-3/e9ca5ba4bc0452251e134010a3e53239cf47eed8_ligand_2.pdbqt
 12 12 0 0 0
SMALL
GASTEIGER

@<TRIPOS>ATOM
      1  C          8.1830   -0.8790   -1.9200 C.3     1  UNL1        0.1270
      2  C          8.3810   -2.0030   -2.8640 C.2     1  UNL1        0.3030
      3  O          9.5250   -2.4680   -3.0920 O.2     1  UNL1       -0.2520
      4  O          7.3050   -2.5750   -3.5240 O.3     1  UNL1       -0.4810
      5  H          6.3680   -2.4890   -3.1210 H       1  UNL1        0.2960
      6  C          7.3510   -1.3670   -0.7730 C.3     1  UNL1        0.0470
      7  C          6.5440   -0.3270   -0.1390 C.2     1  UNL1       -0.0470
      8  C          6.1230   -0.4610    1.1640 C.2     1  UNL1        0.0040
      9  C          6.2080    0.7950   -0.8590 C.2     1  UNL1        0.0040
     10  C          5.3550    0.5730    1.7070 C.2     1  UNL1        0.0000
     11  C          5.4490    1.8160   -0.3220 C.2     1  UNL1        0.0000
     12  C          5.0220    1.6900    0.9820 C.2     1  UNL1        0.0000
@<TRIPOS>BOND
     1     4     5    1
     2     4     2    1
     3     3     2    2
     4     2     1    1
     5     1     6    1
     6     9    11    1
     7     9     7    2
     8     6     7    1
     9    11    12    2
    10     7     8    1
    11    12    10    1
    12     8    10    2
