MODEL 1
REMARK VINA RESULT:      -7.3      0.000      0.000
REMARK SMILES O=C(O)CCc1ccccc1
REMARK SMILES IDX 4 1 2 2 1 3 3 4 5 6 6 7 7 8 11 9 8 10 10 11 9 12
REMARK H PARENT 3 5
REMARK Flexibility Score: inf
ROOT
ATOM      1  C   UNL     1       8.428  -0.554  -2.229  1.00  0.00     0.127 C 
ENDROOT
BRANCH   1   2
ATOM      2  C   UNL     1       8.480  -1.859  -2.928  1.00  0.00     0.303 C 
ATOM      3  O   UNL     1       9.566  -2.469  -3.088  1.00  0.00    -0.252 OA
BRANCH   2   4
ATOM      4  O   UNL     1       7.327  -2.445  -3.426  1.00  0.00    -0.481 OA
ATOM      5  H   UNL     1       6.442  -2.308  -2.930  1.00  0.00     0.296 HD
ENDBRANCH   2   4
ENDBRANCH   1   2
BRANCH   1   6
ATOM      6  C   UNL     1       6.999  -0.107  -2.173  1.00  0.00     0.047 C 
BRANCH   6   7
ATOM      7  C   UNL     1       6.479   0.050  -0.815  1.00  0.00    -0.047 A 
ATOM      8  C   UNL     1       6.620  -0.956   0.113  1.00  0.00     0.004 A 
ATOM      9  C   UNL     1       5.843   1.221  -0.471  1.00  0.00     0.004 A 
ATOM     10  C   UNL     1       6.100  -0.737   1.390  1.00  0.00     0.000 A 
ATOM     11  C   UNL     1       5.329   1.435   0.792  1.00  0.00     0.000 A 
ATOM     12  C   UNL     1       5.466   0.433   1.728  1.00  0.00     0.000 A 
ENDBRANCH   6   7
ENDBRANCH   1   6
TORSDOF 4
ENDMDL
MODEL 2
REMARK VINA RESULT:      -7.3      0.132      1.442
REMARK SMILES O=C(O)CCc1ccccc1
REMARK SMILES IDX 4 1 2 2 1 3 3 4 5 6 6 7 7 8 11 9 8 10 10 11 9 12
REMARK H PARENT 3 5
REMARK Flexibility Score: inf
ROOT
ATOM      1  C   UNL     1       8.444  -0.598  -2.166  1.00  0.00     0.127 C 
ENDROOT
BRANCH   1   2
ATOM      2  C   UNL     1       8.467  -1.876  -2.916  1.00  0.00     0.303 C 
ATOM      3  O   UNL     1       9.540  -2.502  -3.101  1.00  0.00    -0.252 OA
BRANCH   2   4
ATOM      4  O   UNL     1       7.302  -2.415  -3.437  1.00  0.00    -0.481 OA
ATOM      5  H   UNL     1       6.555  -1.788  -3.747  1.00  0.00     0.296 HD
ENDBRANCH   2   4
ENDBRANCH   1   2
BRANCH   1   6
ATOM      6  C   UNL     1       7.029  -0.105  -2.120  1.00  0.00     0.047 C 
BRANCH   6   7
ATOM      7  C   UNL     1       6.491   0.032  -0.768  1.00  0.00    -0.047 A 
ATOM      8  C   UNL     1       5.865   1.192  -0.375  1.00  0.00     0.004 A 
ATOM      9  C   UNL     1       6.615  -1.016   0.113  1.00  0.00     0.004 A 
ATOM     10  C   UNL     1       5.373   1.253   0.931  1.00  0.00     0.000 A 
ATOM     11  C   UNL     1       6.129  -0.954   1.404  1.00  0.00     0.000 A 
ATOM     12  C   UNL     1       5.501   0.204   1.806  1.00  0.00     0.000 A 
ENDBRANCH   6   7
ENDBRANCH   1   6
TORSDOF 4
ENDMDL
MODEL 3
REMARK VINA RESULT:      -7.3      0.623      1.077
REMARK SMILES O=C(O)CCc1ccccc1
REMARK SMILES IDX 4 1 2 2 1 3 3 4 5 6 6 7 7 8 11 9 8 10 10 11 9 12
REMARK H PARENT 3 5
REMARK Flexibility Score: inf
ROOT
ATOM      1  C   UNL     1       8.183  -0.879  -1.920  1.00  0.00     0.127 C 
ENDROOT
BRANCH   1   2
ATOM      2  C   UNL     1       8.381  -2.003  -2.864  1.00  0.00     0.303 C 
ATOM      3  O   UNL     1       9.525  -2.468  -3.092  1.00  0.00    -0.252 OA
BRANCH   2   4
ATOM      4  O   UNL     1       7.305  -2.575  -3.524  1.00  0.00    -0.481 OA
ATOM      5  H   UNL     1       6.368  -2.489  -3.121  1.00  0.00     0.296 HD
ENDBRANCH   2   4
ENDBRANCH   1   2
BRANCH   1   6
ATOM      6  C   UNL     1       7.351  -1.367  -0.773  1.00  0.00     0.047 C 
BRANCH   6   7
ATOM      7  C   UNL     1       6.544  -0.327  -0.139  1.00  0.00    -0.047 A 
ATOM      8  C   UNL     1       6.123  -0.461   1.164  1.00  0.00     0.004 A 
ATOM      9  C   UNL     1       6.208   0.795  -0.859  1.00  0.00     0.004 A 
ATOM     10  C   UNL     1       5.355   0.573   1.707  1.00  0.00     0.000 A 
ATOM     11  C   UNL     1       5.449   1.816  -0.322  1.00  0.00     0.000 A 
ATOM     12  C   UNL     1       5.022   1.690   0.982  1.00  0.00     0.000 A 
ENDBRANCH   6   7
ENDBRANCH   1   6
TORSDOF 4
ENDMDL
MODEL 4
REMARK VINA RESULT:      -7.1      0.688      1.873
REMARK SMILES O=C(O)CCc1ccccc1
REMARK SMILES IDX 4 1 2 2 1 3 3 4 5 6 6 7 7 8 11 9 8 10 10 11 9 12
REMARK H PARENT 3 5
REMARK Flexibility Score: inf
ROOT
ATOM      1  C   UNL     1       8.319  -0.970  -1.759  1.00  0.00     0.127 C 
ENDROOT
BRANCH   1   2
ATOM      2  C   UNL     1       8.349  -2.010  -2.814  1.00  0.00     0.303 C 
ATOM      3  O   UNL     1       7.289  -2.451  -3.323  1.00  0.00    -0.252 OA
BRANCH   2   4
ATOM      4  O   UNL     1       9.552  -2.527  -3.268  1.00  0.00    -0.481 OA
ATOM      5  H   UNL     1      10.080  -2.015  -3.980  1.00  0.00     0.296 HD
ENDBRANCH   2   4
ENDBRANCH   1   2
BRANCH   1   6
ATOM      6  C   UNL     1       7.339  -1.393  -0.708  1.00  0.00     0.047 C 
BRANCH   6   7
ATOM      7  C   UNL     1       6.536  -0.297  -0.169  1.00  0.00    -0.047 A 
ATOM      8  C   UNL     1       6.222   0.794  -0.946  1.00  0.00     0.004 A 
ATOM      9  C   UNL     1       6.091  -0.367   1.131  1.00  0.00     0.004 A 
ATOM     10  C   UNL     1       5.450   1.803  -0.366  1.00  0.00     0.000 A 
ATOM     11  C   UNL     1       5.328   0.632   1.703  1.00  0.00     0.000 A 
ATOM     12  C   UNL     1       5.010   1.728   0.931  1.00  0.00     0.000 A 
ENDBRANCH   6   7
ENDBRANCH   1   6
TORSDOF 4
ENDMDL
MODEL 5
REMARK VINA RESULT:      -6.8      3.379      5.052
REMARK SMILES O=C(O)CCc1ccccc1
REMARK SMILES IDX 4 1 2 2 1 3 3 4 5 6 6 7 7 8 11 9 8 10 10 11 9 12
REMARK H PARENT 3 5
REMARK Flexibility Score: inf
ROOT
ATOM      1  C   UNL     1       5.042   1.781   0.741  1.00  0.00     0.127 C 
ENDROOT
BRANCH   1   2
ATOM      2  C   UNL     1       4.482   1.100   1.933  1.00  0.00     0.303 C 
ATOM      3  O   UNL     1       5.105   0.172   2.505  1.00  0.00    -0.252 OA
BRANCH   2   4
ATOM      4  O   UNL     1       3.250   1.470   2.448  1.00  0.00    -0.481 OA
ATOM      5  H   UNL     1       2.403   1.016   2.097  1.00  0.00     0.296 HD
ENDBRANCH   2   4
ENDBRANCH   1   2
BRANCH   1   6
ATOM      6  C   UNL     1       6.536   1.686   0.804  1.00  0.00     0.047 C 
BRANCH   6   7
ATOM      7  C   UNL     1       7.132   0.947  -0.307  1.00  0.00    -0.047 A 
ATOM      8  C   UNL     1       6.416  -0.019  -0.974  1.00  0.00     0.004 A 
ATOM      9  C   UNL     1       8.424   1.230  -0.686  1.00  0.00     0.004 A 
ATOM     10  C   UNL     1       7.048  -0.685  -2.027  1.00  0.00     0.000 A 
ATOM     11  C   UNL     1       9.048   0.572  -1.727  1.00  0.00     0.000 A 
ATOM     12  C   UNL     1       8.337  -0.399  -2.399  1.00  0.00     0.000 A 
ENDBRANCH   6   7
ENDBRANCH   1   6
TORSDOF 4
ENDMDL
