@<TRIPOS>MOLECULE
/home/cewinharhar/GITHUB/reincatalyze/data/processed/docking_pred/2023-Apr-26-1657_maxeplen10_maxtrainstep1000_exh32_gamma099_lrac9e-4_lrcr1e-3/e9ca5ba4bc0452251e134010a3e53239cf47eed8_ligand_2.pdbqt
 12 12 0 0 0
SMALL
GASTEIGER

@<TRIPOS>ATOM
      1  C          8.3190   -0.9700   -1.7590 C.3     1  UNL1        0.1270
      2  C          8.3490   -2.0100   -2.8140 C.2     1  UNL1        0.3030
      3  O          7.2890   -2.4510   -3.3230 O.2     1  UNL1       -0.2520
      4  O          9.5520   -2.5270   -3.2680 O.3     1  UNL1       -0.4810
      5  H         10.0800   -2.0150   -3.9800 H       1  UNL1        0.2960
      6  C          7.3390   -1.3930   -0.7080 C.3     1  UNL1        0.0470
      7  C          6.5360   -0.2970   -0.1690 C.2     1  UNL1       -0.0470
      8  C          6.2220    0.7940   -0.9460 C.2     1  UNL1        0.0040
      9  C          6.0910   -0.3670    1.1310 C.2     1  UNL1        0.0040
     10  C          5.4500    1.8030   -0.3660 C.2     1  UNL1        0.0000
     11  C          5.3280    0.6320    1.7030 C.2     1  UNL1        0.0000
     12  C          5.0100    1.7280    0.9310 C.2     1  UNL1        0.0000
@<TRIPOS>BOND
     1     5     4    1
     2     3     2    2
     3     4     2    1
     4     2     1    1
     5     1     6    1
     6     8    10    1
     7     8     7    2
     8     6     7    1
     9    10    12    2
    10     7     9    1
    11    12    11    1
    12     9    11    2
