@<TRIPOS>MOLECULE
/home/cewinharhar/GITHUB/reincatalyze/data/processed/docking_pred/2023-Apr-26-1657_maxeplen10_maxtrainstep1000_exh32_gamma099_lrac9e-4_lrcr1e-3/e9ca5ba4bc0452251e134010a3e53239cf47eed8_ligand_2.pdbqt
 12 12 0 0 0
SMALL
GASTEIGER

@<TRIPOS>ATOM
      1  C          8.4440   -0.5980   -2.1660 C.3     1  UNL1        0.1270
      2  C          8.4670   -1.8760   -2.9160 C.2     1  UNL1        0.3030
      3  O          9.5400   -2.5020   -3.1010 O.2     1  UNL1       -0.2520
      4  O          7.3020   -2.4150   -3.4370 O.3     1  UNL1       -0.4810
      5  H          6.5550   -1.7880   -3.7470 H       1  UNL1        0.2960
      6  C          7.0290   -0.1050   -2.1200 C.3     1  UNL1        0.0470
      7  C          6.4910    0.0320   -0.7680 C.2     1  UNL1       -0.0470
      8  C          5.8650    1.1920   -0.3750 C.2     1  UNL1        0.0040
      9  C          6.6150   -1.0160    0.1130 C.2     1  UNL1        0.0040
     10  C          5.3730    1.2530    0.9310 C.2     1  UNL1        0.0000
     11  C          6.1290   -0.9540    1.4040 C.2     1  UNL1        0.0000
     12  C          5.5010    0.2040    1.8060 C.2     1  UNL1        0.0000
@<TRIPOS>BOND
     1     5     4    1
     2     4     2    1
     3     3     2    2
     4     2     1    1
     5     1     6    1
     6     6     7    1
     7     7     8    2
     8     7     9    1
     9     8    10    1
    10     9    11    2
    11    10    12    2
    12    11    12    1
