@<TRIPOS>MOLECULE
/home/cewinharhar/GITHUB/reincatalyze/data/processed/docking_pred/2023-Apr-26-1657_maxeplen10_maxtrainstep1000_exh32_gamma099_lrac9e-4_lrcr1e-3/ea9f39b4277e7ba3f00603e8654b95ed05d2571c_ligand_2.pdbqt
 12 12 0 0 0
SMALL
GASTEIGER

@<TRIPOS>ATOM
      1  C          8.2800    0.2340   -2.1760 C.3     1  UNL1        0.1270
      2  C          9.4040    0.3570   -1.2180 C.2     1  UNL1        0.3030
      3  O          9.4820   -0.3840   -0.2080 O.2     1  UNL1       -0.2520
      4  O         10.4030    1.2980   -1.4130 O.3     1  UNL1       -0.4810
      5  H         10.2880    2.0070   -2.1420 H       1  UNL1        0.2960
      6  C          7.1820   -0.5420   -1.5160 C.3     1  UNL1        0.0470
      7  C          6.3840    0.2400   -0.5730 C.2     1  UNL1       -0.0470
      8  C          6.1730   -0.2080    0.7110 C.2     1  UNL1        0.0040
      9  C          5.8450    1.4380   -0.9820 C.2     1  UNL1        0.0040
     10  C          5.4030    0.5920    1.5580 C.2     1  UNL1        0.0000
     11  C          5.0830    2.2270   -0.1430 C.2     1  UNL1        0.0000
     12  C          4.8660    1.7850    1.1440 C.2     1  UNL1        0.0000
@<TRIPOS>BOND
     1     1     6    1
     2     1     2    1
     3     5     4    1
     4     6     7    1
     5     4     2    1
     6     2     3    2
     7     9     7    2
     8     9    11    1
     9     7     8    1
    10    11    12    2
    11     8    10    2
    12    12    10    1
