@<TRIPOS>MOLECULE
/home/cewinharhar/GITHUB/reincatalyze/data/processed/docking_pred/2023-Apr-26-1657_maxeplen10_maxtrainstep1000_exh32_gamma099_lrac9e-4_lrcr1e-3/ea9f39b4277e7ba3f00603e8654b95ed05d2571c_ligand_2.pdbqt
 12 12 0 0 0
SMALL
GASTEIGER

@<TRIPOS>ATOM
      1  C          8.1980   -0.8080   -2.0180 C.3     1  UNL1        0.1270
      2  C          8.3730   -1.9970   -2.8860 C.2     1  UNL1        0.3030
      3  O          9.5030   -2.5160   -3.0570 O.2     1  UNL1       -0.2520
      4  O          7.2900   -2.5680   -3.5340 O.3     1  UNL1       -0.4810
      5  H          6.7620   -3.3110   -3.0680 H       1  UNL1        0.2960
      6  C          7.5490   -1.2480   -0.7420 C.3     1  UNL1        0.0470
      7  C          6.6550   -0.2520   -0.1540 C.2     1  UNL1       -0.0470
      8  C          6.2660    0.8540   -0.8730 C.2     1  UNL1        0.0040
      9  C          6.2010   -0.4320    1.1320 C.2     1  UNL1        0.0040
     10  C          5.4090    1.7640   -0.2500 C.2     1  UNL1        0.0000
     11  C          5.3550    0.4690    1.7470 C.2     1  UNL1        0.0000
     12  C          4.9600    1.5800    1.0340 C.2     1  UNL1        0.0000
@<TRIPOS>BOND
     1     4     5    1
     2     4     2    1
     3     3     2    2
     4     2     1    1
     5     1     6    1
     6     8    10    1
     7     8     7    2
     8     6     7    1
     9    10    12    2
    10     7     9    1
    11    12    11    1
    12     9    11    2
