MODEL 1
REMARK VINA RESULT:      -7.4      0.000      0.000
REMARK SMILES O=C(O)CCc1ccccc1
REMARK SMILES IDX 4 1 2 2 1 3 3 4 5 6 6 7 7 8 11 9 8 10 10 11 9 12
REMARK H PARENT 3 5
REMARK Flexibility Score: inf
ROOT
ATOM      1  C   UNL     1       8.445  -0.590  -2.187  1.00  0.00     0.127 C 
ENDROOT
BRANCH   1   2
ATOM      2  C   UNL     1       8.484  -1.884  -2.909  1.00  0.00     0.303 C 
ATOM      3  O   UNL     1       9.566  -2.498  -3.085  1.00  0.00    -0.252 OA
BRANCH   2   4
ATOM      4  O   UNL     1       7.325  -2.453  -3.411  1.00  0.00    -0.481 OA
ATOM      5  H   UNL     1       7.181  -2.486  -4.424  1.00  0.00     0.296 HD
ENDBRANCH   2   4
ENDBRANCH   1   2
BRANCH   1   6
ATOM      6  C   UNL     1       7.023  -0.120  -2.142  1.00  0.00     0.047 C 
BRANCH   6   7
ATOM      7  C   UNL     1       6.489   0.030  -0.789  1.00  0.00    -0.047 A 
ATOM      8  C   UNL     1       6.626  -0.979   0.137  1.00  0.00     0.004 A 
ATOM      9  C   UNL     1       5.847   1.197  -0.446  1.00  0.00     0.004 A 
ATOM     10  C   UNL     1       6.093  -0.767   1.410  1.00  0.00     0.000 A 
ATOM     11  C   UNL     1       5.320   1.405   0.813  1.00  0.00     0.000 A 
ATOM     12  C   UNL     1       5.452   0.399   1.746  1.00  0.00     0.000 A 
ENDBRANCH   6   7
ENDBRANCH   1   6
TORSDOF 4
ENDMDL
MODEL 2
REMARK VINA RESULT:      -7.3      0.058      1.437
REMARK SMILES O=C(O)CCc1ccccc1
REMARK SMILES IDX 4 1 2 2 1 3 3 4 5 6 6 7 7 8 11 9 8 10 10 11 9 12
REMARK H PARENT 3 5
REMARK Flexibility Score: inf
ROOT
ATOM      1  C   UNL     1       8.440  -0.591  -2.187  1.00  0.00     0.127 C 
ENDROOT
BRANCH   1   2
ATOM      2  C   UNL     1       8.489  -1.888  -2.902  1.00  0.00     0.303 C 
ATOM      3  O   UNL     1       9.574  -2.496  -3.073  1.00  0.00    -0.252 OA
BRANCH   2   4
ATOM      4  O   UNL     1       7.334  -2.466  -3.405  1.00  0.00    -0.481 OA
ATOM      5  H   UNL     1       7.128  -3.444  -3.186  1.00  0.00     0.296 HD
ENDBRANCH   2   4
ENDBRANCH   1   2
BRANCH   1   6
ATOM      6  C   UNL     1       7.015  -0.127  -2.151  1.00  0.00     0.047 C 
BRANCH   6   7
ATOM      7  C   UNL     1       6.484   0.058  -0.801  1.00  0.00    -0.047 A 
ATOM      8  C   UNL     1       5.877   1.238  -0.440  1.00  0.00     0.004 A 
ATOM      9  C   UNL     1       6.596  -0.966   0.110  1.00  0.00     0.004 A 
ATOM     10  C   UNL     1       5.391   1.344   0.865  1.00  0.00     0.000 A 
ATOM     11  C   UNL     1       6.116  -0.859   1.401  1.00  0.00     0.000 A 
ATOM     12  C   UNL     1       5.507   0.320   1.771  1.00  0.00     0.000 A 
ENDBRANCH   6   7
ENDBRANCH   1   6
TORSDOF 4
ENDMDL
MODEL 3
REMARK VINA RESULT:      -7.2      0.610      1.582
REMARK SMILES O=C(O)CCc1ccccc1
REMARK SMILES IDX 4 1 2 2 1 3 3 4 5 6 6 7 7 8 11 9 8 10 10 11 9 12
REMARK H PARENT 3 5
REMARK Flexibility Score: inf
ROOT
ATOM      1  C   UNL     1       8.198  -0.808  -2.018  1.00  0.00     0.127 C 
ENDROOT
BRANCH   1   2
ATOM      2  C   UNL     1       8.373  -1.997  -2.886  1.00  0.00     0.303 C 
ATOM      3  O   UNL     1       9.503  -2.516  -3.057  1.00  0.00    -0.252 OA
BRANCH   2   4
ATOM      4  O   UNL     1       7.290  -2.568  -3.534  1.00  0.00    -0.481 OA
ATOM      5  H   UNL     1       6.762  -3.311  -3.068  1.00  0.00     0.296 HD
ENDBRANCH   2   4
ENDBRANCH   1   2
BRANCH   1   6
ATOM      6  C   UNL     1       7.549  -1.248  -0.742  1.00  0.00     0.047 C 
BRANCH   6   7
ATOM      7  C   UNL     1       6.655  -0.252  -0.154  1.00  0.00    -0.047 A 
ATOM      8  C   UNL     1       6.266   0.854  -0.873  1.00  0.00     0.004 A 
ATOM      9  C   UNL     1       6.201  -0.432   1.132  1.00  0.00     0.004 A 
ATOM     10  C   UNL     1       5.409   1.764  -0.250  1.00  0.00     0.000 A 
ATOM     11  C   UNL     1       5.355   0.469   1.747  1.00  0.00     0.000 A 
ATOM     12  C   UNL     1       4.960   1.580   1.034  1.00  0.00     0.000 A 
ENDBRANCH   6   7
ENDBRANCH   1   6
TORSDOF 4
ENDMDL
MODEL 4
REMARK VINA RESULT:      -6.7      3.339      5.036
REMARK SMILES O=C(O)CCc1ccccc1
REMARK SMILES IDX 4 1 2 2 1 3 3 4 5 6 6 7 7 8 11 9 8 10 10 11 9 12
REMARK H PARENT 3 5
REMARK Flexibility Score: inf
ROOT
ATOM      1  C   UNL     1       5.053   1.725   0.686  1.00  0.00     0.127 C 
ENDROOT
BRANCH   1   2
ATOM      2  C   UNL     1       4.600   1.037   1.917  1.00  0.00     0.303 C 
ATOM      3  O   UNL     1       5.319   0.178   2.485  1.00  0.00    -0.252 OA
BRANCH   2   4
ATOM      4  O   UNL     1       3.367   1.325   2.479  1.00  0.00    -0.481 OA
ATOM      5  H   UNL     1       3.173   1.033   3.441  1.00  0.00     0.296 HD
ENDBRANCH   2   4
ENDBRANCH   1   2
BRANCH   1   6
ATOM      6  C   UNL     1       6.550   1.785   0.703  1.00  0.00     0.047 C 
BRANCH   6   7
ATOM      7  C   UNL     1       7.188   1.024  -0.371  1.00  0.00    -0.047 A 
ATOM      8  C   UNL     1       8.520   1.202  -0.663  1.00  0.00     0.004 A 
ATOM      9  C   UNL     1       6.440   0.121  -1.090  1.00  0.00     0.004 A 
ATOM     10  C   UNL     1       9.063   0.441  -1.701  1.00  0.00     0.000 A 
ATOM     11  C   UNL     1       6.978  -0.630  -2.116  1.00  0.00     0.000 A 
ATOM     12  C   UNL     1       8.312  -0.457  -2.416  1.00  0.00     0.000 A 
ENDBRANCH   6   7
ENDBRANCH   1   6
TORSDOF 4
ENDMDL
MODEL 5
REMARK VINA RESULT:      -6.7      1.936      2.306
REMARK SMILES O=C(O)CCc1ccccc1
REMARK SMILES IDX 4 1 2 2 1 3 3 4 5 6 6 7 7 8 11 9 8 10 10 11 9 12
REMARK H PARENT 3 5
REMARK Flexibility Score: inf
ROOT
ATOM      1  C   UNL     1       8.280   0.234  -2.176  1.00  0.00     0.127 C 
ENDROOT
BRANCH   1   2
ATOM      2  C   UNL     1       9.404   0.357  -1.218  1.00  0.00     0.303 C 
ATOM      3  O   UNL     1       9.482  -0.384  -0.208  1.00  0.00    -0.252 OA
BRANCH   2   4
ATOM      4  O   UNL     1      10.403   1.298  -1.413  1.00  0.00    -0.481 OA
ATOM      5  H   UNL     1      10.288   2.007  -2.142  1.00  0.00     0.296 HD
ENDBRANCH   2   4
ENDBRANCH   1   2
BRANCH   1   6
ATOM      6  C   UNL     1       7.182  -0.542  -1.516  1.00  0.00     0.047 C 
BRANCH   6   7
ATOM      7  C   UNL     1       6.384   0.240  -0.573  1.00  0.00    -0.047 A 
ATOM      8  C   UNL     1       6.173  -0.208   0.711  1.00  0.00     0.004 A 
ATOM      9  C   UNL     1       5.845   1.438  -0.982  1.00  0.00     0.004 A 
ATOM     10  C   UNL     1       5.403   0.592   1.558  1.00  0.00     0.000 A 
ATOM     11  C   UNL     1       5.083   2.227  -0.143  1.00  0.00     0.000 A 
ATOM     12  C   UNL     1       4.866   1.785   1.144  1.00  0.00     0.000 A 
ENDBRANCH   6   7
ENDBRANCH   1   6
TORSDOF 4
ENDMDL
