@<TRIPOS>MOLECULE
/home/cewinharhar/GITHUB/reincatalyze/data/processed/docking_pred/2023-Apr-26-1657_maxeplen10_maxtrainstep1000_exh32_gamma099_lrac9e-4_lrcr1e-3/ea9f39b4277e7ba3f00603e8654b95ed05d2571c_ligand_2.pdbqt
 12 12 0 0 0
SMALL
GASTEIGER

@<TRIPOS>ATOM
      1  C          8.4400   -0.5910   -2.1870 C.3     1  UNL1        0.1270
      2  C          8.4890   -1.8880   -2.9020 C.2     1  UNL1        0.3030
      3  O          9.5740   -2.4960   -3.0730 O.2     1  UNL1       -0.2520
      4  O          7.3340   -2.4660   -3.4050 O.3     1  UNL1       -0.4810
      5  H          7.1280   -3.4440   -3.1860 H       1  UNL1        0.2960
      6  C          7.0150   -0.1270   -2.1510 C.3     1  UNL1        0.0470
      7  C          6.4840    0.0580   -0.8010 C.2     1  UNL1       -0.0470
      8  C          5.8770    1.2380   -0.4400 C.2     1  UNL1        0.0040
      9  C          6.5960   -0.9660    0.1100 C.2     1  UNL1        0.0040
     10  C          5.3910    1.3440    0.8650 C.2     1  UNL1        0.0000
     11  C          6.1160   -0.8590    1.4010 C.2     1  UNL1        0.0000
     12  C          5.5070    0.3200    1.7710 C.2     1  UNL1        0.0000
@<TRIPOS>BOND
     1     4     5    1
     2     4     2    1
     3     3     2    2
     4     2     1    1
     5     1     6    1
     6     6     7    1
     7     7     8    2
     8     7     9    1
     9     8    10    1
    10     9    11    2
    11    10    12    2
    12    11    12    1
