@<TRIPOS>MOLECULE
/home/cewinharhar/GITHUB/reincatalyze/data/processed/docking_pred/2023-Apr-26-1657_maxeplen10_maxtrainstep1000_exh32_gamma099_lrac9e-4_lrcr1e-3/ea9f39b4277e7ba3f00603e8654b95ed05d2571c_ligand_2.pdbqt
 12 12 0 0 0
SMALL
GASTEIGER

@<TRIPOS>ATOM
      1  C          5.0530    1.7250    0.6860 C.3     1  UNL1        0.1270
      2  C          4.6000    1.0370    1.9170 C.2     1  UNL1        0.3030
      3  O          5.3190    0.1780    2.4850 O.2     1  UNL1       -0.2520
      4  O          3.3670    1.3250    2.4790 O.3     1  UNL1       -0.4810
      5  H          3.1730    1.0330    3.4410 H       1  UNL1        0.2960
      6  C          6.5500    1.7850    0.7030 C.3     1  UNL1        0.0470
      7  C          7.1880    1.0240   -0.3710 C.2     1  UNL1       -0.0470
      8  C          8.5200    1.2020   -0.6630 C.2     1  UNL1        0.0040
      9  C          6.4400    0.1210   -1.0900 C.2     1  UNL1        0.0040
     10  C          9.0630    0.4410   -1.7010 C.2     1  UNL1        0.0000
     11  C          6.9780   -0.6300   -2.1160 C.2     1  UNL1        0.0000
     12  C          8.3120   -0.4570   -2.4160 C.2     1  UNL1        0.0000
@<TRIPOS>BOND
     1    12    11    2
     2    12    10    1
     3    11     9    1
     4    10     8    2
     5     9     7    2
     6     8     7    1
     7     7     6    1
     8     1     6    1
     9     1     2    1
    10     2     4    1
    11     2     3    2
    12     4     5    1
