MODEL 1
REMARK VINA RESULT:      -7.3      0.000      0.000
REMARK SMILES O=C(O)CCc1ccccc1
REMARK SMILES IDX 4 1 2 2 1 3 3 4 5 6 6 7 7 8 11 9 8 10 10 11 9 12
REMARK H PARENT 3 5
REMARK Flexibility Score: inf
ROOT
ATOM      1  C   UNL     1       8.430  -0.667  -2.041  1.00  0.00     0.127 C 
ENDROOT
BRANCH   1   2
ATOM      2  C   UNL     1       8.469  -1.894  -2.871  1.00  0.00     0.303 C 
ATOM      3  O   UNL     1       9.551  -2.487  -3.106  1.00  0.00    -0.252 OA
BRANCH   2   4
ATOM      4  O   UNL     1       7.308  -2.421  -3.414  1.00  0.00    -0.481 OA
ATOM      5  H   UNL     1       7.350  -3.312  -3.916  1.00  0.00     0.296 HD
ENDBRANCH   2   4
ENDBRANCH   1   2
BRANCH   1   6
ATOM      6  C   UNL     1       7.031  -0.132  -2.058  1.00  0.00     0.047 C 
BRANCH   6   7
ATOM      7  C   UNL     1       6.456   0.071  -0.729  1.00  0.00    -0.047 A 
ATOM      8  C   UNL     1       5.810   1.244  -0.414  1.00  0.00     0.004 A 
ATOM      9  C   UNL     1       6.565  -0.929   0.210  1.00  0.00     0.004 A 
ATOM     10  C   UNL     1       5.284   1.369   0.874  1.00  0.00     0.000 A 
ATOM     11  C   UNL     1       6.045  -0.803   1.483  1.00  0.00     0.000 A 
ATOM     12  C   UNL     1       5.397   0.369   1.807  1.00  0.00     0.000 A 
ENDBRANCH   6   7
ENDBRANCH   1   6
TORSDOF 4
ENDMDL
MODEL 2
REMARK VINA RESULT:      -7.3      0.103      1.440
REMARK SMILES O=C(O)CCc1ccccc1
REMARK SMILES IDX 4 1 2 2 1 3 3 4 5 6 6 7 7 8 11 9 8 10 10 11 9 12
REMARK H PARENT 3 5
REMARK Flexibility Score: inf
ROOT
ATOM      1  C   UNL     1       8.459  -0.623  -2.152  1.00  0.00     0.127 C 
ENDROOT
BRANCH   1   2
ATOM      2  C   UNL     1       8.488  -1.897  -2.909  1.00  0.00     0.303 C 
ATOM      3  O   UNL     1       9.564  -2.515  -3.102  1.00  0.00    -0.252 OA
BRANCH   2   4
ATOM      4  O   UNL     1       7.323  -2.442  -3.427  1.00  0.00    -0.481 OA
ATOM      5  H   UNL     1       6.589  -1.818  -3.772  1.00  0.00     0.296 HD
ENDBRANCH   2   4
ENDBRANCH   1   2
BRANCH   1   6
ATOM      6  C   UNL     1       7.039  -0.148  -2.084  1.00  0.00     0.047 C 
BRANCH   6   7
ATOM      7  C   UNL     1       6.520  -0.020  -0.724  1.00  0.00    -0.047 A 
ATOM      8  C   UNL     1       6.694  -1.031   0.193  1.00  0.00     0.004 A 
ATOM      9  C   UNL     1       5.852   1.128  -0.365  1.00  0.00     0.004 A 
ATOM     10  C   UNL     1       6.172  -0.840   1.474  1.00  0.00     0.000 A 
ATOM     11  C   UNL     1       5.337   1.315   0.902  1.00  0.00     0.000 A 
ATOM     12  C   UNL     1       5.506   0.307   1.826  1.00  0.00     0.000 A 
ENDBRANCH   6   7
ENDBRANCH   1   6
TORSDOF 4
ENDMDL
MODEL 3
REMARK VINA RESULT:      -6.9      0.611      1.882
REMARK SMILES O=C(O)CCc1ccccc1
REMARK SMILES IDX 4 1 2 2 1 3 3 4 5 6 6 7 7 8 11 9 8 10 10 11 9 12
REMARK H PARENT 3 5
REMARK Flexibility Score: inf
ROOT
ATOM      1  C   UNL     1       8.275  -1.016  -1.653  1.00  0.00     0.127 C 
ENDROOT
BRANCH   1   2
ATOM      2  C   UNL     1       8.364  -2.079  -2.683  1.00  0.00     0.303 C 
ATOM      3  O   UNL     1       7.340  -2.495  -3.278  1.00  0.00    -0.252 OA
BRANCH   2   4
ATOM      4  O   UNL     1       9.585  -2.643  -3.017  1.00  0.00    -0.481 OA
ATOM      5  H   UNL     1       9.722  -3.650  -2.894  1.00  0.00     0.296 HD
ENDBRANCH   2   4
ENDBRANCH   1   2
BRANCH   1   6
ATOM      6  C   UNL     1       7.423  -1.520  -0.529  1.00  0.00     0.047 C 
BRANCH   6   7
ATOM      7  C   UNL     1       6.566  -0.500   0.071  1.00  0.00    -0.047 A 
ATOM      8  C   UNL     1       6.038  -0.675   1.329  1.00  0.00     0.004 A 
ATOM      9  C   UNL     1       6.291   0.647  -0.637  1.00  0.00     0.004 A 
ATOM     10  C   UNL     1       5.228   0.342   1.840  1.00  0.00     0.000 A 
ATOM     11  C   UNL     1       5.490   1.651  -0.131  1.00  0.00     0.000 A 
ATOM     12  C   UNL     1       4.957   1.483   1.129  1.00  0.00     0.000 A 
ENDBRANCH   6   7
ENDBRANCH   1   6
TORSDOF 4
ENDMDL
MODEL 4
REMARK VINA RESULT:      -6.7      3.370      5.063
REMARK SMILES O=C(O)CCc1ccccc1
REMARK SMILES IDX 4 1 2 2 1 3 3 4 5 6 6 7 7 8 11 9 8 10 10 11 9 12
REMARK H PARENT 3 5
REMARK Flexibility Score: inf
ROOT
ATOM      1  C   UNL     1       4.989   1.764   0.697  1.00  0.00     0.127 C 
ENDROOT
BRANCH   1   2
ATOM      2  C   UNL     1       4.489   1.090   1.918  1.00  0.00     0.303 C 
ATOM      3  O   UNL     1       5.158   0.191   2.486  1.00  0.00    -0.252 OA
BRANCH   2   4
ATOM      4  O   UNL     1       3.265   1.434   2.468  1.00  0.00    -0.481 OA
ATOM      5  H   UNL     1       3.241   1.985   3.331  1.00  0.00     0.296 HD
ENDBRANCH   2   4
ENDBRANCH   1   2
BRANCH   1   6
ATOM      6  C   UNL     1       6.486   1.795   0.756  1.00  0.00     0.047 C 
BRANCH   6   7
ATOM      7  C   UNL     1       7.140   1.065  -0.329  1.00  0.00    -0.047 A 
ATOM      8  C   UNL     1       8.481   1.234  -0.582  1.00  0.00     0.004 A 
ATOM      9  C   UNL     1       6.397   0.200  -1.099  1.00  0.00     0.004 A 
ATOM     10  C   UNL     1       9.039   0.503  -1.633  1.00  0.00     0.000 A 
ATOM     11  C   UNL     1       6.950  -0.521  -2.138  1.00  0.00     0.000 A 
ATOM     12  C   UNL     1       8.293  -0.358  -2.398  1.00  0.00     0.000 A 
ENDBRANCH   6   7
ENDBRANCH   1   6
TORSDOF 4
ENDMDL
MODEL 5
REMARK VINA RESULT:      -6.5      3.692      4.872
REMARK SMILES O=C(O)CCc1ccccc1
REMARK SMILES IDX 4 1 2 2 1 3 3 4 5 6 6 7 7 8 11 9 8 10 10 11 9 12
REMARK H PARENT 3 5
REMARK Flexibility Score: inf
ROOT
ATOM      1  C   UNL     1       5.449   2.966  -0.025  1.00  0.00     0.127 C 
ENDROOT
BRANCH   1   2
ATOM      2  C   UNL     1       6.309   3.835   0.813  1.00  0.00     0.303 C 
ATOM      3  O   UNL     1       7.308   4.422   0.330  1.00  0.00    -0.252 OA
BRANCH   2   4
ATOM      4  O   UNL     1       6.032   4.023   2.158  1.00  0.00    -0.481 OA
ATOM      5  H   UNL     1       5.402   4.779   2.439  1.00  0.00     0.296 HD
ENDBRANCH   2   4
ENDBRANCH   1   2
BRANCH   1   6
ATOM      6  C   UNL     1       4.874   1.892   0.847  1.00  0.00     0.047 C 
BRANCH   6   7
ATOM      7  C   UNL     1       5.668   0.665   0.882  1.00  0.00    -0.047 A 
ATOM      8  C   UNL     1       6.339   0.229  -0.237  1.00  0.00     0.004 A 
ATOM      9  C   UNL     1       5.742  -0.054   2.053  1.00  0.00     0.004 A 
ATOM     10  C   UNL     1       7.079  -0.950  -0.131  1.00  0.00     0.000 A 
ATOM     11  C   UNL     1       6.474  -1.220   2.156  1.00  0.00     0.000 A 
ATOM     12  C   UNL     1       7.148  -1.664   1.039  1.00  0.00     0.000 A 
ENDBRANCH   6   7
ENDBRANCH   1   6
TORSDOF 4
ENDMDL
