@<TRIPOS>MOLECULE
/home/cewinharhar/GITHUB/reincatalyze/data/processed/docking_pred/2023-Apr-26-1657_maxeplen10_maxtrainstep1000_exh32_gamma099_lrac9e-4_lrcr1e-3/eb53456adf8787420c4e8f25112cf644d6bf88f9_ligand_2.pdbqt
 12 12 0 0 0
SMALL
GASTEIGER

@<TRIPOS>ATOM
      1  C          4.9890    1.7640    0.6970 C.3     1  UNL1        0.1270
      2  C          4.4890    1.0900    1.9180 C.2     1  UNL1        0.3030
      3  O          5.1580    0.1910    2.4860 O.2     1  UNL1       -0.2520
      4  O          3.2650    1.4340    2.4680 O.3     1  UNL1       -0.4810
      5  H          3.2410    1.9850    3.3310 H       1  UNL1        0.2960
      6  C          6.4860    1.7950    0.7560 C.3     1  UNL1        0.0470
      7  C          7.1400    1.0650   -0.3290 C.2     1  UNL1       -0.0470
      8  C          8.4810    1.2340   -0.5820 C.2     1  UNL1        0.0040
      9  C          6.3970    0.2000   -1.0990 C.2     1  UNL1        0.0040
     10  C          9.0390    0.5030   -1.6330 C.2     1  UNL1        0.0000
     11  C          6.9500   -0.5210   -2.1380 C.2     1  UNL1        0.0000
     12  C          8.2930   -0.3580   -2.3980 C.2     1  UNL1        0.0000
@<TRIPOS>BOND
     1    12    11    2
     2    12    10    1
     3    11     9    1
     4    10     8    2
     5     9     7    2
     6     8     7    1
     7     7     6    1
     8     1     6    1
     9     1     2    1
    10     2     4    1
    11     2     3    2
    12     4     5    1
