@<TRIPOS>MOLECULE
/home/cewinharhar/GITHUB/reincatalyze/data/processed/docking_pred/2023-Apr-26-1657_maxeplen10_maxtrainstep1000_exh32_gamma099_lrac9e-4_lrcr1e-3/eb53456adf8787420c4e8f25112cf644d6bf88f9_ligand_2.pdbqt
 12 12 0 0 0
SMALL
GASTEIGER

@<TRIPOS>ATOM
      1  C          8.4590   -0.6230   -2.1520 C.3     1  UNL1        0.1270
      2  C          8.4880   -1.8970   -2.9090 C.2     1  UNL1        0.3030
      3  O          9.5640   -2.5150   -3.1020 O.2     1  UNL1       -0.2520
      4  O          7.3230   -2.4420   -3.4270 O.3     1  UNL1       -0.4810
      5  H          6.5890   -1.8180   -3.7720 H       1  UNL1        0.2960
      6  C          7.0390   -0.1480   -2.0840 C.3     1  UNL1        0.0470
      7  C          6.5200   -0.0200   -0.7240 C.2     1  UNL1       -0.0470
      8  C          6.6940   -1.0310    0.1930 C.2     1  UNL1        0.0040
      9  C          5.8520    1.1280   -0.3650 C.2     1  UNL1        0.0040
     10  C          6.1720   -0.8400    1.4740 C.2     1  UNL1        0.0000
     11  C          5.3370    1.3150    0.9020 C.2     1  UNL1        0.0000
     12  C          5.5060    0.3070    1.8260 C.2     1  UNL1        0.0000
@<TRIPOS>BOND
     1     5     4    1
     2     4     2    1
     3     3     2    2
     4     2     1    1
     5     1     6    1
     6     6     7    1
     7     7     9    2
     8     7     8    1
     9     9    11    1
    10     8    10    2
    11    11    12    2
    12    10    12    1
