@<TRIPOS>MOLECULE
/home/cewinharhar/GITHUB/reincatalyze/data/processed/docking_pred/2023-Apr-26-1657_maxeplen10_maxtrainstep1000_exh32_gamma099_lrac9e-4_lrcr1e-3/eb53456adf8787420c4e8f25112cf644d6bf88f9_ligand_2.pdbqt
 12 12 0 0 0
SMALL
GASTEIGER

@<TRIPOS>ATOM
      1  C          8.2750   -1.0160   -1.6530 C.3     1  UNL1        0.1270
      2  C          8.3640   -2.0790   -2.6830 C.2     1  UNL1        0.3030
      3  O          7.3400   -2.4950   -3.2780 O.2     1  UNL1       -0.2520
      4  O          9.5850   -2.6430   -3.0170 O.3     1  UNL1       -0.4810
      5  H          9.7220   -3.6500   -2.8940 H       1  UNL1        0.2960
      6  C          7.4230   -1.5200   -0.5290 C.3     1  UNL1        0.0470
      7  C          6.5660   -0.5000    0.0710 C.2     1  UNL1       -0.0470
      8  C          6.0380   -0.6750    1.3290 C.2     1  UNL1        0.0040
      9  C          6.2910    0.6470   -0.6370 C.2     1  UNL1        0.0040
     10  C          5.2280    0.3420    1.8400 C.2     1  UNL1        0.0000
     11  C          5.4900    1.6510   -0.1310 C.2     1  UNL1        0.0000
     12  C          4.9570    1.4830    1.1290 C.2     1  UNL1        0.0000
@<TRIPOS>BOND
     1     3     2    2
     2     4     5    1
     3     4     2    1
     4     2     1    1
     5     1     6    1
     6     9    11    1
     7     9     7    2
     8     6     7    1
     9    11    12    2
    10     7     8    1
    11    12    10    1
    12     8    10    2
