@<TRIPOS>MOLECULE
/home/cewinharhar/GITHUB/reincatalyze/data/processed/docking_pred/2023-Apr-26-1657_maxeplen10_maxtrainstep1000_exh32_gamma099_lrac9e-4_lrcr1e-3/eb53456adf8787420c4e8f25112cf644d6bf88f9_ligand_2.pdbqt
 12 12 0 0 0
SMALL
GASTEIGER

@<TRIPOS>ATOM
      1  C          8.4300   -0.6670   -2.0410 C.3     1  UNL1        0.1270
      2  C          8.4690   -1.8940   -2.8710 C.2     1  UNL1        0.3030
      3  O          9.5510   -2.4870   -3.1060 O.2     1  UNL1       -0.2520
      4  O          7.3080   -2.4210   -3.4140 O.3     1  UNL1       -0.4810
      5  H          7.3500   -3.3120   -3.9160 H       1  UNL1        0.2960
      6  C          7.0310   -0.1320   -2.0580 C.3     1  UNL1        0.0470
      7  C          6.4560    0.0710   -0.7290 C.2     1  UNL1       -0.0470
      8  C          5.8100    1.2440   -0.4140 C.2     1  UNL1        0.0040
      9  C          6.5650   -0.9290    0.2100 C.2     1  UNL1        0.0040
     10  C          5.2840    1.3690    0.8740 C.2     1  UNL1        0.0000
     11  C          6.0450   -0.8030    1.4830 C.2     1  UNL1        0.0000
     12  C          5.3970    0.3690    1.8070 C.2     1  UNL1        0.0000
@<TRIPOS>BOND
     1     5     4    1
     2     4     2    1
     3     3     2    2
     4     2     1    1
     5     6     1    1
     6     6     7    1
     7     7     8    2
     8     7     9    1
     9     8    10    1
    10     9    11    2
    11    10    12    2
    12    11    12    1
