@<TRIPOS>MOLECULE
/home/cewinharhar/GITHUB/reincatalyze/data/processed/docking_pred/2023-Apr-26-1657_maxeplen10_maxtrainstep1000_exh32_gamma099_lrac9e-4_lrcr1e-3/eb53456adf8787420c4e8f25112cf644d6bf88f9_ligand_2.pdbqt
 12 12 0 0 0
SMALL
GASTEIGER

@<TRIPOS>ATOM
      1  C          5.4490    2.9660   -0.0250 C.3     1  UNL1        0.1270
      2  C          6.3090    3.8350    0.8130 C.2     1  UNL1        0.3030
      3  O          7.3080    4.4220    0.3300 O.2     1  UNL1       -0.2520
      4  O          6.0320    4.0230    2.1580 O.3     1  UNL1       -0.4810
      5  H          5.4020    4.7790    2.4390 H       1  UNL1        0.2960
      6  C          4.8740    1.8920    0.8470 C.3     1  UNL1        0.0470
      7  C          5.6680    0.6650    0.8820 C.2     1  UNL1       -0.0470
      8  C          6.3390    0.2290   -0.2370 C.2     1  UNL1        0.0040
      9  C          5.7420   -0.0540    2.0530 C.2     1  UNL1        0.0040
     10  C          7.0790   -0.9500   -0.1310 C.2     1  UNL1        0.0000
     11  C          6.4740   -1.2200    2.1560 C.2     1  UNL1        0.0000
     12  C          7.1480   -1.6640    1.0390 C.2     1  UNL1        0.0000
@<TRIPOS>BOND
     1     8    10    1
     2     8     7    2
     3    10    12    2
     4     1     2    1
     5     1     6    1
     6     3     2    2
     7     2     4    1
     8     6     7    1
     9     7     9    1
    10    12    11    1
    11     9    11    2
    12     4     5    1
