@<TRIPOS>MOLECULE
/home/cewinharhar/GITHUB/reincatalyze/data/processed/docking_pred/2023-Apr-26-1657_maxeplen10_maxtrainstep1000_exh32_gamma099_lrac9e-4_lrcr1e-3/eb9358f7bad4db9539b7d0967c6d7dee777b6146_ligand_2.pdbqt
 12 12 0 0 0
SMALL
GASTEIGER

@<TRIPOS>ATOM
      1  C          7.2800   -1.2950   -2.1020 C.3     1  UNL1        0.1270
      2  C          8.7110   -1.3430   -2.4820 C.2     1  UNL1        0.3030
      3  O          9.5210   -0.4720   -2.0800 O.2     1  UNL1       -0.2520
      4  O          9.1960   -2.3540   -3.2960 O.3     1  UNL1       -0.4810
      5  H          8.5470   -3.0550   -3.6640 H       1  UNL1        0.2960
      6  C          7.1880   -1.3540   -0.6070 C.3     1  UNL1        0.0470
      7  C          6.4000   -0.2730   -0.0170 C.2     1  UNL1       -0.0470
      8  C          5.9250   -0.3710    1.2710 C.2     1  UNL1        0.0040
      9  C          6.1360    0.8510   -0.7640 C.2     1  UNL1        0.0040
     10  C          5.1800    0.6990    1.7700 C.2     1  UNL1        0.0000
     11  C          5.3990    1.9080   -0.2690 C.2     1  UNL1        0.0000
     12  C          4.9200    1.8180    1.0200 C.2     1  UNL1        0.0000
@<TRIPOS>BOND
     1     5     4    1
     2     4     2    1
     3     2     1    1
     4     2     3    2
     5     1     6    1
     6     9    11    1
     7     9     7    2
     8     6     7    1
     9    11    12    2
    10     7     8    1
    11    12    10    1
    12     8    10    2
