@<TRIPOS>MOLECULE
/home/cewinharhar/GITHUB/reincatalyze/data/processed/docking_pred/2023-Apr-26-1657_maxeplen10_maxtrainstep1000_exh32_gamma099_lrac9e-4_lrcr1e-3/eb9358f7bad4db9539b7d0967c6d7dee777b6146_ligand_2.pdbqt
 12 12 0 0 0
SMALL
GASTEIGER

@<TRIPOS>ATOM
      1  C          4.9830    1.8050    0.6710 C.3     1  UNL1        0.1270
      2  C          4.4910    1.1290    1.8950 C.2     1  UNL1        0.3030
      3  O          5.1690    0.2380    2.4640 O.2     1  UNL1       -0.2520
      4  O          3.2640    1.4630    2.4460 O.3     1  UNL1       -0.4810
      5  H          2.4190    1.3840    1.8730 H       1  UNL1        0.2960
      6  C          6.4810    1.8150    0.7100 C.3     1  UNL1        0.0470
      7  C          7.1090    1.0470   -0.3650 C.2     1  UNL1       -0.0470
      8  C          6.3730    0.1640   -1.1210 C.2     1  UNL1        0.0040
      9  C          8.4500    1.2180   -0.6170 C.2     1  UNL1        0.0040
     10  C          7.0370   -0.5350   -2.1310 C.2     1  UNL1        0.0000
     11  C          9.1060    0.5260   -1.6160 C.2     1  UNL1        0.0000
     12  C          8.3760   -0.3610   -2.3770 C.2     1  UNL1        0.0000
@<TRIPOS>BOND
     1    12    10    2
     2    12    11    1
     3    10     8    1
     4    11     9    2
     5     8     7    2
     6     9     7    1
     7     7     6    1
     8     1     6    1
     9     1     2    1
    10     5     4    1
    11     2     4    1
    12     2     3    2
