@<TRIPOS>MOLECULE
/home/cewinharhar/GITHUB/reincatalyze/data/processed/docking_pred/2023-Apr-26-1657_maxeplen10_maxtrainstep1000_exh32_gamma099_lrac9e-4_lrcr1e-3/eb9358f7bad4db9539b7d0967c6d7dee777b6146_ligand_2.pdbqt
 12 12 0 0 0
SMALL
GASTEIGER

@<TRIPOS>ATOM
      1  C          8.4490   -0.6410   -2.1310 C.3     1  UNL1        0.1270
      2  C          8.4730   -1.9090   -2.8980 C.2     1  UNL1        0.3030
      3  O          9.5420   -2.5440   -3.0730 O.2     1  UNL1       -0.2520
      4  O          7.3110   -2.4290   -3.4460 O.3     1  UNL1       -0.4810
      5  H          7.1110   -2.2720   -4.4370 H       1  UNL1        0.2960
      6  C          7.0360   -0.1450   -2.0860 C.3     1  UNL1        0.0470
      7  C          6.4950   -0.0110   -0.7340 C.2     1  UNL1       -0.0470
      8  C          6.6400   -1.0250    0.1840 C.2     1  UNL1        0.0040
      9  C          5.8370    1.1450   -0.3850 C.2     1  UNL1        0.0040
     10  C          6.1000   -0.8290    1.4570 C.2     1  UNL1        0.0000
     11  C          5.3030    1.3380    0.8730 C.2     1  UNL1        0.0000
     12  C          5.4430    0.3270    1.7990 C.2     1  UNL1        0.0000
@<TRIPOS>BOND
     1     5     4    1
     2     4     2    1
     3     3     2    2
     4     2     1    1
     5     1     6    1
     6     6     7    1
     7     7     9    2
     8     7     8    1
     9     9    11    1
    10     8    10    2
    11    11    12    2
    12    10    12    1
