@<TRIPOS>MOLECULE
/home/cewinharhar/GITHUB/reincatalyze/data/processed/docking_pred/2023-Apr-26-1657_maxeplen10_maxtrainstep1000_exh32_gamma099_lrac9e-4_lrcr1e-3/eb9358f7bad4db9539b7d0967c6d7dee777b6146_ligand_2.pdbqt
 12 12 0 0 0
SMALL
GASTEIGER

@<TRIPOS>ATOM
      1  C          8.4090   -0.6660   -2.0690 C.3     1  UNL1        0.1270
      2  C          8.3760   -1.9140   -2.8670 C.2     1  UNL1        0.3030
      3  O          7.2890   -2.4160   -3.2440 O.2     1  UNL1       -0.2520
      4  O          9.5480   -2.5630   -3.2200 O.3     1  UNL1       -0.4810
      5  H         10.1760   -2.1280   -3.9020 H       1  UNL1        0.2960
      6  C          7.0350   -0.0690   -2.0700 C.3     1  UNL1        0.0470
      7  C          6.4610    0.1050   -0.7370 C.2     1  UNL1       -0.0470
      8  C          5.8020    1.2650   -0.4010 C.2     1  UNL1        0.0040
      9  C          6.5830   -0.9090    0.1840 C.2     1  UNL1        0.0040
     10  C          5.2780    1.3620    0.8900 C.2     1  UNL1        0.0000
     11  C          6.0650   -0.8120    1.4600 C.2     1  UNL1        0.0000
     12  C          5.4040    0.3480    1.8050 C.2     1  UNL1        0.0000
@<TRIPOS>BOND
     1     5     4    1
     2     3     2    2
     3     4     2    1
     4     2     1    1
     5     6     1    1
     6     6     7    1
     7     7     8    2
     8     7     9    1
     9     8    10    1
    10     9    11    2
    11    10    12    2
    12    11    12    1
