MODEL 1
REMARK VINA RESULT:      -7.4      0.000      0.000
REMARK SMILES O=C(O)CCc1ccccc1
REMARK SMILES IDX 4 1 2 2 1 3 3 4 5 6 6 7 7 8 11 9 8 10 10 11 9 12
REMARK H PARENT 3 5
REMARK Flexibility Score: inf
ROOT
ATOM      1  C   UNL     1       8.449  -0.641  -2.131  1.00  0.00     0.127 C 
ENDROOT
BRANCH   1   2
ATOM      2  C   UNL     1       8.473  -1.909  -2.898  1.00  0.00     0.303 C 
ATOM      3  O   UNL     1       9.542  -2.544  -3.073  1.00  0.00    -0.252 OA
BRANCH   2   4
ATOM      4  O   UNL     1       7.311  -2.429  -3.446  1.00  0.00    -0.481 OA
ATOM      5  H   UNL     1       7.111  -2.272  -4.437  1.00  0.00     0.296 HD
ENDBRANCH   2   4
ENDBRANCH   1   2
BRANCH   1   6
ATOM      6  C   UNL     1       7.036  -0.145  -2.086  1.00  0.00     0.047 C 
BRANCH   6   7
ATOM      7  C   UNL     1       6.495  -0.011  -0.734  1.00  0.00    -0.047 A 
ATOM      8  C   UNL     1       6.640  -1.025   0.184  1.00  0.00     0.004 A 
ATOM      9  C   UNL     1       5.837   1.145  -0.385  1.00  0.00     0.004 A 
ATOM     10  C   UNL     1       6.100  -0.829   1.457  1.00  0.00     0.000 A 
ATOM     11  C   UNL     1       5.303   1.338   0.873  1.00  0.00     0.000 A 
ATOM     12  C   UNL     1       5.443   0.327   1.799  1.00  0.00     0.000 A 
ENDBRANCH   6   7
ENDBRANCH   1   6
TORSDOF 4
ENDMDL
MODEL 2
REMARK VINA RESULT:      -7.3      0.112      1.731
REMARK SMILES O=C(O)CCc1ccccc1
REMARK SMILES IDX 4 1 2 2 1 3 3 4 5 6 6 7 7 8 11 9 8 10 10 11 9 12
REMARK H PARENT 3 5
REMARK Flexibility Score: inf
ROOT
ATOM      1  C   UNL     1       8.409  -0.666  -2.069  1.00  0.00     0.127 C 
ENDROOT
BRANCH   1   2
ATOM      2  C   UNL     1       8.376  -1.914  -2.867  1.00  0.00     0.303 C 
ATOM      3  O   UNL     1       7.289  -2.416  -3.244  1.00  0.00    -0.252 OA
BRANCH   2   4
ATOM      4  O   UNL     1       9.548  -2.563  -3.220  1.00  0.00    -0.481 OA
ATOM      5  H   UNL     1      10.176  -2.128  -3.902  1.00  0.00     0.296 HD
ENDBRANCH   2   4
ENDBRANCH   1   2
BRANCH   1   6
ATOM      6  C   UNL     1       7.035  -0.069  -2.070  1.00  0.00     0.047 C 
BRANCH   6   7
ATOM      7  C   UNL     1       6.461   0.105  -0.737  1.00  0.00    -0.047 A 
ATOM      8  C   UNL     1       5.802   1.265  -0.401  1.00  0.00     0.004 A 
ATOM      9  C   UNL     1       6.583  -0.909   0.184  1.00  0.00     0.004 A 
ATOM     10  C   UNL     1       5.278   1.362   0.890  1.00  0.00     0.000 A 
ATOM     11  C   UNL     1       6.065  -0.812   1.460  1.00  0.00     0.000 A 
ATOM     12  C   UNL     1       5.404   0.348   1.805  1.00  0.00     0.000 A 
ENDBRANCH   6   7
ENDBRANCH   1   6
TORSDOF 4
ENDMDL
MODEL 3
REMARK VINA RESULT:      -7.3      0.649      1.601
REMARK SMILES O=C(O)CCc1ccccc1
REMARK SMILES IDX 4 1 2 2 1 3 3 4 5 6 6 7 7 8 11 9 8 10 10 11 9 12
REMARK H PARENT 3 5
REMARK Flexibility Score: inf
ROOT
ATOM      1  C   UNL     1       8.262  -0.835  -1.919  1.00  0.00     0.127 C 
ENDROOT
BRANCH   1   2
ATOM      2  C   UNL     1       8.419  -1.974  -2.853  1.00  0.00     0.303 C 
ATOM      3  O   UNL     1       9.550  -2.461  -3.102  1.00  0.00    -0.252 OA
BRANCH   2   4
ATOM      4  O   UNL     1       7.319  -2.536  -3.480  1.00  0.00    -0.481 OA
ATOM      5  H   UNL     1       7.301  -3.545  -3.653  1.00  0.00     0.296 HD
ENDBRANCH   2   4
ENDBRANCH   1   2
BRANCH   1   6
ATOM      6  C   UNL     1       7.401  -1.279  -0.776  1.00  0.00     0.047 C 
BRANCH   6   7
ATOM      7  C   UNL     1       6.565  -0.219  -0.215  1.00  0.00    -0.047 A 
ATOM      8  C   UNL     1       6.191   0.861  -0.981  1.00  0.00     0.004 A 
ATOM      9  C   UNL     1       6.149  -0.313   1.093  1.00  0.00     0.004 A 
ATOM     10  C   UNL     1       5.390   1.835  -0.380  1.00  0.00     0.000 A 
ATOM     11  C   UNL     1       5.358   0.651   1.685  1.00  0.00     0.000 A 
ATOM     12  C   UNL     1       4.980   1.737   0.926  1.00  0.00     0.000 A 
ENDBRANCH   6   7
ENDBRANCH   1   6
TORSDOF 4
ENDMDL
MODEL 4
REMARK VINA RESULT:      -7.0      1.002      1.535
REMARK SMILES O=C(O)CCc1ccccc1
REMARK SMILES IDX 4 1 2 2 1 3 3 4 5 6 6 7 7 8 11 9 8 10 10 11 9 12
REMARK H PARENT 3 5
REMARK Flexibility Score: inf
ROOT
ATOM      1  C   UNL     1       7.280  -1.295  -2.102  1.00  0.00     0.127 C 
ENDROOT
BRANCH   1   2
ATOM      2  C   UNL     1       8.711  -1.343  -2.482  1.00  0.00     0.303 C 
ATOM      3  O   UNL     1       9.521  -0.472  -2.080  1.00  0.00    -0.252 OA
BRANCH   2   4
ATOM      4  O   UNL     1       9.196  -2.354  -3.296  1.00  0.00    -0.481 OA
ATOM      5  H   UNL     1       8.547  -3.055  -3.664  1.00  0.00     0.296 HD
ENDBRANCH   2   4
ENDBRANCH   1   2
BRANCH   1   6
ATOM      6  C   UNL     1       7.188  -1.354  -0.607  1.00  0.00     0.047 C 
BRANCH   6   7
ATOM      7  C   UNL     1       6.400  -0.273  -0.017  1.00  0.00    -0.047 A 
ATOM      8  C   UNL     1       5.925  -0.371   1.271  1.00  0.00     0.004 A 
ATOM      9  C   UNL     1       6.136   0.851  -0.764  1.00  0.00     0.004 A 
ATOM     10  C   UNL     1       5.180   0.699   1.770  1.00  0.00     0.000 A 
ATOM     11  C   UNL     1       5.399   1.908  -0.269  1.00  0.00     0.000 A 
ATOM     12  C   UNL     1       4.920   1.818   1.020  1.00  0.00     0.000 A 
ENDBRANCH   6   7
ENDBRANCH   1   6
TORSDOF 4
ENDMDL
MODEL 5
REMARK VINA RESULT:      -6.8      3.384      5.072
REMARK SMILES O=C(O)CCc1ccccc1
REMARK SMILES IDX 4 1 2 2 1 3 3 4 5 6 6 7 7 8 11 9 8 10 10 11 9 12
REMARK H PARENT 3 5
REMARK Flexibility Score: inf
ROOT
ATOM      1  C   UNL     1       4.983   1.805   0.671  1.00  0.00     0.127 C 
ENDROOT
BRANCH   1   2
ATOM      2  C   UNL     1       4.491   1.129   1.895  1.00  0.00     0.303 C 
ATOM      3  O   UNL     1       5.169   0.238   2.464  1.00  0.00    -0.252 OA
BRANCH   2   4
ATOM      4  O   UNL     1       3.264   1.463   2.446  1.00  0.00    -0.481 OA
ATOM      5  H   UNL     1       2.419   1.384   1.873  1.00  0.00     0.296 HD
ENDBRANCH   2   4
ENDBRANCH   1   2
BRANCH   1   6
ATOM      6  C   UNL     1       6.481   1.815   0.710  1.00  0.00     0.047 C 
BRANCH   6   7
ATOM      7  C   UNL     1       7.109   1.047  -0.365  1.00  0.00    -0.047 A 
ATOM      8  C   UNL     1       6.373   0.164  -1.121  1.00  0.00     0.004 A 
ATOM      9  C   UNL     1       8.450   1.218  -0.617  1.00  0.00     0.004 A 
ATOM     10  C   UNL     1       7.037  -0.535  -2.131  1.00  0.00     0.000 A 
ATOM     11  C   UNL     1       9.106   0.526  -1.616  1.00  0.00     0.000 A 
ATOM     12  C   UNL     1       8.376  -0.361  -2.377  1.00  0.00     0.000 A 
ENDBRANCH   6   7
ENDBRANCH   1   6
TORSDOF 4
ENDMDL
