@<TRIPOS>MOLECULE
/home/cewinharhar/GITHUB/reincatalyze/data/processed/docking_pred/2023-Apr-26-1657_maxeplen10_maxtrainstep1000_exh32_gamma099_lrac9e-4_lrcr1e-3/f103505c31d1e9178b980ac5ab47259be3cc1632_ligand_2.pdbqt
 12 12 0 0 0
SMALL
GASTEIGER

@<TRIPOS>ATOM
      1  C          8.4040   -0.6470   -2.1020 C.3     1  UNL1        0.1270
      2  C          8.3760   -1.9030   -2.8870 C.2     1  UNL1        0.3030
      3  O          7.2900   -2.4170   -3.2550 O.2     1  UNL1       -0.2520
      4  O          9.5510   -2.5480   -3.2380 O.3     1  UNL1       -0.4810
      5  H         10.3370   -1.9970   -3.5940 H       1  UNL1        0.2960
      6  C          7.0200   -0.0750   -2.0800 C.3     1  UNL1        0.0470
      7  C          6.4590    0.0740   -0.7380 C.2     1  UNL1       -0.0470
      8  C          6.5720   -0.9380    0.1870 C.2     1  UNL1        0.0040
      9  C          5.8150    1.2430   -0.4040 C.2     1  UNL1        0.0040
     10  C          6.0140   -0.7280    1.4500 C.2     1  UNL1        0.0000
     11  C          5.2630    1.4490    0.8440 C.2     1  UNL1        0.0000
     12  C          5.3710    0.4400    1.7770 C.2     1  UNL1        0.0000
@<TRIPOS>BOND
     1     5     4    1
     2     3     2    2
     3     4     2    1
     4     2     1    1
     5     1     6    1
     6     6     7    1
     7     7     9    2
     8     7     8    1
     9     9    11    1
    10     8    10    2
    11    11    12    2
    12    10    12    1
