@<TRIPOS>MOLECULE
/home/cewinharhar/GITHUB/reincatalyze/data/processed/docking_pred/2023-Apr-26-1657_maxeplen10_maxtrainstep1000_exh32_gamma099_lrac9e-4_lrcr1e-3/f103505c31d1e9178b980ac5ab47259be3cc1632_ligand_2.pdbqt
 12 12 0 0 0
SMALL
GASTEIGER

@<TRIPOS>ATOM
      1  C          5.3750    2.9440    0.0210 C.3     1  UNL1        0.1270
      2  C          6.2080    3.8860    0.8050 C.2     1  UNL1        0.3030
      3  O          6.8920    4.7750    0.2390 O.2     1  UNL1       -0.2520
      4  O          6.2560    3.8100    2.1870 O.3     1  UNL1       -0.4810
      5  H          6.3250    2.8920    2.6370 H       1  UNL1        0.2960
      6  C          4.9520    1.8250    0.9240 C.3     1  UNL1        0.0470
      7  C          5.7470    0.6070    0.7740 C.2     1  UNL1       -0.0470
      8  C          6.3450    0.3010   -0.4260 C.2     1  UNL1        0.0040
      9  C          5.8930   -0.2350    1.8520 C.2     1  UNL1        0.0040
     10  C          7.0900   -0.8780   -0.4960 C.2     1  UNL1        0.0000
     11  C          6.6300   -1.4010    1.7800 C.2     1  UNL1        0.0000
     12  C          7.2320   -1.7150    0.5820 C.2     1  UNL1        0.0000
@<TRIPOS>BOND
     1    10     8    1
     2    10    12    2
     3     8     7    2
     4     1     2    1
     5     1     6    1
     6     3     2    2
     7    12    11    1
     8     7     6    1
     9     7     9    1
    10     2     4    1
    11    11     9    2
    12     4     5    1
