@<TRIPOS>MOLECULE
/home/cewinharhar/GITHUB/reincatalyze/data/processed/docking_pred/2023-Apr-26-1657_maxeplen10_maxtrainstep1000_exh32_gamma099_lrac9e-4_lrcr1e-3/f103505c31d1e9178b980ac5ab47259be3cc1632_ligand_2.pdbqt
 12 12 0 0 0
SMALL
GASTEIGER

@<TRIPOS>ATOM
      1  C          8.4210   -0.6400   -2.0840 C.3     1  UNL1        0.1270
      2  C          8.3840   -1.8910   -2.8770 C.2     1  UNL1        0.3030
      3  O          7.2950   -2.4090   -3.2270 O.2     1  UNL1       -0.2520
      4  O          9.5560   -2.5270   -3.2560 O.3     1  UNL1       -0.4810
      5  H          9.8520   -3.3700   -2.7570 H       1  UNL1        0.2960
      6  C          7.0450   -0.0460   -2.0790 C.3     1  UNL1        0.0470
      7  C          6.4720    0.1140   -0.7430 C.2     1  UNL1       -0.0470
      8  C          5.8170    1.2720   -0.3940 C.2     1  UNL1        0.0040
      9  C          6.5920   -0.9110    0.1660 C.2     1  UNL1        0.0040
     10  C          5.2930    1.3550    0.8980 C.2     1  UNL1        0.0000
     11  C          6.0740   -0.8270    1.4430 C.2     1  UNL1        0.0000
     12  C          5.4160    0.3300    1.8020 C.2     1  UNL1        0.0000
@<TRIPOS>BOND
     1     4     2    1
     2     4     5    1
     3     3     2    2
     4     2     1    1
     5     1     6    1
     6     6     7    1
     7     7     8    2
     8     7     9    1
     9     8    10    1
    10     9    11    2
    11    10    12    2
    12    11    12    1
