MODEL 1
REMARK VINA RESULT:      -7.2      0.000      0.000
REMARK SMILES O=C(O)CCc1ccccc1
REMARK SMILES IDX 4 1 2 2 1 3 3 4 5 6 6 7 7 8 11 9 8 10 10 11 9 12
REMARK H PARENT 3 5
REMARK Flexibility Score: inf
ROOT
ATOM      1  C   UNL     1       8.421  -0.640  -2.084  1.00  0.00     0.127 C 
ENDROOT
BRANCH   1   2
ATOM      2  C   UNL     1       8.384  -1.891  -2.877  1.00  0.00     0.303 C 
ATOM      3  O   UNL     1       7.295  -2.409  -3.227  1.00  0.00    -0.252 OA
BRANCH   2   4
ATOM      4  O   UNL     1       9.556  -2.527  -3.256  1.00  0.00    -0.481 OA
ATOM      5  H   UNL     1       9.852  -3.370  -2.757  1.00  0.00     0.296 HD
ENDBRANCH   2   4
ENDBRANCH   1   2
BRANCH   1   6
ATOM      6  C   UNL     1       7.045  -0.046  -2.079  1.00  0.00     0.047 C 
BRANCH   6   7
ATOM      7  C   UNL     1       6.472   0.114  -0.743  1.00  0.00    -0.047 A 
ATOM      8  C   UNL     1       5.817   1.272  -0.394  1.00  0.00     0.004 A 
ATOM      9  C   UNL     1       6.592  -0.911   0.166  1.00  0.00     0.004 A 
ATOM     10  C   UNL     1       5.293   1.355   0.898  1.00  0.00     0.000 A 
ATOM     11  C   UNL     1       6.074  -0.827   1.443  1.00  0.00     0.000 A 
ATOM     12  C   UNL     1       5.416   0.330   1.802  1.00  0.00     0.000 A 
ENDBRANCH   6   7
ENDBRANCH   1   6
TORSDOF 4
ENDMDL
MODEL 2
REMARK VINA RESULT:      -7.2      0.067      1.438
REMARK SMILES O=C(O)CCc1ccccc1
REMARK SMILES IDX 4 1 2 2 1 3 3 4 5 6 6 7 7 8 11 9 8 10 10 11 9 12
REMARK H PARENT 3 5
REMARK Flexibility Score: inf
ROOT
ATOM      1  C   UNL     1       8.404  -0.647  -2.102  1.00  0.00     0.127 C 
ENDROOT
BRANCH   1   2
ATOM      2  C   UNL     1       8.376  -1.903  -2.887  1.00  0.00     0.303 C 
ATOM      3  O   UNL     1       7.290  -2.417  -3.255  1.00  0.00    -0.252 OA
BRANCH   2   4
ATOM      4  O   UNL     1       9.551  -2.548  -3.238  1.00  0.00    -0.481 OA
ATOM      5  H   UNL     1      10.337  -1.997  -3.594  1.00  0.00     0.296 HD
ENDBRANCH   2   4
ENDBRANCH   1   2
BRANCH   1   6
ATOM      6  C   UNL     1       7.020  -0.075  -2.080  1.00  0.00     0.047 C 
BRANCH   6   7
ATOM      7  C   UNL     1       6.459   0.074  -0.738  1.00  0.00    -0.047 A 
ATOM      8  C   UNL     1       6.572  -0.938   0.187  1.00  0.00     0.004 A 
ATOM      9  C   UNL     1       5.815   1.243  -0.404  1.00  0.00     0.004 A 
ATOM     10  C   UNL     1       6.014  -0.728   1.450  1.00  0.00     0.000 A 
ATOM     11  C   UNL     1       5.263   1.449   0.844  1.00  0.00     0.000 A 
ATOM     12  C   UNL     1       5.371   0.440   1.777  1.00  0.00     0.000 A 
ENDBRANCH   6   7
ENDBRANCH   1   6
TORSDOF 4
ENDMDL
MODEL 3
REMARK VINA RESULT:      -6.8      3.302      5.117
REMARK SMILES O=C(O)CCc1ccccc1
REMARK SMILES IDX 4 1 2 2 1 3 3 4 5 6 6 7 7 8 11 9 8 10 10 11 9 12
REMARK H PARENT 3 5
REMARK Flexibility Score: inf
ROOT
ATOM      1  C   UNL     1       5.020   1.783   0.681  1.00  0.00     0.127 C 
ENDROOT
BRANCH   1   2
ATOM      2  C   UNL     1       4.500   1.115   1.898  1.00  0.00     0.303 C 
ATOM      3  O   UNL     1       5.154   0.210   2.473  1.00  0.00    -0.252 OA
BRANCH   2   4
ATOM      4  O   UNL     1       3.273   1.471   2.434  1.00  0.00    -0.481 OA
ATOM      5  H   UNL     1       3.177   2.374   2.908  1.00  0.00     0.296 HD
ENDBRANCH   2   4
ENDBRANCH   1   2
BRANCH   1   6
ATOM      6  C   UNL     1       6.517   1.782   0.747  1.00  0.00     0.047 C 
BRANCH   6   7
ATOM      7  C   UNL     1       7.159   1.041  -0.338  1.00  0.00    -0.047 A 
ATOM      8  C   UNL     1       8.488   1.238  -0.633  1.00  0.00     0.004 A 
ATOM      9  C   UNL     1       6.418   0.137  -1.063  1.00  0.00     0.004 A 
ATOM     10  C   UNL     1       9.035   0.494  -1.682  1.00  0.00     0.000 A 
ATOM     11  C   UNL     1       6.961  -0.597  -2.100  1.00  0.00     0.000 A 
ATOM     12  C   UNL     1       8.291  -0.405  -2.403  1.00  0.00     0.000 A 
ENDBRANCH   6   7
ENDBRANCH   1   6
TORSDOF 4
ENDMDL
MODEL 4
REMARK VINA RESULT:      -6.7      3.764      4.932
REMARK SMILES O=C(O)CCc1ccccc1
REMARK SMILES IDX 4 1 2 2 1 3 3 4 5 6 6 7 7 8 11 9 8 10 10 11 9 12
REMARK H PARENT 3 5
REMARK Flexibility Score: inf
ROOT
ATOM      1  C   UNL     1       5.375   2.944   0.021  1.00  0.00     0.127 C 
ENDROOT
BRANCH   1   2
ATOM      2  C   UNL     1       6.208   3.886   0.805  1.00  0.00     0.303 C 
ATOM      3  O   UNL     1       6.892   4.775   0.239  1.00  0.00    -0.252 OA
BRANCH   2   4
ATOM      4  O   UNL     1       6.256   3.810   2.187  1.00  0.00    -0.481 OA
ATOM      5  H   UNL     1       6.325   2.892   2.637  1.00  0.00     0.296 HD
ENDBRANCH   2   4
ENDBRANCH   1   2
BRANCH   1   6
ATOM      6  C   UNL     1       4.952   1.825   0.924  1.00  0.00     0.047 C 
BRANCH   6   7
ATOM      7  C   UNL     1       5.747   0.607   0.774  1.00  0.00    -0.047 A 
ATOM      8  C   UNL     1       6.345   0.301  -0.426  1.00  0.00     0.004 A 
ATOM      9  C   UNL     1       5.893  -0.235   1.852  1.00  0.00     0.004 A 
ATOM     10  C   UNL     1       7.090  -0.878  -0.496  1.00  0.00     0.000 A 
ATOM     11  C   UNL     1       6.630  -1.401   1.780  1.00  0.00     0.000 A 
ATOM     12  C   UNL     1       7.232  -1.715   0.582  1.00  0.00     0.000 A 
ENDBRANCH   6   7
ENDBRANCH   1   6
TORSDOF 4
ENDMDL
MODEL 5
REMARK VINA RESULT:      -6.6      1.979      2.634
REMARK SMILES O=C(O)CCc1ccccc1
REMARK SMILES IDX 4 1 2 2 1 3 3 4 5 6 6 7 7 8 11 9 8 10 10 11 9 12
REMARK H PARENT 3 5
REMARK Flexibility Score: inf
ROOT
ATOM      1  C   UNL     1       8.322   0.211  -2.073  1.00  0.00     0.127 C 
ENDROOT
BRANCH   1   2
ATOM      2  C   UNL     1       9.454   0.372  -1.130  1.00  0.00     0.303 C 
ATOM      3  O   UNL     1       9.555  -0.348  -0.106  1.00  0.00    -0.252 OA
BRANCH   2   4
ATOM      4  O   UNL     1      10.434   1.325  -1.354  1.00  0.00    -0.481 OA
ATOM      5  H   UNL     1      11.352   1.212  -0.915  1.00  0.00     0.296 HD
ENDBRANCH   2   4
ENDBRANCH   1   2
BRANCH   1   6
ATOM      6  C   UNL     1       7.250  -0.583  -1.391  1.00  0.00     0.047 C 
BRANCH   6   7
ATOM      7  C   UNL     1       6.419   0.200  -0.479  1.00  0.00    -0.047 A 
ATOM      8  C   UNL     1       6.173  -0.241   0.801  1.00  0.00     0.004 A 
ATOM      9  C   UNL     1       5.884   1.390  -0.913  1.00  0.00     0.004 A 
ATOM     10  C   UNL     1       5.371   0.559   1.619  1.00  0.00     0.000 A 
ATOM     11  C   UNL     1       5.091   2.180  -0.103  1.00  0.00     0.000 A 
ATOM     12  C   UNL     1       4.839   1.745   1.180  1.00  0.00     0.000 A 
ENDBRANCH   6   7
ENDBRANCH   1   6
TORSDOF 4
ENDMDL
