@<TRIPOS>MOLECULE
/home/cewinharhar/GITHUB/reincatalyze/data/processed/docking_pred/2023-Apr-26-1657_maxeplen10_maxtrainstep1000_exh32_gamma099_lrac9e-4_lrcr1e-3/f103505c31d1e9178b980ac5ab47259be3cc1632_ligand_2.pdbqt
 12 12 0 0 0
SMALL
GASTEIGER

@<TRIPOS>ATOM
      1  C          5.0200    1.7830    0.6810 C.3     1  UNL1        0.1270
      2  C          4.5000    1.1150    1.8980 C.2     1  UNL1        0.3030
      3  O          5.1540    0.2100    2.4730 O.2     1  UNL1       -0.2520
      4  O          3.2730    1.4710    2.4340 O.3     1  UNL1       -0.4810
      5  H          3.1770    2.3740    2.9080 H       1  UNL1        0.2960
      6  C          6.5170    1.7820    0.7470 C.3     1  UNL1        0.0470
      7  C          7.1590    1.0410   -0.3380 C.2     1  UNL1       -0.0470
      8  C          8.4880    1.2380   -0.6330 C.2     1  UNL1        0.0040
      9  C          6.4180    0.1370   -1.0630 C.2     1  UNL1        0.0040
     10  C          9.0350    0.4940   -1.6820 C.2     1  UNL1        0.0000
     11  C          6.9610   -0.5970   -2.1000 C.2     1  UNL1        0.0000
     12  C          8.2910   -0.4050   -2.4030 C.2     1  UNL1        0.0000
@<TRIPOS>BOND
     1    12    11    2
     2    12    10    1
     3    11     9    1
     4    10     8    2
     5     9     7    2
     6     8     7    1
     7     7     6    1
     8     1     6    1
     9     1     2    1
    10     2     4    1
    11     2     3    2
    12     4     5    1
