@<TRIPOS>MOLECULE
/home/cewinharhar/GITHUB/reincatalyze/data/processed/docking_pred/2023-Apr-26-1657_maxeplen10_maxtrainstep1000_exh32_gamma099_lrac9e-4_lrcr1e-3/f103505c31d1e9178b980ac5ab47259be3cc1632_ligand_2.pdbqt
 12 12 0 0 0
SMALL
GASTEIGER

@<TRIPOS>ATOM
      1  C          8.3220    0.2110   -2.0730 C.3     1  UNL1        0.1270
      2  C          9.4540    0.3720   -1.1300 C.2     1  UNL1        0.3030
      3  O          9.5550   -0.3480   -0.1060 O.2     1  UNL1       -0.2520
      4  O         10.4340    1.3250   -1.3540 O.3     1  UNL1       -0.4810
      5  H         11.3520    1.2120   -0.9150 H       1  UNL1        0.2960
      6  C          7.2500   -0.5830   -1.3910 C.3     1  UNL1        0.0470
      7  C          6.4190    0.2000   -0.4790 C.2     1  UNL1       -0.0470
      8  C          6.1730   -0.2410    0.8010 C.2     1  UNL1        0.0040
      9  C          5.8840    1.3900   -0.9130 C.2     1  UNL1        0.0040
     10  C          5.3710    0.5590    1.6190 C.2     1  UNL1        0.0000
     11  C          5.0910    2.1800   -0.1030 C.2     1  UNL1        0.0000
     12  C          4.8390    1.7450    1.1800 C.2     1  UNL1        0.0000
@<TRIPOS>BOND
     1     1     6    1
     2     1     2    1
     3     6     7    1
     4     4     2    1
     5     4     5    1
     6     2     3    2
     7     9     7    2
     8     9    11    1
     9     7     8    1
    10    11    12    2
    11     8    10    2
    12    12    10    1
