@<TRIPOS>MOLECULE
/home/cewinharhar/GITHUB/reincatalyze/data/processed/docking_pred/2023-Apr-26-1657_maxeplen10_maxtrainstep1000_exh32_gamma099_lrac9e-4_lrcr1e-3/f15420a79f585431148ea344134f913ab78e73cd_ligand_2.pdbqt
 12 12 0 0 0
SMALL
GASTEIGER

@<TRIPOS>ATOM
      1  C          4.9840    1.7880    0.6910 C.3     1  UNL1        0.1270
      2  C          4.4750    1.1140    1.9090 C.2     1  UNL1        0.3030
      3  O          5.1370    0.2110    2.4790 O.2     1  UNL1       -0.2520
      4  O          3.2490    1.4630    2.4540 O.3     1  UNL1       -0.4810
      5  H          3.0710    1.2780    3.4450 H       1  UNL1        0.2960
      6  C          6.4820    1.7790    0.7400 C.3     1  UNL1        0.0470
      7  C          7.1070    1.0210   -0.3420 C.2     1  UNL1       -0.0470
      8  C          6.3850    0.1010   -1.0650 C.2     1  UNL1        0.0040
      9  C          8.4340    1.2390   -0.6340 C.2     1  UNL1        0.0040
     10  C          7.0470   -0.5870   -2.0850 C.2     1  UNL1        0.0000
     11  C          9.0870    0.5580   -1.6430 C.2     1  UNL1        0.0000
     12  C          8.3700   -0.3660   -2.3710 C.2     1  UNL1        0.0000
@<TRIPOS>BOND
     1    12    10    2
     2    12    11    1
     3    10     8    1
     4    11     9    2
     5     8     7    2
     6     9     7    1
     7     7     6    1
     8     1     6    1
     9     1     2    1
    10     2     4    1
    11     2     3    2
    12     4     5    1
