@<TRIPOS>MOLECULE
/home/cewinharhar/GITHUB/reincatalyze/data/processed/docking_pred/2023-Apr-26-1657_maxeplen10_maxtrainstep1000_exh32_gamma099_lrac9e-4_lrcr1e-3/f15420a79f585431148ea344134f913ab78e73cd_ligand_2.pdbqt
 12 12 0 0 0
SMALL
GASTEIGER

@<TRIPOS>ATOM
      1  C          5.0210    1.7890    0.6690 C.3     1  UNL1        0.1270
      2  C          4.5110    1.1200    1.8880 C.2     1  UNL1        0.3030
      3  O          5.1740    0.2220    2.4630 O.2     1  UNL1       -0.2520
      4  O          3.2840    1.4690    2.4290 O.3     1  UNL1       -0.4810
      5  H          3.1060    1.2920    3.4220 H       1  UNL1        0.2960
      6  C          6.5180    1.8000    0.7290 C.3     1  UNL1        0.0470
      7  C          7.1620    1.0530   -0.3510 C.2     1  UNL1       -0.0470
      8  C          8.4960    1.2350   -0.6340 C.2     1  UNL1        0.0040
      9  C          6.4180    0.1580   -1.0850 C.2     1  UNL1        0.0040
     10  C          9.0450    0.4870   -1.6780 C.2     1  UNL1        0.0000
     11  C          6.9620   -0.5800   -2.1170 C.2     1  UNL1        0.0000
     12  C          8.2970   -0.4030   -2.4070 C.2     1  UNL1        0.0000
@<TRIPOS>BOND
     1    12    11    2
     2    12    10    1
     3    11     9    1
     4    10     8    2
     5     9     7    2
     6     8     7    1
     7     7     6    1
     8     1     6    1
     9     1     2    1
    10     2     4    1
    11     2     3    2
    12     4     5    1
