MODEL 1
REMARK VINA RESULT:      -7.4      0.000      0.000
REMARK SMILES O=C(O)CCc1ccccc1
REMARK SMILES IDX 4 1 2 2 1 3 3 4 5 6 6 7 7 8 11 9 8 10 10 11 9 12
REMARK H PARENT 3 5
REMARK Flexibility Score: inf
ROOT
ATOM      1  C   UNL     1       8.422  -0.592  -2.176  1.00  0.00     0.127 C 
ENDROOT
BRANCH   1   2
ATOM      2  C   UNL     1       8.481  -1.883  -2.902  1.00  0.00     0.303 C 
ATOM      3  O   UNL     1       9.571  -2.482  -3.077  1.00  0.00    -0.252 OA
BRANCH   2   4
ATOM      4  O   UNL     1       7.331  -2.466  -3.410  1.00  0.00    -0.481 OA
ATOM      5  H   UNL     1       7.408  -3.315  -3.976  1.00  0.00     0.296 HD
ENDBRANCH   2   4
ENDBRANCH   1   2
BRANCH   1   6
ATOM      6  C   UNL     1       6.995  -0.136  -2.143  1.00  0.00     0.047 C 
BRANCH   6   7
ATOM      7  C   UNL     1       6.462   0.053  -0.795  1.00  0.00    -0.047 A 
ATOM      8  C   UNL     1       5.828   1.223  -0.447  1.00  0.00     0.004 A 
ATOM      9  C   UNL     1       6.599  -0.958   0.128  1.00  0.00     0.004 A 
ATOM     10  C   UNL     1       5.343   1.333   0.858  1.00  0.00     0.000 A 
ATOM     11  C   UNL     1       6.119  -0.847   1.418  1.00  0.00     0.000 A 
ATOM     12  C   UNL     1       5.483   0.322   1.775  1.00  0.00     0.000 A 
ENDBRANCH   6   7
ENDBRANCH   1   6
TORSDOF 4
ENDMDL
MODEL 2
REMARK VINA RESULT:      -7.4      0.155      1.734
REMARK SMILES O=C(O)CCc1ccccc1
REMARK SMILES IDX 4 1 2 2 1 3 3 4 5 6 6 7 7 8 11 9 8 10 10 11 9 12
REMARK H PARENT 3 5
REMARK Flexibility Score: inf
ROOT
ATOM      1  C   UNL     1       8.421  -0.657  -2.085  1.00  0.00     0.127 C 
ENDROOT
BRANCH   1   2
ATOM      2  C   UNL     1       8.384  -1.907  -2.880  1.00  0.00     0.303 C 
ATOM      3  O   UNL     1       7.294  -2.418  -3.239  1.00  0.00    -0.252 OA
BRANCH   2   4
ATOM      4  O   UNL     1       9.555  -2.548  -3.250  1.00  0.00    -0.481 OA
ATOM      5  H   UNL     1      10.105  -2.177  -4.030  1.00  0.00     0.296 HD
ENDBRANCH   2   4
ENDBRANCH   1   2
BRANCH   1   6
ATOM      6  C   UNL     1       7.048  -0.059  -2.084  1.00  0.00     0.047 C 
BRANCH   6   7
ATOM      7  C   UNL     1       6.473   0.108  -0.750  1.00  0.00    -0.047 A 
ATOM      8  C   UNL     1       6.605  -0.877   0.201  1.00  0.00     0.004 A 
ATOM      9  C   UNL     1       5.795   1.267  -0.451  1.00  0.00     0.004 A 
ATOM     10  C   UNL     1       6.032  -0.649   1.454  1.00  0.00     0.000 A 
ATOM     11  C   UNL     1       5.228   1.490   0.788  1.00  0.00     0.000 A 
ATOM     12  C   UNL     1       5.356   0.508   1.746  1.00  0.00     0.000 A 
ENDBRANCH   6   7
ENDBRANCH   1   6
TORSDOF 4
ENDMDL
MODEL 3
REMARK VINA RESULT:      -7.3      0.652      1.093
REMARK SMILES O=C(O)CCc1ccccc1
REMARK SMILES IDX 4 1 2 2 1 3 3 4 5 6 6 7 7 8 11 9 8 10 10 11 9 12
REMARK H PARENT 3 5
REMARK Flexibility Score: inf
ROOT
ATOM      1  C   UNL     1       8.315  -0.904  -1.865  1.00  0.00     0.127 C 
ENDROOT
BRANCH   1   2
ATOM      2  C   UNL     1       8.440  -2.013  -2.840  1.00  0.00     0.303 C 
ATOM      3  O   UNL     1       9.556  -2.527  -3.101  1.00  0.00    -0.252 OA
BRANCH   2   4
ATOM      4  O   UNL     1       7.326  -2.515  -3.492  1.00  0.00    -0.481 OA
ATOM      5  H   UNL     1       6.990  -3.454  -3.261  1.00  0.00     0.296 HD
ENDBRANCH   2   4
ENDBRANCH   1   2
BRANCH   1   6
ATOM      6  C   UNL     1       7.441  -1.364  -0.739  1.00  0.00     0.047 C 
BRANCH   6   7
ATOM      7  C   UNL     1       6.602  -0.311  -0.169  1.00  0.00    -0.047 A 
ATOM      8  C   UNL     1       6.257   0.793  -0.913  1.00  0.00     0.004 A 
ATOM      9  C   UNL     1       6.156  -0.436   1.127  1.00  0.00     0.004 A 
ATOM     10  C   UNL     1       5.452   1.759  -0.304  1.00  0.00     0.000 A 
ATOM     11  C   UNL     1       5.361   0.520   1.727  1.00  0.00     0.000 A 
ATOM     12  C   UNL     1       5.011   1.630   0.989  1.00  0.00     0.000 A 
ENDBRANCH   6   7
ENDBRANCH   1   6
TORSDOF 4
ENDMDL
MODEL 4
REMARK VINA RESULT:      -6.8      3.384      5.082
REMARK SMILES O=C(O)CCc1ccccc1
REMARK SMILES IDX 4 1 2 2 1 3 3 4 5 6 6 7 7 8 11 9 8 10 10 11 9 12
REMARK H PARENT 3 5
REMARK Flexibility Score: inf
ROOT
ATOM      1  C   UNL     1       4.984   1.788   0.691  1.00  0.00     0.127 C 
ENDROOT
BRANCH   1   2
ATOM      2  C   UNL     1       4.475   1.114   1.909  1.00  0.00     0.303 C 
ATOM      3  O   UNL     1       5.137   0.211   2.479  1.00  0.00    -0.252 OA
BRANCH   2   4
ATOM      4  O   UNL     1       3.249   1.463   2.454  1.00  0.00    -0.481 OA
ATOM      5  H   UNL     1       3.071   1.278   3.445  1.00  0.00     0.296 HD
ENDBRANCH   2   4
ENDBRANCH   1   2
BRANCH   1   6
ATOM      6  C   UNL     1       6.482   1.779   0.740  1.00  0.00     0.047 C 
BRANCH   6   7
ATOM      7  C   UNL     1       7.107   1.021  -0.342  1.00  0.00    -0.047 A 
ATOM      8  C   UNL     1       6.385   0.101  -1.065  1.00  0.00     0.004 A 
ATOM      9  C   UNL     1       8.434   1.239  -0.634  1.00  0.00     0.004 A 
ATOM     10  C   UNL     1       7.047  -0.587  -2.085  1.00  0.00     0.000 A 
ATOM     11  C   UNL     1       9.087   0.558  -1.643  1.00  0.00     0.000 A 
ATOM     12  C   UNL     1       8.370  -0.366  -2.371  1.00  0.00     0.000 A 
ENDBRANCH   6   7
ENDBRANCH   1   6
TORSDOF 4
ENDMDL
MODEL 5
REMARK VINA RESULT:      -6.8      3.375      5.047
REMARK SMILES O=C(O)CCc1ccccc1
REMARK SMILES IDX 4 1 2 2 1 3 3 4 5 6 6 7 7 8 11 9 8 10 10 11 9 12
REMARK H PARENT 3 5
REMARK Flexibility Score: inf
ROOT
ATOM      1  C   UNL     1       5.021   1.789   0.669  1.00  0.00     0.127 C 
ENDROOT
BRANCH   1   2
ATOM      2  C   UNL     1       4.511   1.120   1.888  1.00  0.00     0.303 C 
ATOM      3  O   UNL     1       5.174   0.222   2.463  1.00  0.00    -0.252 OA
BRANCH   2   4
ATOM      4  O   UNL     1       3.284   1.469   2.429  1.00  0.00    -0.481 OA
ATOM      5  H   UNL     1       3.106   1.292   3.422  1.00  0.00     0.296 HD
ENDBRANCH   2   4
ENDBRANCH   1   2
BRANCH   1   6
ATOM      6  C   UNL     1       6.518   1.800   0.729  1.00  0.00     0.047 C 
BRANCH   6   7
ATOM      7  C   UNL     1       7.162   1.053  -0.351  1.00  0.00    -0.047 A 
ATOM      8  C   UNL     1       8.496   1.235  -0.634  1.00  0.00     0.004 A 
ATOM      9  C   UNL     1       6.418   0.158  -1.085  1.00  0.00     0.004 A 
ATOM     10  C   UNL     1       9.045   0.487  -1.678  1.00  0.00     0.000 A 
ATOM     11  C   UNL     1       6.962  -0.580  -2.117  1.00  0.00     0.000 A 
ATOM     12  C   UNL     1       8.297  -0.403  -2.407  1.00  0.00     0.000 A 
ENDBRANCH   6   7
ENDBRANCH   1   6
TORSDOF 4
ENDMDL
