@<TRIPOS>MOLECULE
/home/cewinharhar/GITHUB/reincatalyze/data/processed/docking_pred/2023-Apr-26-1657_maxeplen10_maxtrainstep1000_exh32_gamma099_lrac9e-4_lrcr1e-3/f15420a79f585431148ea344134f913ab78e73cd_ligand_2.pdbqt
 12 12 0 0 0
SMALL
GASTEIGER

@<TRIPOS>ATOM
      1  C          8.4210   -0.6570   -2.0850 C.3     1  UNL1        0.1270
      2  C          8.3840   -1.9070   -2.8800 C.2     1  UNL1        0.3030
      3  O          7.2940   -2.4180   -3.2390 O.2     1  UNL1       -0.2520
      4  O          9.5550   -2.5480   -3.2500 O.3     1  UNL1       -0.4810
      5  H         10.1050   -2.1770   -4.0300 H       1  UNL1        0.2960
      6  C          7.0480   -0.0590   -2.0840 C.3     1  UNL1        0.0470
      7  C          6.4730    0.1080   -0.7500 C.2     1  UNL1       -0.0470
      8  C          6.6050   -0.8770    0.2010 C.2     1  UNL1        0.0040
      9  C          5.7950    1.2670   -0.4510 C.2     1  UNL1        0.0040
     10  C          6.0320   -0.6490    1.4540 C.2     1  UNL1        0.0000
     11  C          5.2280    1.4900    0.7880 C.2     1  UNL1        0.0000
     12  C          5.3560    0.5080    1.7460 C.2     1  UNL1        0.0000
@<TRIPOS>BOND
     1     5     4    1
     2     4     2    1
     3     3     2    2
     4     2     1    1
     5     1     6    1
     6     6     7    1
     7     7     9    2
     8     7     8    1
     9     9    11    1
    10     8    10    2
    11    11    12    2
    12    10    12    1
