@<TRIPOS>MOLECULE
/home/cewinharhar/GITHUB/reincatalyze/data/processed/docking_pred/2023-Apr-26-1657_maxeplen10_maxtrainstep1000_exh32_gamma099_lrac9e-4_lrcr1e-3/f15420a79f585431148ea344134f913ab78e73cd_ligand_2.pdbqt
 12 12 0 0 0
SMALL
GASTEIGER

@<TRIPOS>ATOM
      1  C          8.4220   -0.5920   -2.1760 C.3     1  UNL1        0.1270
      2  C          8.4810   -1.8830   -2.9020 C.2     1  UNL1        0.3030
      3  O          9.5710   -2.4820   -3.0770 O.2     1  UNL1       -0.2520
      4  O          7.3310   -2.4660   -3.4100 O.3     1  UNL1       -0.4810
      5  H          7.4080   -3.3150   -3.9760 H       1  UNL1        0.2960
      6  C          6.9950   -0.1360   -2.1430 C.3     1  UNL1        0.0470
      7  C          6.4620    0.0530   -0.7950 C.2     1  UNL1       -0.0470
      8  C          5.8280    1.2230   -0.4470 C.2     1  UNL1        0.0040
      9  C          6.5990   -0.9580    0.1280 C.2     1  UNL1        0.0040
     10  C          5.3430    1.3330    0.8580 C.2     1  UNL1        0.0000
     11  C          6.1190   -0.8470    1.4180 C.2     1  UNL1        0.0000
     12  C          5.4830    0.3220    1.7750 C.2     1  UNL1        0.0000
@<TRIPOS>BOND
     1     5     4    1
     2     4     2    1
     3     3     2    2
     4     2     1    1
     5     1     6    1
     6     6     7    1
     7     7     8    2
     8     7     9    1
     9     8    10    1
    10     9    11    2
    11    10    12    2
    12    11    12    1
