@<TRIPOS>MOLECULE
/home/cewinharhar/GITHUB/reincatalyze/data/processed/docking_pred/2023-Apr-26-1657_maxeplen10_maxtrainstep1000_exh32_gamma099_lrac9e-4_lrcr1e-3/f1acaff2cf7a86b9bbc999bfeecc6491fc2a0881_ligand_2.pdbqt
 12 12 0 0 0
SMALL
GASTEIGER

@<TRIPOS>ATOM
      1  C          6.3430   -0.5730    2.7740 C.3     1  UNL1        0.1270
      2  C          7.1220   -1.4940    1.9130 C.2     1  UNL1        0.3030
      3  O          8.2820   -1.2020    1.5300 O.2     1  UNL1       -0.2520
      4  O          6.5890   -2.7060    1.5060 O.3     1  UNL1       -0.4810
      5  H          6.1370   -2.7720    0.5900 H       1  UNL1        0.2960
      6  C          5.2320    0.0100    1.9560 C.3     1  UNL1        0.0470
      7  C          5.5480    1.3070    1.3610 C.2     1  UNL1       -0.0470
      8  C          6.5260    2.1090    1.9030 C.2     1  UNL1        0.0040
      9  C          4.8570    1.7210    0.2460 C.2     1  UNL1        0.0040
     10  C          6.7760    3.3350    1.2820 C.2     1  UNL1        0.0000
     11  C          5.1050    2.9340   -0.3660 C.2     1  UNL1        0.0000
     12  C          6.0830    3.7430    0.1710 C.2     1  UNL1        0.0000
@<TRIPOS>BOND
     1    11    12    2
     2    11     9    1
     3    12    10    1
     4     9     7    2
     5     5     4    1
     6    10     8    2
     7     7     8    1
     8     7     6    1
     9     4     2    1
    10     3     2    2
    11     2     1    1
    12     6     1    1
