@<TRIPOS>MOLECULE
/home/cewinharhar/GITHUB/reincatalyze/data/processed/docking_pred/2023-Apr-26-1657_maxeplen10_maxtrainstep1000_exh32_gamma099_lrac9e-4_lrcr1e-3/f1acaff2cf7a86b9bbc999bfeecc6491fc2a0881_ligand_2.pdbqt
 12 12 0 0 0
SMALL
GASTEIGER

@<TRIPOS>ATOM
      1  C         12.8960   -6.5270   11.8340 C.3     1  UNL1        0.1270
      2  C         14.2720   -6.4590   11.2890 C.2     1  UNL1        0.3030
      3  O         14.9280   -7.5020   11.0460 O.2     1  UNL1       -0.2520
      4  O         14.8750   -5.2380   11.0340 O.3     1  UNL1       -0.4810
      5  H         15.6540   -5.1930   10.3700 H       1  UNL1        0.2960
      6  C         11.9490   -6.7500   10.6940 C.3     1  UNL1        0.0470
      7  C         10.5890   -6.2790   10.9490 C.2     1  UNL1       -0.0470
      8  C          9.5330   -6.7390   10.1980 C.2     1  UNL1        0.0040
      9  C         10.3730   -5.3660   11.9550 C.2     1  UNL1        0.0040
     10  C          8.2610   -6.2460   10.4970 C.2     1  UNL1        0.0000
     11  C          9.1150   -4.8790   12.2500 C.2     1  UNL1        0.0000
     12  C          8.0510   -5.3350   11.5020 C.2     1  UNL1        0.0000
@<TRIPOS>BOND
     1     8    10    1
     2     8     7    2
     3     5     4    1
     4    10    12    2
     5     6     7    1
     6     6     1    1
     7     7     9    1
     8     4     2    1
     9     3     2    2
    10     2     1    1
    11    12    11    1
    12     9    11    2
