@<TRIPOS>MOLECULE
/home/cewinharhar/GITHUB/reincatalyze/data/processed/docking_pred/2023-Apr-26-1657_maxeplen10_maxtrainstep1000_exh32_gamma099_lrac9e-4_lrcr1e-3/f1acaff2cf7a86b9bbc999bfeecc6491fc2a0881_ligand_2.pdbqt
 12 12 0 0 0
SMALL
GASTEIGER

@<TRIPOS>ATOM
      1  C          6.2940   -0.5250    2.7350 C.3     1  UNL1        0.1270
      2  C          7.0710   -1.4810    1.9110 C.2     1  UNL1        0.3030
      3  O          8.2390   -1.2140    1.5330 O.2     1  UNL1       -0.2520
      4  O          6.5280   -2.6980    1.5350 O.3     1  UNL1       -0.4810
      5  H          7.1210   -3.3870    1.0640 H       1  UNL1        0.2960
      6  C          5.1970    0.0440    1.8870 C.3     1  UNL1        0.0470
      7  C          5.5170    1.3400    1.2920 C.2     1  UNL1       -0.0470
      8  C          4.8940    1.7570    0.1380 C.2     1  UNL1        0.0040
      9  C          6.4510    2.1460    1.9000 C.2     1  UNL1        0.0040
     10  C          5.2480    3.0070   -0.3740 C.2     1  UNL1        0.0000
     11  C          6.8000    3.3820    1.3930 C.2     1  UNL1        0.0000
     12  C          6.1810    3.8070    0.2370 C.2     1  UNL1        0.0000
@<TRIPOS>BOND
     1    10     8    1
     2    10    12    2
     3     8     7    2
     4    12    11    1
     5     5     4    1
     6     7     6    1
     7     7     9    1
     8    11     9    2
     9     3     2    2
    10     4     2    1
    11     6     1    1
    12     2     1    1
