MODEL 1
REMARK VINA RESULT:      -5.6      0.000      0.000
REMARK SMILES O=C(O)CCc1ccccc1
REMARK SMILES IDX 4 1 2 2 1 3 3 4 5 6 6 7 7 8 11 9 8 10 10 11 9 12
REMARK H PARENT 3 5
REMARK Flexibility Score: inf
ROOT
ATOM      1  C   UNL     1       6.294  -0.525   2.735  1.00  0.00     0.127 C 
ENDROOT
BRANCH   1   2
ATOM      2  C   UNL     1       7.071  -1.481   1.911  1.00  0.00     0.303 C 
ATOM      3  O   UNL     1       8.239  -1.214   1.533  1.00  0.00    -0.252 OA
BRANCH   2   4
ATOM      4  O   UNL     1       6.528  -2.698   1.535  1.00  0.00    -0.481 OA
ATOM      5  H   UNL     1       7.121  -3.387   1.064  1.00  0.00     0.296 HD
ENDBRANCH   2   4
ENDBRANCH   1   2
BRANCH   1   6
ATOM      6  C   UNL     1       5.197   0.044   1.887  1.00  0.00     0.047 C 
BRANCH   6   7
ATOM      7  C   UNL     1       5.517   1.340   1.292  1.00  0.00    -0.047 A 
ATOM      8  C   UNL     1       4.894   1.757   0.138  1.00  0.00     0.004 A 
ATOM      9  C   UNL     1       6.451   2.146   1.900  1.00  0.00     0.004 A 
ATOM     10  C   UNL     1       5.248   3.007  -0.374  1.00  0.00     0.000 A 
ATOM     11  C   UNL     1       6.800   3.382   1.393  1.00  0.00     0.000 A 
ATOM     12  C   UNL     1       6.181   3.807   0.237  1.00  0.00     0.000 A 
ENDBRANCH   6   7
ENDBRANCH   1   6
TORSDOF 4
ENDMDL
MODEL 2
REMARK VINA RESULT:      -5.5      0.100      1.438
REMARK SMILES O=C(O)CCc1ccccc1
REMARK SMILES IDX 4 1 2 2 1 3 3 4 5 6 6 7 7 8 11 9 8 10 10 11 9 12
REMARK H PARENT 3 5
REMARK Flexibility Score: inf
ROOT
ATOM      1  C   UNL     1       6.343  -0.573   2.774  1.00  0.00     0.127 C 
ENDROOT
BRANCH   1   2
ATOM      2  C   UNL     1       7.122  -1.494   1.913  1.00  0.00     0.303 C 
ATOM      3  O   UNL     1       8.282  -1.202   1.530  1.00  0.00    -0.252 OA
BRANCH   2   4
ATOM      4  O   UNL     1       6.589  -2.706   1.506  1.00  0.00    -0.481 OA
ATOM      5  H   UNL     1       6.137  -2.772   0.590  1.00  0.00     0.296 HD
ENDBRANCH   2   4
ENDBRANCH   1   2
BRANCH   1   6
ATOM      6  C   UNL     1       5.232   0.010   1.956  1.00  0.00     0.047 C 
BRANCH   6   7
ATOM      7  C   UNL     1       5.548   1.307   1.361  1.00  0.00    -0.047 A 
ATOM      8  C   UNL     1       6.526   2.109   1.903  1.00  0.00     0.004 A 
ATOM      9  C   UNL     1       4.857   1.721   0.246  1.00  0.00     0.004 A 
ATOM     10  C   UNL     1       6.776   3.335   1.282  1.00  0.00     0.000 A 
ATOM     11  C   UNL     1       5.105   2.934  -0.366  1.00  0.00     0.000 A 
ATOM     12  C   UNL     1       6.083   3.743   0.171  1.00  0.00     0.000 A 
ENDBRANCH   6   7
ENDBRANCH   1   6
TORSDOF 4
ENDMDL
MODEL 3
REMARK VINA RESULT:      -3.7     11.277     13.110
REMARK SMILES O=C(O)CCc1ccccc1
REMARK SMILES IDX 4 1 2 2 1 3 3 4 5 6 6 7 7 8 11 9 8 10 10 11 9 12
REMARK H PARENT 3 5
REMARK Flexibility Score: inf
ROOT
ATOM      1  C   UNL     1       7.949  -5.462  11.727  1.00  0.00     0.127 C 
ENDROOT
BRANCH   1   2
ATOM      2  C   UNL     1       7.669  -4.096  11.225  1.00  0.00     0.303 C 
ATOM      3  O   UNL     1       7.571  -3.862   9.995  1.00  0.00    -0.252 OA
BRANCH   2   4
ATOM      4  O   UNL     1       7.507  -3.036  12.103  1.00  0.00    -0.481 OA
ATOM      5  H   UNL     1       8.205  -2.288  12.120  1.00  0.00     0.296 HD
ENDBRANCH   2   4
ENDBRANCH   1   2
BRANCH   1   6
ATOM      6  C   UNL     1       8.452  -6.289  10.583  1.00  0.00     0.047 C 
BRANCH   6   7
ATOM      7  C   UNL     1       9.829  -6.753  10.745  1.00  0.00    -0.047 A 
ATOM      8  C   UNL     1      10.189  -8.030  10.382  1.00  0.00     0.004 A 
ATOM      9  C   UNL     1      10.770  -5.894  11.266  1.00  0.00     0.004 A 
ATOM     10  C   UNL     1      11.522  -8.404  10.563  1.00  0.00     0.000 A 
ATOM     11  C   UNL     1      12.087  -6.266  11.445  1.00  0.00     0.000 A 
ATOM     12  C   UNL     1      12.455  -7.544  11.084  1.00  0.00     0.000 A 
ENDBRANCH   6   7
ENDBRANCH   1   6
TORSDOF 4
ENDMDL
MODEL 4
REMARK VINA RESULT:      -3.7     12.490     13.486
REMARK SMILES O=C(O)CCc1ccccc1
REMARK SMILES IDX 4 1 2 2 1 3 3 4 5 6 6 7 7 8 11 9 8 10 10 11 9 12
REMARK H PARENT 3 5
REMARK Flexibility Score: inf
ROOT
ATOM      1  C   UNL     1      12.896  -6.527  11.834  1.00  0.00     0.127 C 
ENDROOT
BRANCH   1   2
ATOM      2  C   UNL     1      14.272  -6.459  11.289  1.00  0.00     0.303 C 
ATOM      3  O   UNL     1      14.928  -7.502  11.046  1.00  0.00    -0.252 OA
BRANCH   2   4
ATOM      4  O   UNL     1      14.875  -5.238  11.034  1.00  0.00    -0.481 OA
ATOM      5  H   UNL     1      15.654  -5.193  10.370  1.00  0.00     0.296 HD
ENDBRANCH   2   4
ENDBRANCH   1   2
BRANCH   1   6
ATOM      6  C   UNL     1      11.949  -6.750  10.694  1.00  0.00     0.047 C 
BRANCH   6   7
ATOM      7  C   UNL     1      10.589  -6.279  10.949  1.00  0.00    -0.047 A 
ATOM      8  C   UNL     1       9.533  -6.739  10.198  1.00  0.00     0.004 A 
ATOM      9  C   UNL     1      10.373  -5.366  11.955  1.00  0.00     0.004 A 
ATOM     10  C   UNL     1       8.261  -6.246  10.497  1.00  0.00     0.000 A 
ATOM     11  C   UNL     1       9.115  -4.879  12.250  1.00  0.00     0.000 A 
ATOM     12  C   UNL     1       8.051  -5.335  11.502  1.00  0.00     0.000 A 
ENDBRANCH   6   7
ENDBRANCH   1   6
TORSDOF 4
ENDMDL
MODEL 5
REMARK VINA RESULT:      -3.7     11.501     13.323
REMARK SMILES O=C(O)CCc1ccccc1
REMARK SMILES IDX 4 1 2 2 1 3 3 4 5 6 6 7 7 8 11 9 8 10 10 11 9 12
REMARK H PARENT 3 5
REMARK Flexibility Score: inf
ROOT
ATOM      1  C   UNL     1       8.434  -5.661  11.660  1.00  0.00     0.127 C 
ENDROOT
BRANCH   1   2
ATOM      2  C   UNL     1       7.700  -4.422  11.311  1.00  0.00     0.303 C 
ATOM      3  O   UNL     1       7.656  -4.002  10.129  1.00  0.00    -0.252 OA
BRANCH   2   4
ATOM      4  O   UNL     1       7.041  -3.690  12.286  1.00  0.00    -0.481 OA
ATOM      5  H   UNL     1       7.209  -2.682  12.355  1.00  0.00     0.296 HD
ENDBRANCH   2   4
ENDBRANCH   1   2
BRANCH   1   6
ATOM      6  C   UNL     1       8.761  -6.387  10.390  1.00  0.00     0.047 C 
BRANCH   6   7
ATOM      7  C   UNL     1      10.029  -7.114  10.431  1.00  0.00    -0.047 A 
ATOM      8  C   UNL     1      11.227  -6.439  10.433  1.00  0.00     0.004 A 
ATOM      9  C   UNL     1      10.013  -8.489  10.469  1.00  0.00     0.004 A 
ATOM     10  C   UNL     1      12.399  -7.198  10.474  1.00  0.00     0.000 A 
ATOM     11  C   UNL     1      11.172  -9.238  10.509  1.00  0.00     0.000 A 
ATOM     12  C   UNL     1      12.377  -8.569  10.510  1.00  0.00     0.000 A 
ENDBRANCH   6   7
ENDBRANCH   1   6
TORSDOF 4
ENDMDL
