@<TRIPOS>MOLECULE
/home/cewinharhar/GITHUB/reincatalyze/data/processed/docking_pred/2023-Apr-26-1657_maxeplen10_maxtrainstep1000_exh32_gamma099_lrac9e-4_lrcr1e-3/f1acaff2cf7a86b9bbc999bfeecc6491fc2a0881_ligand_2.pdbqt
 12 12 0 0 0
SMALL
GASTEIGER

@<TRIPOS>ATOM
      1  C          7.9490   -5.4620   11.7270 C.3     1  UNL1        0.1270
      2  C          7.6690   -4.0960   11.2250 C.2     1  UNL1        0.3030
      3  O          7.5710   -3.8620    9.9950 O.2     1  UNL1       -0.2520
      4  O          7.5070   -3.0360   12.1030 O.3     1  UNL1       -0.4810
      5  H          8.2050   -2.2880   12.1200 H       1  UNL1        0.2960
      6  C          8.4520   -6.2890   10.5830 C.3     1  UNL1        0.0470
      7  C          9.8290   -6.7530   10.7450 C.2     1  UNL1       -0.0470
      8  C         10.1890   -8.0300   10.3820 C.2     1  UNL1        0.0040
      9  C         10.7700   -5.8940   11.2660 C.2     1  UNL1        0.0040
     10  C         11.5220   -8.4040   10.5630 C.2     1  UNL1        0.0000
     11  C         12.0870   -6.2660   11.4450 C.2     1  UNL1        0.0000
     12  C         12.4550   -7.5440   11.0840 C.2     1  UNL1        0.0000
@<TRIPOS>BOND
     1     3     2    2
     2     8    10    1
     3     8     7    2
     4    10    12    2
     5     6     7    1
     6     6     1    1
     7     7     9    1
     8    12    11    1
     9     2     1    1
    10     2     4    1
    11     9    11    2
    12     4     5    1
