@<TRIPOS>MOLECULE
/home/cewinharhar/GITHUB/reincatalyze/data/processed/docking_pred/2023-Apr-26-1657_maxeplen10_maxtrainstep1000_exh32_gamma099_lrac9e-4_lrcr1e-3/f1acaff2cf7a86b9bbc999bfeecc6491fc2a0881_ligand_2.pdbqt
 12 12 0 0 0
SMALL
GASTEIGER

@<TRIPOS>ATOM
      1  C          8.4340   -5.6610   11.6600 C.3     1  UNL1        0.1270
      2  C          7.7000   -4.4220   11.3110 C.2     1  UNL1        0.3030
      3  O          7.6560   -4.0020   10.1290 O.2     1  UNL1       -0.2520
      4  O          7.0410   -3.6900   12.2860 O.3     1  UNL1       -0.4810
      5  H          7.2090   -2.6820   12.3550 H       1  UNL1        0.2960
      6  C          8.7610   -6.3870   10.3900 C.3     1  UNL1        0.0470
      7  C         10.0290   -7.1140   10.4310 C.2     1  UNL1       -0.0470
      8  C         11.2270   -6.4390   10.4330 C.2     1  UNL1        0.0040
      9  C         10.0130   -8.4890   10.4690 C.2     1  UNL1        0.0040
     10  C         12.3990   -7.1980   10.4740 C.2     1  UNL1        0.0000
     11  C         11.1720   -9.2380   10.5090 C.2     1  UNL1        0.0000
     12  C         12.3770   -8.5690   10.5100 C.2     1  UNL1        0.0000
@<TRIPOS>BOND
     1     3     2    2
     2     6     7    1
     3     6     1    1
     4     7     8    2
     5     7     9    1
     6     8    10    1
     7     9    11    2
     8    10    12    2
     9    11    12    1
    10     2     1    1
    11     2     4    1
    12     4     5    1
