@<TRIPOS>MOLECULE
/home/cewinharhar/GITHUB/reincatalyze/data/processed/docking_pred/2023-Apr-26-1657_maxeplen10_maxtrainstep1000_exh32_gamma099_lrac9e-4_lrcr1e-3/f32d20faebe3d2be17d1bcf3c85c7c889e58fe23_ligand_2.pdbqt
 12 12 0 0 0
SMALL
GASTEIGER

@<TRIPOS>ATOM
      1  C          8.4800   -0.5940   -2.1900 C.3     1  UNL1        0.1270
      2  C          8.4950   -1.8810   -2.9250 C.2     1  UNL1        0.3030
      3  O          9.5640   -2.5160   -3.1040 O.2     1  UNL1       -0.2520
      4  O          7.3260   -2.4200   -3.4360 O.3     1  UNL1       -0.4810
      5  H          6.4320   -2.1920   -2.9910 H       1  UNL1        0.2960
      6  C          7.0720   -0.0830   -2.1640 C.3     1  UNL1        0.0470
      7  C          6.5150    0.0580   -0.8200 C.2     1  UNL1       -0.0470
      8  C          6.6490   -0.9510    0.1060 C.2     1  UNL1        0.0040
      9  C          5.8520    1.2160   -0.4850 C.2     1  UNL1        0.0040
     10  C          6.0920   -0.7480    1.3710 C.2     1  UNL1        0.0000
     11  C          5.3030    1.4150    0.7660 C.2     1  UNL1        0.0000
     12  C          5.4320    0.4090    1.6990 C.2     1  UNL1        0.0000
@<TRIPOS>BOND
     1     4     5    1
     2     4     2    1
     3     3     2    2
     4     2     1    1
     5     1     6    1
     6     6     7    1
     7     7     9    2
     8     7     8    1
     9     9    11    1
    10     8    10    2
    11    11    12    2
    12    10    12    1
