@<TRIPOS>MOLECULE
/home/cewinharhar/GITHUB/reincatalyze/data/processed/docking_pred/2023-Apr-26-1657_maxeplen10_maxtrainstep1000_exh32_gamma099_lrac9e-4_lrcr1e-3/f32d20faebe3d2be17d1bcf3c85c7c889e58fe23_ligand_2.pdbqt
 12 12 0 0 0
SMALL
GASTEIGER

@<TRIPOS>ATOM
      1  C          5.5400    2.9630   -0.0280 C.3     1  UNL1        0.1270
      2  C          6.2760    3.9450    0.8020 C.2     1  UNL1        0.3030
      3  O          7.0640    4.7750    0.2830 O.2     1  UNL1       -0.2520
      4  O          6.1160    3.9750    2.1780 O.3     1  UNL1       -0.4810
      5  H          5.8570    4.8540    2.6330 H       1  UNL1        0.2960
      6  C          5.0080    1.8900    0.8730 C.3     1  UNL1        0.0470
      7  C          5.7830    0.6510    0.8430 C.2     1  UNL1       -0.0470
      8  C          6.4620    0.2730   -0.2920 C.2     1  UNL1        0.0040
      9  C          5.8280   -0.1400    1.9680 C.2     1  UNL1        0.0040
     10  C          7.1820   -0.9230   -0.2490 C.2     1  UNL1        0.0000
     11  C          6.5400   -1.3220    2.0090 C.2     1  UNL1        0.0000
     12  C          7.2230   -1.7080    0.8760 C.2     1  UNL1        0.0000
@<TRIPOS>BOND
     1     8    10    1
     2     8     7    2
     3    10    12    2
     4     1     2    1
     5     1     6    1
     6     3     2    2
     7     2     4    1
     8     7     6    1
     9     7     9    1
    10    12    11    1
    11     9    11    2
    12     4     5    1
