@<TRIPOS>MOLECULE
/home/cewinharhar/GITHUB/reincatalyze/data/processed/docking_pred/2023-Apr-26-1657_maxeplen10_maxtrainstep1000_exh32_gamma099_lrac9e-4_lrcr1e-3/f32d20faebe3d2be17d1bcf3c85c7c889e58fe23_ligand_2.pdbqt
 12 12 0 0 0
SMALL
GASTEIGER

@<TRIPOS>ATOM
      1  C          8.2380    0.2030   -2.2400 C.3     1  UNL1        0.1270
      2  C          9.3440    0.3350   -1.2640 C.2     1  UNL1        0.3030
      3  O          9.4290   -0.4260   -0.2680 O.2     1  UNL1       -0.2520
      4  O         10.3190    1.3070   -1.4230 O.3     1  UNL1       -0.4810
      5  H         10.1080    2.1440   -1.9730 H       1  UNL1        0.2960
      6  C          7.1040   -0.5140   -1.5730 C.3     1  UNL1        0.0470
      7  C          6.3310    0.3210   -0.6550 C.2     1  UNL1       -0.0470
      8  C          5.8310    1.5360   -1.0610 C.2     1  UNL1        0.0040
      9  C          6.1050   -0.1230    0.6270 C.2     1  UNL1        0.0040
     10  C          5.1010    2.2800   -0.1310 C.2     1  UNL1        0.0000
     11  C          5.3830    0.6140    1.5450 C.2     1  UNL1        0.0000
     12  C          4.8790    1.8320    1.1470 C.2     1  UNL1        0.0000
@<TRIPOS>BOND
     1     1     6    1
     2     1     2    1
     3     5     4    1
     4     6     7    1
     5     4     2    1
     6     2     3    2
     7     8     7    2
     8     8    10    1
     9     7     9    1
    10    10    12    2
    11     9    11    2
    12    12    11    1
