MODEL 1
REMARK VINA RESULT:      -7.4      0.000      0.000
REMARK SMILES O=C(O)CCc1ccccc1
REMARK SMILES IDX 4 1 2 2 1 3 3 4 5 6 6 7 7 8 11 9 8 10 10 11 9 12
REMARK H PARENT 3 5
REMARK Flexibility Score: inf
ROOT
ATOM      1  C   UNL     1       8.480  -0.594  -2.190  1.00  0.00     0.127 C 
ENDROOT
BRANCH   1   2
ATOM      2  C   UNL     1       8.495  -1.881  -2.925  1.00  0.00     0.303 C 
ATOM      3  O   UNL     1       9.564  -2.516  -3.104  1.00  0.00    -0.252 OA
BRANCH   2   4
ATOM      4  O   UNL     1       7.326  -2.420  -3.436  1.00  0.00    -0.481 OA
ATOM      5  H   UNL     1       6.432  -2.192  -2.991  1.00  0.00     0.296 HD
ENDBRANCH   2   4
ENDBRANCH   1   2
BRANCH   1   6
ATOM      6  C   UNL     1       7.072  -0.083  -2.164  1.00  0.00     0.047 C 
BRANCH   6   7
ATOM      7  C   UNL     1       6.515   0.058  -0.820  1.00  0.00    -0.047 A 
ATOM      8  C   UNL     1       6.649  -0.951   0.106  1.00  0.00     0.004 A 
ATOM      9  C   UNL     1       5.852   1.216  -0.485  1.00  0.00     0.004 A 
ATOM     10  C   UNL     1       6.092  -0.748   1.371  1.00  0.00     0.000 A 
ATOM     11  C   UNL     1       5.303   1.415   0.766  1.00  0.00     0.000 A 
ATOM     12  C   UNL     1       5.432   0.409   1.699  1.00  0.00     0.000 A 
ENDBRANCH   6   7
ENDBRANCH   1   6
TORSDOF 4
ENDMDL
MODEL 2
REMARK VINA RESULT:      -7.3      0.147      1.734
REMARK SMILES O=C(O)CCc1ccccc1
REMARK SMILES IDX 4 1 2 2 1 3 3 4 5 6 6 7 7 8 11 9 8 10 10 11 9 12
REMARK H PARENT 3 5
REMARK Flexibility Score: inf
ROOT
ATOM      1  C   UNL     1       8.405  -0.699  -2.022  1.00  0.00     0.127 C 
ENDROOT
BRANCH   1   2
ATOM      2  C   UNL     1       8.376  -1.915  -2.868  1.00  0.00     0.303 C 
ATOM      3  O   UNL     1       7.290  -2.412  -3.257  1.00  0.00    -0.252 OA
BRANCH   2   4
ATOM      4  O   UNL     1       9.551  -2.540  -3.254  1.00  0.00    -0.481 OA
ATOM      5  H   UNL     1      10.357  -1.969  -3.524  1.00  0.00     0.296 HD
ENDBRANCH   2   4
ENDBRANCH   1   2
BRANCH   1   6
ATOM      6  C   UNL     1       7.043  -0.076  -2.046  1.00  0.00     0.047 C 
BRANCH   6   7
ATOM      7  C   UNL     1       6.454   0.119  -0.723  1.00  0.00    -0.047 A 
ATOM      8  C   UNL     1       5.806   1.291  -0.407  1.00  0.00     0.004 A 
ATOM      9  C   UNL     1       6.553  -0.887   0.211  1.00  0.00     0.004 A 
ATOM     10  C   UNL     1       5.267   1.408   0.876  1.00  0.00     0.000 A 
ATOM     11  C   UNL     1       6.020  -0.769   1.479  1.00  0.00     0.000 A 
ATOM     12  C   UNL     1       5.369   0.401   1.804  1.00  0.00     0.000 A 
ENDBRANCH   6   7
ENDBRANCH   1   6
TORSDOF 4
ENDMDL
MODEL 3
REMARK VINA RESULT:      -6.8      3.378      5.080
REMARK SMILES O=C(O)CCc1ccccc1
REMARK SMILES IDX 4 1 2 2 1 3 3 4 5 6 6 7 7 8 11 9 8 10 10 11 9 12
REMARK H PARENT 3 5
REMARK Flexibility Score: inf
ROOT
ATOM      1  C   UNL     1       5.023   1.766   0.704  1.00  0.00     0.127 C 
ENDROOT
BRANCH   1   2
ATOM      2  C   UNL     1       4.485   1.107   1.918  1.00  0.00     0.303 C 
ATOM      3  O   UNL     1       5.124   0.199   2.503  1.00  0.00    -0.252 OA
BRANCH   2   4
ATOM      4  O   UNL     1       3.256   1.478   2.441  1.00  0.00    -0.481 OA
ATOM      5  H   UNL     1       3.206   2.265   3.093  1.00  0.00     0.296 HD
ENDBRANCH   2   4
ENDBRANCH   1   2
BRANCH   1   6
ATOM      6  C   UNL     1       6.519   1.737   0.777  1.00  0.00     0.047 C 
BRANCH   6   7
ATOM      7  C   UNL     1       7.154   1.002  -0.315  1.00  0.00    -0.047 A 
ATOM      8  C   UNL     1       8.457   1.259  -0.672  1.00  0.00     0.004 A 
ATOM      9  C   UNL     1       6.432   0.042  -0.986  1.00  0.00     0.004 A 
ATOM     10  C   UNL     1       8.999   0.518  -1.725  1.00  0.00     0.000 A 
ATOM     11  C   UNL     1       6.970  -0.690  -2.027  1.00  0.00     0.000 A 
ATOM     12  C   UNL     1       8.274  -0.438  -2.391  1.00  0.00     0.000 A 
ENDBRANCH   6   7
ENDBRANCH   1   6
TORSDOF 4
ENDMDL
MODEL 4
REMARK VINA RESULT:      -6.6      3.809      5.017
REMARK SMILES O=C(O)CCc1ccccc1
REMARK SMILES IDX 4 1 2 2 1 3 3 4 5 6 6 7 7 8 11 9 8 10 10 11 9 12
REMARK H PARENT 3 5
REMARK Flexibility Score: inf
ROOT
ATOM      1  C   UNL     1       5.540   2.963  -0.028  1.00  0.00     0.127 C 
ENDROOT
BRANCH   1   2
ATOM      2  C   UNL     1       6.276   3.945   0.802  1.00  0.00     0.303 C 
ATOM      3  O   UNL     1       7.064   4.775   0.283  1.00  0.00    -0.252 OA
BRANCH   2   4
ATOM      4  O   UNL     1       6.116   3.975   2.178  1.00  0.00    -0.481 OA
ATOM      5  H   UNL     1       5.857   4.854   2.633  1.00  0.00     0.296 HD
ENDBRANCH   2   4
ENDBRANCH   1   2
BRANCH   1   6
ATOM      6  C   UNL     1       5.008   1.890   0.873  1.00  0.00     0.047 C 
BRANCH   6   7
ATOM      7  C   UNL     1       5.783   0.651   0.843  1.00  0.00    -0.047 A 
ATOM      8  C   UNL     1       6.462   0.273  -0.292  1.00  0.00     0.004 A 
ATOM      9  C   UNL     1       5.828  -0.140   1.968  1.00  0.00     0.004 A 
ATOM     10  C   UNL     1       7.182  -0.923  -0.249  1.00  0.00     0.000 A 
ATOM     11  C   UNL     1       6.540  -1.322   2.009  1.00  0.00     0.000 A 
ATOM     12  C   UNL     1       7.223  -1.708   0.876  1.00  0.00     0.000 A 
ENDBRANCH   6   7
ENDBRANCH   1   6
TORSDOF 4
ENDMDL
MODEL 5
REMARK VINA RESULT:      -6.6      1.914      2.641
REMARK SMILES O=C(O)CCc1ccccc1
REMARK SMILES IDX 4 1 2 2 1 3 3 4 5 6 6 7 7 8 11 9 8 10 10 11 9 12
REMARK H PARENT 3 5
REMARK Flexibility Score: inf
ROOT
ATOM      1  C   UNL     1       8.238   0.203  -2.240  1.00  0.00     0.127 C 
ENDROOT
BRANCH   1   2
ATOM      2  C   UNL     1       9.344   0.335  -1.264  1.00  0.00     0.303 C 
ATOM      3  O   UNL     1       9.429  -0.426  -0.268  1.00  0.00    -0.252 OA
BRANCH   2   4
ATOM      4  O   UNL     1      10.319   1.307  -1.423  1.00  0.00    -0.481 OA
ATOM      5  H   UNL     1      10.108   2.144  -1.973  1.00  0.00     0.296 HD
ENDBRANCH   2   4
ENDBRANCH   1   2
BRANCH   1   6
ATOM      6  C   UNL     1       7.104  -0.514  -1.573  1.00  0.00     0.047 C 
BRANCH   6   7
ATOM      7  C   UNL     1       6.331   0.321  -0.655  1.00  0.00    -0.047 A 
ATOM      8  C   UNL     1       5.831   1.536  -1.061  1.00  0.00     0.004 A 
ATOM      9  C   UNL     1       6.105  -0.123   0.627  1.00  0.00     0.004 A 
ATOM     10  C   UNL     1       5.101   2.280  -0.131  1.00  0.00     0.000 A 
ATOM     11  C   UNL     1       5.383   0.614   1.545  1.00  0.00     0.000 A 
ATOM     12  C   UNL     1       4.879   1.832   1.147  1.00  0.00     0.000 A 
ENDBRANCH   6   7
ENDBRANCH   1   6
TORSDOF 4
ENDMDL
