@<TRIPOS>MOLECULE
/home/cewinharhar/GITHUB/reincatalyze/data/processed/docking_pred/2023-Apr-26-1657_maxeplen10_maxtrainstep1000_exh32_gamma099_lrac9e-4_lrcr1e-3/f32d20faebe3d2be17d1bcf3c85c7c889e58fe23_ligand_2.pdbqt
 12 12 0 0 0
SMALL
GASTEIGER

@<TRIPOS>ATOM
      1  C          5.0230    1.7660    0.7040 C.3     1  UNL1        0.1270
      2  C          4.4850    1.1070    1.9180 C.2     1  UNL1        0.3030
      3  O          5.1240    0.1990    2.5030 O.2     1  UNL1       -0.2520
      4  O          3.2560    1.4780    2.4410 O.3     1  UNL1       -0.4810
      5  H          3.2060    2.2650    3.0930 H       1  UNL1        0.2960
      6  C          6.5190    1.7370    0.7770 C.3     1  UNL1        0.0470
      7  C          7.1540    1.0020   -0.3150 C.2     1  UNL1       -0.0470
      8  C          8.4570    1.2590   -0.6720 C.2     1  UNL1        0.0040
      9  C          6.4320    0.0420   -0.9860 C.2     1  UNL1        0.0040
     10  C          8.9990    0.5180   -1.7250 C.2     1  UNL1        0.0000
     11  C          6.9700   -0.6900   -2.0270 C.2     1  UNL1        0.0000
     12  C          8.2740   -0.4380   -2.3910 C.2     1  UNL1        0.0000
@<TRIPOS>BOND
     1    12    11    2
     2    12    10    1
     3    11     9    1
     4    10     8    2
     5     9     7    2
     6     8     7    1
     7     7     6    1
     8     1     6    1
     9     1     2    1
    10     2     4    1
    11     2     3    2
    12     4     5    1
