@<TRIPOS>MOLECULE
/home/cewinharhar/GITHUB/reincatalyze/data/processed/docking_pred/2023-Apr-26-1657_maxeplen10_maxtrainstep1000_exh32_gamma099_lrac9e-4_lrcr1e-3/f32d20faebe3d2be17d1bcf3c85c7c889e58fe23_ligand_2.pdbqt
 12 12 0 0 0
SMALL
GASTEIGER

@<TRIPOS>ATOM
      1  C          8.4050   -0.6990   -2.0220 C.3     1  UNL1        0.1270
      2  C          8.3760   -1.9150   -2.8680 C.2     1  UNL1        0.3030
      3  O          7.2900   -2.4120   -3.2570 O.2     1  UNL1       -0.2520
      4  O          9.5510   -2.5400   -3.2540 O.3     1  UNL1       -0.4810
      5  H         10.3570   -1.9690   -3.5240 H       1  UNL1        0.2960
      6  C          7.0430   -0.0760   -2.0460 C.3     1  UNL1        0.0470
      7  C          6.4540    0.1190   -0.7230 C.2     1  UNL1       -0.0470
      8  C          5.8060    1.2910   -0.4070 C.2     1  UNL1        0.0040
      9  C          6.5530   -0.8870    0.2110 C.2     1  UNL1        0.0040
     10  C          5.2670    1.4080    0.8760 C.2     1  UNL1        0.0000
     11  C          6.0200   -0.7690    1.4790 C.2     1  UNL1        0.0000
     12  C          5.3690    0.4010    1.8040 C.2     1  UNL1        0.0000
@<TRIPOS>BOND
     1     5     4    1
     2     3     2    2
     3     4     2    1
     4     2     1    1
     5     6     1    1
     6     6     7    1
     7     7     8    2
     8     7     9    1
     9     8    10    1
    10     9    11    2
    11    10    12    2
    12    11    12    1
