@<TRIPOS>MOLECULE
/home/cewinharhar/GITHUB/reincatalyze/data/processed/docking_pred/2023-Apr-26-1657_maxeplen10_maxtrainstep1000_exh32_gamma099_lrac9e-4_lrcr1e-3/f338baa35ded8d3cb3d8a5b9e0cebf8a24c11f6d_ligand_2.pdbqt
 12 12 0 0 0
SMALL
GASTEIGER

@<TRIPOS>ATOM
      1  C          8.4270   -0.5620   -2.1870 C.3     1  UNL1        0.1270
      2  C          8.4760   -1.8570   -2.9060 C.2     1  UNL1        0.3030
      3  O          9.5630   -2.4590   -3.0880 O.2     1  UNL1       -0.2520
      4  O          7.3200   -2.4410   -3.3980 O.3     1  UNL1       -0.4810
      5  H          6.9980   -3.3280   -3.0010 H       1  UNL1        0.2960
      6  C          7.0040   -0.0940   -2.1590 C.3     1  UNL1        0.0470
      7  C          6.4460    0.0330   -0.8140 C.2     1  UNL1       -0.0470
      8  C          6.5510   -0.9980    0.0910 C.2     1  UNL1        0.0040
      9  C          5.8120    1.2000   -0.4570 C.2     1  UNL1        0.0040
     10  C          5.9950   -0.8080    1.3580 C.2     1  UNL1        0.0000
     11  C          5.2630    1.3870    0.7970 C.2     1  UNL1        0.0000
     12  C          5.3630    0.3590    1.7090 C.2     1  UNL1        0.0000
@<TRIPOS>BOND
     1     4     5    1
     2     4     2    1
     3     3     2    2
     4     2     1    1
     5     1     6    1
     6     6     7    1
     7     7     9    2
     8     7     8    1
     9     9    11    1
    10     8    10    2
    11    11    12    2
    12    10    12    1
