@<TRIPOS>MOLECULE
/home/cewinharhar/GITHUB/reincatalyze/data/processed/docking_pred/2023-Apr-26-1657_maxeplen10_maxtrainstep1000_exh32_gamma099_lrac9e-4_lrcr1e-3/f338baa35ded8d3cb3d8a5b9e0cebf8a24c11f6d_ligand_2.pdbqt
 12 12 0 0 0
SMALL
GASTEIGER

@<TRIPOS>ATOM
      1  C          8.1410    0.2630   -2.0660 C.3     1  UNL1        0.1270
      2  C          9.3380    0.3610   -1.1980 C.2     1  UNL1        0.3030
      3  O          9.4740   -0.3790   -0.1920 O.2     1  UNL1       -0.2520
      4  O         10.3420    1.2750   -1.4740 O.3     1  UNL1       -0.4810
      5  H         10.1100    2.1390   -1.9720 H       1  UNL1        0.2960
      6  C          7.1510   -0.6440   -1.4020 C.3     1  UNL1        0.0470
      7  C          6.3440    0.0080   -0.3720 C.2     1  UNL1       -0.0470
      8  C          6.0890   -0.6210    0.8250 C.2     1  UNL1        0.0040
      9  C          5.8420    1.2670   -0.6100 C.2     1  UNL1        0.0040
     10  C          5.3120    0.0620    1.7630 C.2     1  UNL1        0.0000
     11  C          5.0740    1.9400    0.3190 C.2     1  UNL1        0.0000
     12  C          4.8130    1.3170    1.5200 C.2     1  UNL1        0.0000
@<TRIPOS>BOND
     1     1     6    1
     2     1     2    1
     3     5     4    1
     4     4     2    1
     5     6     7    1
     6     2     3    2
     7     9     7    2
     8     9    11    1
     9     7     8    1
    10    11    12    2
    11     8    10    2
    12    12    10    1
