@<TRIPOS>MOLECULE
/home/cewinharhar/GITHUB/reincatalyze/data/processed/docking_pred/2023-Apr-26-1657_maxeplen10_maxtrainstep1000_exh32_gamma099_lrac9e-4_lrcr1e-3/f338baa35ded8d3cb3d8a5b9e0cebf8a24c11f6d_ligand_2.pdbqt
 12 12 0 0 0
SMALL
GASTEIGER

@<TRIPOS>ATOM
      1  C          5.4460    2.7630   -0.0240 C.3     1  UNL1        0.1270
      2  C          6.1830    3.7400    0.8120 C.2     1  UNL1        0.3030
      3  O          6.1810    3.6570    2.0650 O.2     1  UNL1       -0.2520
      4  O          6.8980    4.7750    0.2310 O.3     1  UNL1       -0.4810
      5  H          7.1550    5.5870    0.7990 H       1  UNL1        0.2960
      6  C          4.8680    1.7150    0.8770 C.3     1  UNL1        0.0470
      7  C          5.6570    0.4860    0.9430 C.2     1  UNL1       -0.0470
      8  C          5.7440   -0.2320    2.1120 C.2     1  UNL1        0.0040
      9  C          6.3160    0.0510   -0.1840 C.2     1  UNL1        0.0040
     10  C          6.5160   -1.3960    2.1020 C.2     1  UNL1        0.0000
     11  C          7.0780   -1.1000   -0.1920 C.2     1  UNL1        0.0000
     12  C          7.1710   -1.8260    0.9760 C.2     1  UNL1        0.0000
@<TRIPOS>BOND
     1    11     9    1
     2    11    12    2
     3     9     7    2
     4     1     2    1
     5     1     6    1
     6     4     5    1
     7     4     2    1
     8     2     3    2
     9     6     7    1
    10     7     8    1
    11    12    10    1
    12    10     8    2
