@<TRIPOS>MOLECULE
/home/cewinharhar/GITHUB/reincatalyze/data/processed/docking_pred/2023-Apr-26-1657_maxeplen10_maxtrainstep1000_exh32_gamma099_lrac9e-4_lrcr1e-3/f338baa35ded8d3cb3d8a5b9e0cebf8a24c11f6d_ligand_2.pdbqt
 12 12 0 0 0
SMALL
GASTEIGER

@<TRIPOS>ATOM
      1  C          5.0550    1.6700    0.6500 C.3     1  UNL1        0.1270
      2  C          4.5940    1.0280    1.9040 C.2     1  UNL1        0.3030
      3  O          5.3020    0.1800    2.5010 O.2     1  UNL1       -0.2520
      4  O          3.3630    1.3480    2.4540 O.3     1  UNL1       -0.4810
      5  H          3.3200    1.7130    3.4100 H       1  UNL1        0.2960
      6  C          6.5530    1.7180    0.6700 C.3     1  UNL1        0.0470
      7  C          7.1860    0.9340   -0.3890 C.2     1  UNL1       -0.0470
      8  C          8.4940    1.1640   -0.7480 C.2     1  UNL1        0.0040
      9  C          6.4590   -0.0440   -1.0270 C.2     1  UNL1        0.0040
     10  C          9.0350    0.3770   -1.7670 C.2     1  UNL1        0.0000
     11  C          6.9950   -0.8210   -2.0350 C.2     1  UNL1        0.0000
     12  C          8.3050   -0.5970   -2.4000 C.2     1  UNL1        0.0000
@<TRIPOS>BOND
     1    12    11    2
     2    12    10    1
     3    11     9    1
     4    10     8    2
     5     9     7    2
     6     8     7    1
     7     7     6    1
     8     1     6    1
     9     1     2    1
    10     2     4    1
    11     2     3    2
    12     4     5    1
