MODEL 1
REMARK VINA RESULT:      -7.3      0.000      0.000
REMARK SMILES O=C(O)CCc1ccccc1
REMARK SMILES IDX 4 1 2 2 1 3 3 4 5 6 6 7 7 8 11 9 8 10 10 11 9 12
REMARK H PARENT 3 5
REMARK Flexibility Score: inf
ROOT
ATOM      1  C   UNL     1       8.427  -0.562  -2.187  1.00  0.00     0.127 C 
ENDROOT
BRANCH   1   2
ATOM      2  C   UNL     1       8.476  -1.857  -2.906  1.00  0.00     0.303 C 
ATOM      3  O   UNL     1       9.563  -2.459  -3.088  1.00  0.00    -0.252 OA
BRANCH   2   4
ATOM      4  O   UNL     1       7.320  -2.441  -3.398  1.00  0.00    -0.481 OA
ATOM      5  H   UNL     1       6.998  -3.328  -3.001  1.00  0.00     0.296 HD
ENDBRANCH   2   4
ENDBRANCH   1   2
BRANCH   1   6
ATOM      6  C   UNL     1       7.004  -0.094  -2.159  1.00  0.00     0.047 C 
BRANCH   6   7
ATOM      7  C   UNL     1       6.446   0.033  -0.814  1.00  0.00    -0.047 A 
ATOM      8  C   UNL     1       6.551  -0.998   0.091  1.00  0.00     0.004 A 
ATOM      9  C   UNL     1       5.812   1.200  -0.457  1.00  0.00     0.004 A 
ATOM     10  C   UNL     1       5.995  -0.808   1.358  1.00  0.00     0.000 A 
ATOM     11  C   UNL     1       5.263   1.387   0.797  1.00  0.00     0.000 A 
ATOM     12  C   UNL     1       5.363   0.359   1.709  1.00  0.00     0.000 A 
ENDBRANCH   6   7
ENDBRANCH   1   6
TORSDOF 4
ENDMDL
MODEL 2
REMARK VINA RESULT:      -7.3      0.108      1.440
REMARK SMILES O=C(O)CCc1ccccc1
REMARK SMILES IDX 4 1 2 2 1 3 3 4 5 6 6 7 7 8 11 9 8 10 10 11 9 12
REMARK H PARENT 3 5
REMARK Flexibility Score: inf
ROOT
ATOM      1  C   UNL     1       8.417  -0.626  -2.129  1.00  0.00     0.127 C 
ENDROOT
BRANCH   1   2
ATOM      2  C   UNL     1       8.465  -1.896  -2.891  1.00  0.00     0.303 C 
ATOM      3  O   UNL     1       9.549  -2.502  -3.077  1.00  0.00    -0.252 OA
BRANCH   2   4
ATOM      4  O   UNL     1       7.311  -2.450  -3.421  1.00  0.00    -0.481 OA
ATOM      5  H   UNL     1       6.579  -2.783  -2.788  1.00  0.00     0.296 HD
ENDBRANCH   2   4
ENDBRANCH   1   2
BRANCH   1   6
ATOM      6  C   UNL     1       6.999  -0.142  -2.108  1.00  0.00     0.047 C 
BRANCH   6   7
ATOM      7  C   UNL     1       6.441   0.006  -0.765  1.00  0.00    -0.047 A 
ATOM      8  C   UNL     1       5.807   1.168  -0.391  1.00  0.00     0.004 A 
ATOM      9  C   UNL     1       6.554  -1.035   0.127  1.00  0.00     0.004 A 
ATOM     10  C   UNL     1       5.297   1.239   0.907  1.00  0.00     0.000 A 
ATOM     11  C   UNL     1       6.049  -0.963   1.410  1.00  0.00     0.000 A 
ATOM     12  C   UNL     1       5.413   0.198   1.793  1.00  0.00     0.000 A 
ENDBRANCH   6   7
ENDBRANCH   1   6
TORSDOF 4
ENDMDL
MODEL 3
REMARK VINA RESULT:      -6.8      3.326      5.034
REMARK SMILES O=C(O)CCc1ccccc1
REMARK SMILES IDX 4 1 2 2 1 3 3 4 5 6 6 7 7 8 11 9 8 10 10 11 9 12
REMARK H PARENT 3 5
REMARK Flexibility Score: inf
ROOT
ATOM      1  C   UNL     1       5.055   1.670   0.650  1.00  0.00     0.127 C 
ENDROOT
BRANCH   1   2
ATOM      2  C   UNL     1       4.594   1.028   1.904  1.00  0.00     0.303 C 
ATOM      3  O   UNL     1       5.302   0.180   2.501  1.00  0.00    -0.252 OA
BRANCH   2   4
ATOM      4  O   UNL     1       3.363   1.348   2.454  1.00  0.00    -0.481 OA
ATOM      5  H   UNL     1       3.320   1.713   3.410  1.00  0.00     0.296 HD
ENDBRANCH   2   4
ENDBRANCH   1   2
BRANCH   1   6
ATOM      6  C   UNL     1       6.553   1.718   0.670  1.00  0.00     0.047 C 
BRANCH   6   7
ATOM      7  C   UNL     1       7.186   0.934  -0.389  1.00  0.00    -0.047 A 
ATOM      8  C   UNL     1       8.494   1.164  -0.748  1.00  0.00     0.004 A 
ATOM      9  C   UNL     1       6.459  -0.044  -1.027  1.00  0.00     0.004 A 
ATOM     10  C   UNL     1       9.035   0.377  -1.767  1.00  0.00     0.000 A 
ATOM     11  C   UNL     1       6.995  -0.821  -2.035  1.00  0.00     0.000 A 
ATOM     12  C   UNL     1       8.305  -0.597  -2.400  1.00  0.00     0.000 A 
ENDBRANCH   6   7
ENDBRANCH   1   6
TORSDOF 4
ENDMDL
MODEL 4
REMARK VINA RESULT:      -6.6      3.821      4.899
REMARK SMILES O=C(O)CCc1ccccc1
REMARK SMILES IDX 4 1 2 2 1 3 3 4 5 6 6 7 7 8 11 9 8 10 10 11 9 12
REMARK H PARENT 3 5
REMARK Flexibility Score: inf
ROOT
ATOM      1  C   UNL     1       5.446   2.763  -0.024  1.00  0.00     0.127 C 
ENDROOT
BRANCH   1   2
ATOM      2  C   UNL     1       6.183   3.740   0.812  1.00  0.00     0.303 C 
ATOM      3  O   UNL     1       6.181   3.657   2.065  1.00  0.00    -0.252 OA
BRANCH   2   4
ATOM      4  O   UNL     1       6.898   4.775   0.231  1.00  0.00    -0.481 OA
ATOM      5  H   UNL     1       7.155   5.587   0.799  1.00  0.00     0.296 HD
ENDBRANCH   2   4
ENDBRANCH   1   2
BRANCH   1   6
ATOM      6  C   UNL     1       4.868   1.715   0.877  1.00  0.00     0.047 C 
BRANCH   6   7
ATOM      7  C   UNL     1       5.657   0.486   0.943  1.00  0.00    -0.047 A 
ATOM      8  C   UNL     1       5.744  -0.232   2.112  1.00  0.00     0.004 A 
ATOM      9  C   UNL     1       6.316   0.051  -0.184  1.00  0.00     0.004 A 
ATOM     10  C   UNL     1       6.516  -1.396   2.102  1.00  0.00     0.000 A 
ATOM     11  C   UNL     1       7.078  -1.100  -0.192  1.00  0.00     0.000 A 
ATOM     12  C   UNL     1       7.171  -1.826   0.976  1.00  0.00     0.000 A 
ENDBRANCH   6   7
ENDBRANCH   1   6
TORSDOF 4
ENDMDL
MODEL 5
REMARK VINA RESULT:      -6.6      1.931      2.215
REMARK SMILES O=C(O)CCc1ccccc1
REMARK SMILES IDX 4 1 2 2 1 3 3 4 5 6 6 7 7 8 11 9 8 10 10 11 9 12
REMARK H PARENT 3 5
REMARK Flexibility Score: inf
ROOT
ATOM      1  C   UNL     1       8.141   0.263  -2.066  1.00  0.00     0.127 C 
ENDROOT
BRANCH   1   2
ATOM      2  C   UNL     1       9.338   0.361  -1.198  1.00  0.00     0.303 C 
ATOM      3  O   UNL     1       9.474  -0.379  -0.192  1.00  0.00    -0.252 OA
BRANCH   2   4
ATOM      4  O   UNL     1      10.342   1.275  -1.474  1.00  0.00    -0.481 OA
ATOM      5  H   UNL     1      10.110   2.139  -1.972  1.00  0.00     0.296 HD
ENDBRANCH   2   4
ENDBRANCH   1   2
BRANCH   1   6
ATOM      6  C   UNL     1       7.151  -0.644  -1.402  1.00  0.00     0.047 C 
BRANCH   6   7
ATOM      7  C   UNL     1       6.344   0.008  -0.372  1.00  0.00    -0.047 A 
ATOM      8  C   UNL     1       6.089  -0.621   0.825  1.00  0.00     0.004 A 
ATOM      9  C   UNL     1       5.842   1.267  -0.610  1.00  0.00     0.004 A 
ATOM     10  C   UNL     1       5.312   0.062   1.763  1.00  0.00     0.000 A 
ATOM     11  C   UNL     1       5.074   1.940   0.319  1.00  0.00     0.000 A 
ATOM     12  C   UNL     1       4.813   1.317   1.520  1.00  0.00     0.000 A 
ENDBRANCH   6   7
ENDBRANCH   1   6
TORSDOF 4
ENDMDL
