@<TRIPOS>MOLECULE
/home/cewinharhar/GITHUB/reincatalyze/data/processed/docking_pred/2023-Apr-26-1657_maxeplen10_maxtrainstep1000_exh32_gamma099_lrac9e-4_lrcr1e-3/f338baa35ded8d3cb3d8a5b9e0cebf8a24c11f6d_ligand_2.pdbqt
 12 12 0 0 0
SMALL
GASTEIGER

@<TRIPOS>ATOM
      1  C          8.4170   -0.6260   -2.1290 C.3     1  UNL1        0.1270
      2  C          8.4650   -1.8960   -2.8910 C.2     1  UNL1        0.3030
      3  O          9.5490   -2.5020   -3.0770 O.2     1  UNL1       -0.2520
      4  O          7.3110   -2.4500   -3.4210 O.3     1  UNL1       -0.4810
      5  H          6.5790   -2.7830   -2.7880 H       1  UNL1        0.2960
      6  C          6.9990   -0.1420   -2.1080 C.3     1  UNL1        0.0470
      7  C          6.4410    0.0060   -0.7650 C.2     1  UNL1       -0.0470
      8  C          5.8070    1.1680   -0.3910 C.2     1  UNL1        0.0040
      9  C          6.5540   -1.0350    0.1270 C.2     1  UNL1        0.0040
     10  C          5.2970    1.2390    0.9070 C.2     1  UNL1        0.0000
     11  C          6.0490   -0.9630    1.4100 C.2     1  UNL1        0.0000
     12  C          5.4130    0.1980    1.7930 C.2     1  UNL1        0.0000
@<TRIPOS>BOND
     1     4     2    1
     2     4     5    1
     3     3     2    2
     4     2     1    1
     5     1     6    1
     6     6     7    1
     7     7     8    2
     8     7     9    1
     9     8    10    1
    10     9    11    2
    11    10    12    2
    12    11    12    1
