@<TRIPOS>MOLECULE
/home/cewinharhar/GITHUB/reincatalyze/data/processed/docking_pred/2023-Apr-26-1657_maxeplen10_maxtrainstep1000_exh32_gamma099_lrac9e-4_lrcr1e-3/f3c5d297feb9947f67baa3310bcd1cfc63c32b25_ligand_2.pdbqt
 12 12 0 0 0
SMALL
GASTEIGER

@<TRIPOS>ATOM
      1  C          8.3970   -0.6480   -2.0800 C.3     1  UNL1        0.1270
      2  C          8.3690   -1.8980   -2.8760 C.2     1  UNL1        0.3030
      3  O          7.2840   -2.4100   -3.2470 O.2     1  UNL1       -0.2520
      4  O          9.5450   -2.5370   -3.2350 O.3     1  UNL1       -0.4810
      5  H          9.5000   -3.4640   -3.6670 H       1  UNL1        0.2960
      6  C          7.0160   -0.0670   -2.0680 C.3     1  UNL1        0.0470
      7  C          6.4520    0.0990   -0.7300 C.2     1  UNL1       -0.0470
      8  C          5.8050    1.2610   -0.3780 C.2     1  UNL1        0.0040
      9  C          6.5710   -0.9260    0.1810 C.2     1  UNL1        0.0040
     10  C          5.2900    1.3500    0.9170 C.2     1  UNL1        0.0000
     11  C          6.0610   -0.8360    1.4610 C.2     1  UNL1        0.0000
     12  C          5.4130    0.3250    1.8210 C.2     1  UNL1        0.0000
@<TRIPOS>BOND
     1     5     4    1
     2     3     2    2
     3     4     2    1
     4     2     1    1
     5     1     6    1
     6     6     7    1
     7     7     8    2
     8     7     9    1
     9     8    10    1
    10     9    11    2
    11    10    12    2
    12    11    12    1
