@<TRIPOS>MOLECULE
/home/cewinharhar/GITHUB/reincatalyze/data/processed/docking_pred/2023-Apr-26-1657_maxeplen10_maxtrainstep1000_exh32_gamma099_lrac9e-4_lrcr1e-3/f3c5d297feb9947f67baa3310bcd1cfc63c32b25_ligand_2.pdbqt
 12 12 0 0 0
SMALL
GASTEIGER

@<TRIPOS>ATOM
      1  C          8.4260   -0.5740   -2.2090 C.3     1  UNL1        0.1270
      2  C          8.4660   -1.8710   -2.9250 C.2     1  UNL1        0.3030
      3  O          9.5460   -2.4880   -3.0950 O.2     1  UNL1       -0.2520
      4  O          7.3070   -2.4390   -3.4310 O.3     1  UNL1       -0.4810
      5  H          6.5790   -1.8320   -3.8180 H       1  UNL1        0.2960
      6  C          7.0020   -0.1100   -2.1540 C.3     1  UNL1        0.0470
      7  C          6.4780    0.0440   -0.7980 C.2     1  UNL1       -0.0470
      8  C          6.6050   -0.9690    0.1240 C.2     1  UNL1        0.0040
      9  C          5.8540    1.2190   -0.4490 C.2     1  UNL1        0.0040
     10  C          6.0810   -0.7530    1.4000 C.2     1  UNL1        0.0000
     11  C          5.3370    1.4310    0.8140 C.2     1  UNL1        0.0000
     12  C          5.4600    0.4210    1.7430 C.2     1  UNL1        0.0000
@<TRIPOS>BOND
     1     5     4    1
     2     4     2    1
     3     3     2    2
     4     2     1    1
     5     1     6    1
     6     6     7    1
     7     7     9    2
     8     7     8    1
     9     9    11    1
    10     8    10    2
    11    11    12    2
    12    10    12    1
