@<TRIPOS>MOLECULE
/home/cewinharhar/GITHUB/reincatalyze/data/processed/docking_pred/2023-Apr-26-1657_maxeplen10_maxtrainstep1000_exh32_gamma099_lrac9e-4_lrcr1e-3/f3c5d297feb9947f67baa3310bcd1cfc63c32b25_ligand_2.pdbqt
 12 12 0 0 0
SMALL
GASTEIGER

@<TRIPOS>ATOM
      1  C          4.9800    1.7920    0.6690 C.3     1  UNL1        0.1270
      2  C          4.4780    1.1210    1.8910 C.2     1  UNL1        0.3030
      3  O          5.1410    0.2160    2.4560 O.2     1  UNL1       -0.2520
      4  O          3.2580    1.4750    2.4450 O.3     1  UNL1       -0.4810
      5  H          2.7800    0.8160    3.0650 H       1  UNL1        0.2960
      6  C          6.4780    1.7920    0.7140 C.3     1  UNL1        0.0470
      7  C          7.1050    1.0110   -0.3520 C.2     1  UNL1       -0.0470
      8  C          6.3800    0.0840   -1.0640 C.2     1  UNL1        0.0040
      9  C          8.4350    1.2140   -0.6390 C.2     1  UNL1        0.0040
     10  C          7.0430   -0.6250   -2.0690 C.2     1  UNL1        0.0000
     11  C          9.0890    0.5120   -1.6320 C.2     1  UNL1        0.0000
     12  C          8.3700   -0.4190   -2.3500 C.2     1  UNL1        0.0000
@<TRIPOS>BOND
     1    12    10    2
     2    12    11    1
     3    10     8    1
     4    11     9    2
     5     8     7    2
     6     9     7    1
     7     7     6    1
     8     1     6    1
     9     1     2    1
    10     2     4    1
    11     2     3    2
    12     4     5    1
