@<TRIPOS>MOLECULE
/home/cewinharhar/GITHUB/reincatalyze/data/processed/docking_pred/2023-Apr-26-1657_maxeplen10_maxtrainstep1000_exh32_gamma099_lrac9e-4_lrcr1e-3/f3c5d297feb9947f67baa3310bcd1cfc63c32b25_ligand_2.pdbqt
 12 12 0 0 0
SMALL
GASTEIGER

@<TRIPOS>ATOM
      1  C          5.4110    2.8910    0.0370 C.3     1  UNL1        0.1270
      2  C          6.2270    3.8560    0.8100 C.2     1  UNL1        0.3030
      3  O          6.8670    4.7730    0.2370 O.2     1  UNL1       -0.2520
      4  O          6.3070    3.7740    2.1910 O.3     1  UNL1       -0.4810
      5  H          7.0710    3.2420    2.6170 H       1  UNL1        0.2960
      6  C          4.9360    1.8210    0.9730 C.3     1  UNL1        0.0470
      7  C          5.7260    0.5920    0.9210 C.2     1  UNL1       -0.0470
      8  C          6.3570    0.2110   -0.2400 C.2     1  UNL1        0.0040
      9  C          5.8350   -0.1840    2.0520 C.2     1  UNL1        0.0040
     10  C          7.0960   -0.9750   -0.2170 C.2     1  UNL1        0.0000
     11  C          6.5650   -1.3560    2.0720 C.2     1  UNL1        0.0000
     12  C          7.2000   -1.7460    0.9130 C.2     1  UNL1        0.0000
@<TRIPOS>BOND
     1     8    10    1
     2     8     7    2
     3    10    12    2
     4     1     2    1
     5     1     6    1
     6     3     2    2
     7     2     4    1
     8    12    11    1
     9     7     6    1
    10     7     9    1
    11     9    11    2
    12     4     5    1
