MODEL 1
REMARK VINA RESULT:      -7.3      0.000      0.000
REMARK SMILES O=C(O)CCc1ccccc1
REMARK SMILES IDX 4 1 2 2 1 3 3 4 5 6 6 7 7 8 11 9 8 10 10 11 9 12
REMARK H PARENT 3 5
REMARK Flexibility Score: inf
ROOT
ATOM      1  C   UNL     1       8.426  -0.574  -2.209  1.00  0.00     0.127 C 
ENDROOT
BRANCH   1   2
ATOM      2  C   UNL     1       8.466  -1.871  -2.925  1.00  0.00     0.303 C 
ATOM      3  O   UNL     1       9.546  -2.488  -3.095  1.00  0.00    -0.252 OA
BRANCH   2   4
ATOM      4  O   UNL     1       7.307  -2.439  -3.431  1.00  0.00    -0.481 OA
ATOM      5  H   UNL     1       6.579  -1.832  -3.818  1.00  0.00     0.296 HD
ENDBRANCH   2   4
ENDBRANCH   1   2
BRANCH   1   6
ATOM      6  C   UNL     1       7.002  -0.110  -2.154  1.00  0.00     0.047 C 
BRANCH   6   7
ATOM      7  C   UNL     1       6.478   0.044  -0.798  1.00  0.00    -0.047 A 
ATOM      8  C   UNL     1       6.605  -0.969   0.124  1.00  0.00     0.004 A 
ATOM      9  C   UNL     1       5.854   1.219  -0.449  1.00  0.00     0.004 A 
ATOM     10  C   UNL     1       6.081  -0.753   1.400  1.00  0.00     0.000 A 
ATOM     11  C   UNL     1       5.337   1.431   0.814  1.00  0.00     0.000 A 
ATOM     12  C   UNL     1       5.460   0.421   1.743  1.00  0.00     0.000 A 
ENDBRANCH   6   7
ENDBRANCH   1   6
TORSDOF 4
ENDMDL
MODEL 2
REMARK VINA RESULT:      -7.3      0.126      1.732
REMARK SMILES O=C(O)CCc1ccccc1
REMARK SMILES IDX 4 1 2 2 1 3 3 4 5 6 6 7 7 8 11 9 8 10 10 11 9 12
REMARK H PARENT 3 5
REMARK Flexibility Score: inf
ROOT
ATOM      1  C   UNL     1       8.397  -0.648  -2.080  1.00  0.00     0.127 C 
ENDROOT
BRANCH   1   2
ATOM      2  C   UNL     1       8.369  -1.898  -2.876  1.00  0.00     0.303 C 
ATOM      3  O   UNL     1       7.284  -2.410  -3.247  1.00  0.00    -0.252 OA
BRANCH   2   4
ATOM      4  O   UNL     1       9.545  -2.537  -3.235  1.00  0.00    -0.481 OA
ATOM      5  H   UNL     1       9.500  -3.464  -3.667  1.00  0.00     0.296 HD
ENDBRANCH   2   4
ENDBRANCH   1   2
BRANCH   1   6
ATOM      6  C   UNL     1       7.016  -0.067  -2.068  1.00  0.00     0.047 C 
BRANCH   6   7
ATOM      7  C   UNL     1       6.452   0.099  -0.730  1.00  0.00    -0.047 A 
ATOM      8  C   UNL     1       5.805   1.261  -0.378  1.00  0.00     0.004 A 
ATOM      9  C   UNL     1       6.571  -0.926   0.181  1.00  0.00     0.004 A 
ATOM     10  C   UNL     1       5.290   1.350   0.917  1.00  0.00     0.000 A 
ATOM     11  C   UNL     1       6.061  -0.836   1.461  1.00  0.00     0.000 A 
ATOM     12  C   UNL     1       5.413   0.325   1.821  1.00  0.00     0.000 A 
ENDBRANCH   6   7
ENDBRANCH   1   6
TORSDOF 4
ENDMDL
MODEL 3
REMARK VINA RESULT:      -6.8      3.370      5.048
REMARK SMILES O=C(O)CCc1ccccc1
REMARK SMILES IDX 4 1 2 2 1 3 3 4 5 6 6 7 7 8 11 9 8 10 10 11 9 12
REMARK H PARENT 3 5
REMARK Flexibility Score: inf
ROOT
ATOM      1  C   UNL     1       4.980   1.792   0.669  1.00  0.00     0.127 C 
ENDROOT
BRANCH   1   2
ATOM      2  C   UNL     1       4.478   1.121   1.891  1.00  0.00     0.303 C 
ATOM      3  O   UNL     1       5.141   0.216   2.456  1.00  0.00    -0.252 OA
BRANCH   2   4
ATOM      4  O   UNL     1       3.258   1.475   2.445  1.00  0.00    -0.481 OA
ATOM      5  H   UNL     1       2.780   0.816   3.065  1.00  0.00     0.296 HD
ENDBRANCH   2   4
ENDBRANCH   1   2
BRANCH   1   6
ATOM      6  C   UNL     1       6.478   1.792   0.714  1.00  0.00     0.047 C 
BRANCH   6   7
ATOM      7  C   UNL     1       7.105   1.011  -0.352  1.00  0.00    -0.047 A 
ATOM      8  C   UNL     1       6.380   0.084  -1.064  1.00  0.00     0.004 A 
ATOM      9  C   UNL     1       8.435   1.214  -0.639  1.00  0.00     0.004 A 
ATOM     10  C   UNL     1       7.043  -0.625  -2.069  1.00  0.00     0.000 A 
ATOM     11  C   UNL     1       9.089   0.512  -1.632  1.00  0.00     0.000 A 
ATOM     12  C   UNL     1       8.370  -0.419  -2.350  1.00  0.00     0.000 A 
ENDBRANCH   6   7
ENDBRANCH   1   6
TORSDOF 4
ENDMDL
MODEL 4
REMARK VINA RESULT:      -6.7      3.820      4.995
REMARK SMILES O=C(O)CCc1ccccc1
REMARK SMILES IDX 4 1 2 2 1 3 3 4 5 6 6 7 7 8 11 9 8 10 10 11 9 12
REMARK H PARENT 3 5
REMARK Flexibility Score: inf
ROOT
ATOM      1  C   UNL     1       5.411   2.891   0.037  1.00  0.00     0.127 C 
ENDROOT
BRANCH   1   2
ATOM      2  C   UNL     1       6.227   3.856   0.810  1.00  0.00     0.303 C 
ATOM      3  O   UNL     1       6.867   4.773   0.237  1.00  0.00    -0.252 OA
BRANCH   2   4
ATOM      4  O   UNL     1       6.307   3.774   2.191  1.00  0.00    -0.481 OA
ATOM      5  H   UNL     1       7.071   3.242   2.617  1.00  0.00     0.296 HD
ENDBRANCH   2   4
ENDBRANCH   1   2
BRANCH   1   6
ATOM      6  C   UNL     1       4.936   1.821   0.973  1.00  0.00     0.047 C 
BRANCH   6   7
ATOM      7  C   UNL     1       5.726   0.592   0.921  1.00  0.00    -0.047 A 
ATOM      8  C   UNL     1       6.357   0.211  -0.240  1.00  0.00     0.004 A 
ATOM      9  C   UNL     1       5.835  -0.184   2.052  1.00  0.00     0.004 A 
ATOM     10  C   UNL     1       7.096  -0.975  -0.217  1.00  0.00     0.000 A 
ATOM     11  C   UNL     1       6.565  -1.356   2.072  1.00  0.00     0.000 A 
ATOM     12  C   UNL     1       7.200  -1.746   0.913  1.00  0.00     0.000 A 
ENDBRANCH   6   7
ENDBRANCH   1   6
TORSDOF 4
ENDMDL
MODEL 5
REMARK VINA RESULT:      -6.7      1.956      2.627
REMARK SMILES O=C(O)CCc1ccccc1
REMARK SMILES IDX 4 1 2 2 1 3 3 4 5 6 6 7 7 8 11 9 8 10 10 11 9 12
REMARK H PARENT 3 5
REMARK Flexibility Score: inf
ROOT
ATOM      1  C   UNL     1       8.187   0.296  -2.056  1.00  0.00     0.127 C 
ENDROOT
BRANCH   1   2
ATOM      2  C   UNL     1       9.376   0.373  -1.174  1.00  0.00     0.303 C 
ATOM      3  O   UNL     1       9.495  -0.381  -0.176  1.00  0.00    -0.252 OA
BRANCH   2   4
ATOM      4  O   UNL     1      10.390   1.282  -1.427  1.00  0.00    -0.481 OA
ATOM      5  H   UNL     1      10.779   1.827  -0.652  1.00  0.00     0.296 HD
ENDBRANCH   2   4
ENDBRANCH   1   2
BRANCH   1   6
ATOM      6  C   UNL     1       7.160  -0.566  -1.388  1.00  0.00     0.047 C 
BRANCH   6   7
ATOM      7  C   UNL     1       6.361   0.133  -0.383  1.00  0.00    -0.047 A 
ATOM      8  C   UNL     1       5.806   1.362  -0.655  1.00  0.00     0.004 A 
ATOM      9  C   UNL     1       6.166  -0.453   0.846  1.00  0.00     0.004 A 
ATOM     10  C   UNL     1       5.054   1.971   0.351  1.00  0.00     0.000 A 
ATOM     11  C   UNL     1       5.422   0.151   1.841  1.00  0.00     0.000 A 
ATOM     12  C   UNL     1       4.863   1.382   1.576  1.00  0.00     0.000 A 
ENDBRANCH   6   7
ENDBRANCH   1   6
TORSDOF 4
ENDMDL
