@<TRIPOS>MOLECULE
/home/cewinharhar/GITHUB/reincatalyze/data/processed/docking_pred/2023-Apr-26-1657_maxeplen10_maxtrainstep1000_exh32_gamma099_lrac9e-4_lrcr1e-3/f3c5d297feb9947f67baa3310bcd1cfc63c32b25_ligand_2.pdbqt
 12 12 0 0 0
SMALL
GASTEIGER

@<TRIPOS>ATOM
      1  C          8.1870    0.2960   -2.0560 C.3     1  UNL1        0.1270
      2  C          9.3760    0.3730   -1.1740 C.2     1  UNL1        0.3030
      3  O          9.4950   -0.3810   -0.1760 O.2     1  UNL1       -0.2520
      4  O         10.3900    1.2820   -1.4270 O.3     1  UNL1       -0.4810
      5  H         10.7790    1.8270   -0.6520 H       1  UNL1        0.2960
      6  C          7.1600   -0.5660   -1.3880 C.3     1  UNL1        0.0470
      7  C          6.3610    0.1330   -0.3830 C.2     1  UNL1       -0.0470
      8  C          5.8060    1.3620   -0.6550 C.2     1  UNL1        0.0040
      9  C          6.1660   -0.4530    0.8460 C.2     1  UNL1        0.0040
     10  C          5.0540    1.9710    0.3510 C.2     1  UNL1        0.0000
     11  C          5.4220    0.1510    1.8410 C.2     1  UNL1        0.0000
     12  C          4.8630    1.3820    1.5760 C.2     1  UNL1        0.0000
@<TRIPOS>BOND
     1     1     6    1
     2     1     2    1
     3     4     2    1
     4     4     5    1
     5     6     7    1
     6     2     3    2
     7     8     7    2
     8     8    10    1
     9     7     9    1
    10    10    12    2
    11     9    11    2
    12    12    11    1
