@<TRIPOS>MOLECULE
/home/cewinharhar/GITHUB/reincatalyze/data/processed/docking_pred/2023-Apr-26-1657_maxeplen10_maxtrainstep1000_exh32_gamma099_lrac9e-4_lrcr1e-3/f411d25023d78b520541a26d40866fe70d26d332_ligand_2.pdbqt
 12 12 0 0 0
SMALL
GASTEIGER

@<TRIPOS>ATOM
      1  C          4.9850    1.7990    0.6890 C.3     1  UNL1        0.1270
      2  C          4.4790    1.1230    1.9060 C.2     1  UNL1        0.3030
      3  O          5.1430    0.2200    2.4730 O.2     1  UNL1       -0.2520
      4  O          3.2540    1.4690    2.4540 O.3     1  UNL1       -0.4810
      5  H          2.9490    2.4460    2.4210 H       1  UNL1        0.2960
      6  C          6.4830    1.7930    0.7350 C.3     1  UNL1        0.0470
      7  C          7.1080    1.0450   -0.3540 C.2     1  UNL1       -0.0470
      8  C          6.3750    0.1620   -1.1120 C.2     1  UNL1        0.0040
      9  C          8.4450    1.2350   -0.6180 C.2     1  UNL1        0.0040
     10  C          7.0380   -0.5180   -2.1370 C.2     1  UNL1        0.0000
     11  C          9.0980    0.5620   -1.6310 C.2     1  UNL1        0.0000
     12  C          8.3720   -0.3250   -2.3950 C.2     1  UNL1        0.0000
@<TRIPOS>BOND
     1    12    10    2
     2    12    11    1
     3    10     8    1
     4    11     9    2
     5     8     7    2
     6     9     7    1
     7     7     6    1
     8     1     6    1
     9     1     2    1
    10     2     4    1
    11     2     3    2
    12     5     4    1
