@<TRIPOS>MOLECULE
/home/cewinharhar/GITHUB/reincatalyze/data/processed/docking_pred/2023-Apr-26-1657_maxeplen10_maxtrainstep1000_exh32_gamma099_lrac9e-4_lrcr1e-3/f411d25023d78b520541a26d40866fe70d26d332_ligand_2.pdbqt
 12 12 0 0 0
SMALL
GASTEIGER

@<TRIPOS>ATOM
      1  C          5.3320    2.9590    0.0550 C.3     1  UNL1        0.1270
      2  C          6.2090    3.8700    0.8270 C.2     1  UNL1        0.3030
      3  O          6.8840    4.7630    0.2560 O.2     1  UNL1       -0.2520
      4  O          6.3090    3.7620    2.2050 O.3     1  UNL1       -0.4810
      5  H          6.3440    4.6120    2.7730 H       1  UNL1        0.2960
      6  C          5.2110    1.6710    0.8100 C.3     1  UNL1        0.0470
      7  C          5.9880    0.5720    0.2400 C.2     1  UNL1       -0.0470
      8  C          6.3850   -0.4890    1.0210 C.2     1  UNL1        0.0040
      9  C          6.3190    0.6060   -1.0950 C.2     1  UNL1        0.0040
     10  C          7.1240   -1.5040    0.4090 C.2     1  UNL1        0.0000
     11  C          7.0500   -0.3980   -1.6980 C.2     1  UNL1        0.0000
     12  C          7.4520   -1.4640   -0.9230 C.2     1  UNL1        0.0000
@<TRIPOS>BOND
     1    11     9    1
     2    11    12    2
     3     9     7    2
     4    12    10    1
     5     1     6    1
     6     1     2    1
     7     7     6    1
     8     7     8    1
     9     3     2    2
    10    10     8    2
    11     2     4    1
    12     4     5    1
