MODEL 1
REMARK VINA RESULT:      -7.3      0.000      0.000
REMARK SMILES O=C(O)CCc1ccccc1
REMARK SMILES IDX 4 1 2 2 1 3 3 4 5 6 6 7 7 8 11 9 8 10 10 11 9 12
REMARK H PARENT 3 5
REMARK Flexibility Score: inf
ROOT
ATOM      1  C   UNL     1       8.432  -0.656  -2.115  1.00  0.00     0.127 C 
ENDROOT
BRANCH   1   2
ATOM      2  C   UNL     1       8.474  -1.912  -2.902  1.00  0.00     0.303 C 
ATOM      3  O   UNL     1       9.555  -2.518  -3.103  1.00  0.00    -0.252 OA
BRANCH   2   4
ATOM      4  O   UNL     1       7.316  -2.452  -3.439  1.00  0.00    -0.481 OA
ATOM      5  H   UNL     1       6.611  -1.827  -3.840  1.00  0.00     0.296 HD
ENDBRANCH   2   4
ENDBRANCH   1   2
BRANCH   1   6
ATOM      6  C   UNL     1       7.022  -0.151  -2.109  1.00  0.00     0.047 C 
BRANCH   6   7
ATOM      7  C   UNL     1       6.468   0.051  -0.771  1.00  0.00    -0.047 A 
ATOM      8  C   UNL     1       5.830   1.225  -0.444  1.00  0.00     0.004 A 
ATOM      9  C   UNL     1       6.590  -0.951   0.164  1.00  0.00     0.004 A 
ATOM     10  C   UNL     1       5.325   1.349   0.853  1.00  0.00     0.000 A 
ATOM     11  C   UNL     1       6.091  -0.826   1.445  1.00  0.00     0.000 A 
ATOM     12  C   UNL     1       5.451   0.347   1.782  1.00  0.00     0.000 A 
ENDBRANCH   6   7
ENDBRANCH   1   6
TORSDOF 4
ENDMDL
MODEL 2
REMARK VINA RESULT:      -7.3      0.072      1.438
REMARK SMILES O=C(O)CCc1ccccc1
REMARK SMILES IDX 4 1 2 2 1 3 3 4 5 6 6 7 7 8 11 9 8 10 10 11 9 12
REMARK H PARENT 3 5
REMARK Flexibility Score: inf
ROOT
ATOM      1  C   UNL     1       8.409  -0.561  -2.222  1.00  0.00     0.127 C 
ENDROOT
BRANCH   1   2
ATOM      2  C   UNL     1       8.450  -1.864  -2.927  1.00  0.00     0.303 C 
ATOM      3  O   UNL     1       9.533  -2.474  -3.105  1.00  0.00    -0.252 OA
BRANCH   2   4
ATOM      4  O   UNL     1       7.289  -2.446  -3.411  1.00  0.00    -0.481 OA
ATOM      5  H   UNL     1       6.463  -2.491  -2.808  1.00  0.00     0.296 HD
ENDBRANCH   2   4
ENDBRANCH   1   2
BRANCH   1   6
ATOM      6  C   UNL     1       6.982  -0.108  -2.154  1.00  0.00     0.047 C 
BRANCH   6   7
ATOM      7  C   UNL     1       6.470   0.039  -0.792  1.00  0.00    -0.047 A 
ATOM      8  C   UNL     1       6.584  -0.987   0.117  1.00  0.00     0.004 A 
ATOM      9  C   UNL     1       5.871   1.222  -0.424  1.00  0.00     0.004 A 
ATOM     10  C   UNL     1       6.073  -0.777   1.399  1.00  0.00     0.000 A 
ATOM     11  C   UNL     1       5.366   1.428   0.844  1.00  0.00     0.000 A 
ATOM     12  C   UNL     1       5.476   0.404   1.761  1.00  0.00     0.000 A 
ENDBRANCH   6   7
ENDBRANCH   1   6
TORSDOF 4
ENDMDL
MODEL 3
REMARK VINA RESULT:      -6.8      3.390      5.093
REMARK SMILES O=C(O)CCc1ccccc1
REMARK SMILES IDX 4 1 2 2 1 3 3 4 5 6 6 7 7 8 11 9 8 10 10 11 9 12
REMARK H PARENT 3 5
REMARK Flexibility Score: inf
ROOT
ATOM      1  C   UNL     1       4.985   1.799   0.689  1.00  0.00     0.127 C 
ENDROOT
BRANCH   1   2
ATOM      2  C   UNL     1       4.479   1.123   1.906  1.00  0.00     0.303 C 
ATOM      3  O   UNL     1       5.143   0.220   2.473  1.00  0.00    -0.252 OA
BRANCH   2   4
ATOM      4  O   UNL     1       3.254   1.469   2.454  1.00  0.00    -0.481 OA
ATOM      5  H   UNL     1       2.949   2.446   2.421  1.00  0.00     0.296 HD
ENDBRANCH   2   4
ENDBRANCH   1   2
BRANCH   1   6
ATOM      6  C   UNL     1       6.483   1.793   0.735  1.00  0.00     0.047 C 
BRANCH   6   7
ATOM      7  C   UNL     1       7.108   1.045  -0.354  1.00  0.00    -0.047 A 
ATOM      8  C   UNL     1       6.375   0.162  -1.112  1.00  0.00     0.004 A 
ATOM      9  C   UNL     1       8.445   1.235  -0.618  1.00  0.00     0.004 A 
ATOM     10  C   UNL     1       7.038  -0.518  -2.137  1.00  0.00     0.000 A 
ATOM     11  C   UNL     1       9.098   0.562  -1.631  1.00  0.00     0.000 A 
ATOM     12  C   UNL     1       8.372  -0.325  -2.395  1.00  0.00     0.000 A 
ENDBRANCH   6   7
ENDBRANCH   1   6
TORSDOF 4
ENDMDL
MODEL 4
REMARK VINA RESULT:      -6.6      3.725      5.099
REMARK SMILES O=C(O)CCc1ccccc1
REMARK SMILES IDX 4 1 2 2 1 3 3 4 5 6 6 7 7 8 11 9 8 10 10 11 9 12
REMARK H PARENT 3 5
REMARK Flexibility Score: inf
ROOT
ATOM      1  C   UNL     1       5.332   2.959   0.055  1.00  0.00     0.127 C 
ENDROOT
BRANCH   1   2
ATOM      2  C   UNL     1       6.209   3.870   0.827  1.00  0.00     0.303 C 
ATOM      3  O   UNL     1       6.884   4.763   0.256  1.00  0.00    -0.252 OA
BRANCH   2   4
ATOM      4  O   UNL     1       6.309   3.762   2.205  1.00  0.00    -0.481 OA
ATOM      5  H   UNL     1       6.344   4.612   2.773  1.00  0.00     0.296 HD
ENDBRANCH   2   4
ENDBRANCH   1   2
BRANCH   1   6
ATOM      6  C   UNL     1       5.211   1.671   0.810  1.00  0.00     0.047 C 
BRANCH   6   7
ATOM      7  C   UNL     1       5.988   0.572   0.240  1.00  0.00    -0.047 A 
ATOM      8  C   UNL     1       6.385  -0.489   1.021  1.00  0.00     0.004 A 
ATOM      9  C   UNL     1       6.319   0.606  -1.095  1.00  0.00     0.004 A 
ATOM     10  C   UNL     1       7.124  -1.504   0.409  1.00  0.00     0.000 A 
ATOM     11  C   UNL     1       7.050  -0.398  -1.698  1.00  0.00     0.000 A 
ATOM     12  C   UNL     1       7.452  -1.464  -0.923  1.00  0.00     0.000 A 
ENDBRANCH   6   7
ENDBRANCH   1   6
TORSDOF 4
ENDMDL
MODEL 5
REMARK VINA RESULT:      -6.5      2.106      2.770
REMARK SMILES O=C(O)CCc1ccccc1
REMARK SMILES IDX 4 1 2 2 1 3 3 4 5 6 6 7 7 8 11 9 8 10 10 11 9 12
REMARK H PARENT 3 5
REMARK Flexibility Score: inf
ROOT
ATOM      1  C   UNL     1       8.518   0.687  -1.635  1.00  0.00     0.127 C 
ENDROOT
BRANCH   1   2
ATOM      2  C   UNL     1       9.670   0.286  -0.793  1.00  0.00     0.303 C 
ATOM      3  O   UNL     1       9.526  -0.502   0.174  1.00  0.00    -0.252 OA
BRANCH   2   4
ATOM      4  O   UNL     1      10.942   0.771  -1.053  1.00  0.00    -0.481 OA
ATOM      5  H   UNL     1      11.129   1.771  -0.937  1.00  0.00     0.296 HD
ENDBRANCH   2   4
ENDBRANCH   1   2
BRANCH   1   6
ATOM      6  C   UNL     1       7.363  -0.211  -1.311  1.00  0.00     0.047 C 
BRANCH   6   7
ATOM      7  C   UNL     1       6.451   0.332  -0.306  1.00  0.00    -0.047 A 
ATOM      8  C   UNL     1       6.204  -0.351   0.862  1.00  0.00     0.004 A 
ATOM      9  C   UNL     1       5.838   1.542  -0.539  1.00  0.00     0.004 A 
ATOM     10  C   UNL     1       5.322   0.228   1.777  1.00  0.00     0.000 A 
ATOM     11  C   UNL     1       4.966   2.112   0.366  1.00  0.00     0.000 A 
ATOM     12  C   UNL     1       4.713   1.434   1.539  1.00  0.00     0.000 A 
ENDBRANCH   6   7
ENDBRANCH   1   6
TORSDOF 4
ENDMDL
