@<TRIPOS>MOLECULE
/home/cewinharhar/GITHUB/reincatalyze/data/processed/docking_pred/2023-Apr-26-1657_maxeplen10_maxtrainstep1000_exh32_gamma099_lrac9e-4_lrcr1e-3/f411d25023d78b520541a26d40866fe70d26d332_ligand_2.pdbqt
 12 12 0 0 0
SMALL
GASTEIGER

@<TRIPOS>ATOM
      1  C          8.5180    0.6870   -1.6350 C.3     1  UNL1        0.1270
      2  C          9.6700    0.2860   -0.7930 C.2     1  UNL1        0.3030
      3  O          9.5260   -0.5020    0.1740 O.2     1  UNL1       -0.2520
      4  O         10.9420    0.7710   -1.0530 O.3     1  UNL1       -0.4810
      5  H         11.1290    1.7710   -0.9370 H       1  UNL1        0.2960
      6  C          7.3630   -0.2110   -1.3110 C.3     1  UNL1        0.0470
      7  C          6.4510    0.3320   -0.3060 C.2     1  UNL1       -0.0470
      8  C          6.2040   -0.3510    0.8620 C.2     1  UNL1        0.0040
      9  C          5.8380    1.5420   -0.5390 C.2     1  UNL1        0.0040
     10  C          5.3220    0.2280    1.7770 C.2     1  UNL1        0.0000
     11  C          4.9660    2.1120    0.3660 C.2     1  UNL1        0.0000
     12  C          4.7130    1.4340    1.5390 C.2     1  UNL1        0.0000
@<TRIPOS>BOND
     1     1     6    1
     2     1     2    1
     3     6     7    1
     4     4     5    1
     5     4     2    1
     6     2     3    2
     7     9     7    2
     8     9    11    1
     9     7     8    1
    10    11    12    2
    11     8    10    2
    12    12    10    1
