MODEL 1
REMARK VINA RESULT:      -7.3      0.000      0.000
REMARK SMILES O=C(O)CCc1ccccc1
REMARK SMILES IDX 4 1 2 2 1 3 3 4 5 6 6 7 7 8 11 9 8 10 10 11 9 12
REMARK H PARENT 3 5
REMARK Flexibility Score: inf
ROOT
ATOM      1  C   UNL     1       8.416  -0.631  -2.130  1.00  0.00     0.127 C 
ENDROOT
BRANCH   1   2
ATOM      2  C   UNL     1       8.466  -1.896  -2.901  1.00  0.00     0.303 C 
ATOM      3  O   UNL     1       9.552  -2.496  -3.096  1.00  0.00    -0.252 OA
BRANCH   2   4
ATOM      4  O   UNL     1       7.312  -2.452  -3.428  1.00  0.00    -0.481 OA
ATOM      5  H   UNL     1       7.371  -3.012  -4.283  1.00  0.00     0.296 HD
ENDBRANCH   2   4
ENDBRANCH   1   2
BRANCH   1   6
ATOM      6  C   UNL     1       6.997  -0.150  -2.106  1.00  0.00     0.047 C 
BRANCH   6   7
ATOM      7  C   UNL     1       6.459   0.047  -0.761  1.00  0.00    -0.047 A 
ATOM      8  C   UNL     1       5.839   1.226  -0.417  1.00  0.00     0.004 A 
ATOM      9  C   UNL     1       6.577  -0.965   0.164  1.00  0.00     0.004 A 
ATOM     10  C   UNL     1       5.348   1.344   0.885  1.00  0.00     0.000 A 
ATOM     11  C   UNL     1       6.091  -0.846   1.451  1.00  0.00     0.000 A 
ATOM     12  C   UNL     1       5.469   0.332   1.803  1.00  0.00     0.000 A 
ENDBRANCH   6   7
ENDBRANCH   1   6
TORSDOF 4
ENDMDL
MODEL 2
REMARK VINA RESULT:      -7.3      0.071      1.438
REMARK SMILES O=C(O)CCc1ccccc1
REMARK SMILES IDX 4 1 2 2 1 3 3 4 5 6 6 7 7 8 11 9 8 10 10 11 9 12
REMARK H PARENT 3 5
REMARK Flexibility Score: inf
ROOT
ATOM      1  C   UNL     1       8.417  -0.550  -2.245  1.00  0.00     0.127 C 
ENDROOT
BRANCH   1   2
ATOM      2  C   UNL     1       8.463  -1.864  -2.930  1.00  0.00     0.303 C 
ATOM      3  O   UNL     1       9.547  -2.479  -3.085  1.00  0.00    -0.252 OA
BRANCH   2   4
ATOM      4  O   UNL     1       7.307  -2.450  -3.420  1.00  0.00    -0.481 OA
ATOM      5  H   UNL     1       6.777  -3.089  -2.821  1.00  0.00     0.296 HD
ENDBRANCH   2   4
ENDBRANCH   1   2
BRANCH   1   6
ATOM      6  C   UNL     1       6.987  -0.109  -2.169  1.00  0.00     0.047 C 
BRANCH   6   7
ATOM      7  C   UNL     1       6.479   0.027  -0.805  1.00  0.00    -0.047 A 
ATOM      8  C   UNL     1       6.606  -1.002   0.099  1.00  0.00     0.004 A 
ATOM      9  C   UNL     1       5.871   1.203  -0.430  1.00  0.00     0.004 A 
ATOM     10  C   UNL     1       6.098  -0.801   1.385  1.00  0.00     0.000 A 
ATOM     11  C   UNL     1       5.370   1.399   0.842  1.00  0.00     0.000 A 
ATOM     12  C   UNL     1       5.492   0.373   1.753  1.00  0.00     0.000 A 
ENDBRANCH   6   7
ENDBRANCH   1   6
TORSDOF 4
ENDMDL
MODEL 3
REMARK VINA RESULT:      -7.2      0.618      1.064
REMARK SMILES O=C(O)CCc1ccccc1
REMARK SMILES IDX 4 1 2 2 1 3 3 4 5 6 6 7 7 8 11 9 8 10 10 11 9 12
REMARK H PARENT 3 5
REMARK Flexibility Score: inf
ROOT
ATOM      1  C   UNL     1       8.159  -0.805  -2.005  1.00  0.00     0.127 C 
ENDROOT
BRANCH   1   2
ATOM      2  C   UNL     1       8.369  -1.964  -2.905  1.00  0.00     0.303 C 
ATOM      3  O   UNL     1       9.518  -2.429  -3.109  1.00  0.00    -0.252 OA
BRANCH   2   4
ATOM      4  O   UNL     1       7.300  -2.567  -3.547  1.00  0.00    -0.481 OA
ATOM      5  H   UNL     1       6.505  -2.897  -2.994  1.00  0.00     0.296 HD
ENDBRANCH   2   4
ENDBRANCH   1   2
BRANCH   1   6
ATOM      6  C   UNL     1       7.377  -1.269  -0.815  1.00  0.00     0.047 C 
BRANCH   6   7
ATOM      7  C   UNL     1       6.545  -0.231  -0.208  1.00  0.00    -0.047 A 
ATOM      8  C   UNL     1       6.161   0.875  -0.931  1.00  0.00     0.004 A 
ATOM      9  C   UNL     1       6.144  -0.371   1.100  1.00  0.00     0.004 A 
ATOM     10  C   UNL     1       5.365   1.826  -0.288  1.00  0.00     0.000 A 
ATOM     11  C   UNL     1       5.358   0.570   1.735  1.00  0.00     0.000 A 
ATOM     12  C   UNL     1       4.970   1.681   1.017  1.00  0.00     0.000 A 
ENDBRANCH   6   7
ENDBRANCH   1   6
TORSDOF 4
ENDMDL
MODEL 4
REMARK VINA RESULT:      -6.8      3.377      5.051
REMARK SMILES O=C(O)CCc1ccccc1
REMARK SMILES IDX 4 1 2 2 1 3 3 4 5 6 6 7 7 8 11 9 8 10 10 11 9 12
REMARK H PARENT 3 5
REMARK Flexibility Score: inf
ROOT
ATOM      1  C   UNL     1       5.039   1.783   0.701  1.00  0.00     0.127 C 
ENDROOT
BRANCH   1   2
ATOM      2  C   UNL     1       4.504   1.107   1.907  1.00  0.00     0.303 C 
ATOM      3  O   UNL     1       5.146   0.193   2.480  1.00  0.00    -0.252 OA
BRANCH   2   4
ATOM      4  O   UNL     1       3.274   1.467   2.434  1.00  0.00    -0.481 OA
ATOM      5  H   UNL     1       3.040   1.190   3.392  1.00  0.00     0.296 HD
ENDBRANCH   2   4
ENDBRANCH   1   2
BRANCH   1   6
ATOM      6  C   UNL     1       6.536   1.749   0.769  1.00  0.00     0.047 C 
BRANCH   6   7
ATOM      7  C   UNL     1       7.164   1.015  -0.329  1.00  0.00    -0.047 A 
ATOM      8  C   UNL     1       8.482   1.231  -0.656  1.00  0.00     0.004 A 
ATOM      9  C   UNL     1       6.420   0.099  -1.036  1.00  0.00     0.004 A 
ATOM     10  C   UNL     1       9.017   0.495  -1.715  1.00  0.00     0.000 A 
ATOM     11  C   UNL     1       6.950  -0.628  -2.084  1.00  0.00     0.000 A 
ATOM     12  C   UNL     1       8.270  -0.417  -2.418  1.00  0.00     0.000 A 
ENDBRANCH   6   7
ENDBRANCH   1   6
TORSDOF 4
ENDMDL
MODEL 5
REMARK VINA RESULT:      -6.7      3.828      4.904
REMARK SMILES O=C(O)CCc1ccccc1
REMARK SMILES IDX 4 1 2 2 1 3 3 4 5 6 6 7 7 8 11 9 8 10 10 11 9 12
REMARK H PARENT 3 5
REMARK Flexibility Score: inf
ROOT
ATOM      1  C   UNL     1       5.474   2.877  -0.012  1.00  0.00     0.127 C 
ENDROOT
BRANCH   1   2
ATOM      2  C   UNL     1       6.257   3.837   0.801  1.00  0.00     0.303 C 
ATOM      3  O   UNL     1       6.901   4.772   0.263  1.00  0.00    -0.252 OA
BRANCH   2   4
ATOM      4  O   UNL     1       6.302   3.728   2.181  1.00  0.00    -0.481 OA
ATOM      5  H   UNL     1       6.407   4.574   2.748  1.00  0.00     0.296 HD
ENDBRANCH   2   4
ENDBRANCH   1   2
BRANCH   1   6
ATOM      6  C   UNL     1       4.932   1.819   0.901  1.00  0.00     0.047 C 
BRANCH   6   7
ATOM      7  C   UNL     1       5.719   0.587   0.916  1.00  0.00    -0.047 A 
ATOM      8  C   UNL     1       6.367   0.153  -0.217  1.00  0.00     0.004 A 
ATOM      9  C   UNL     1       5.809  -0.138   2.081  1.00  0.00     0.004 A 
ATOM     10  C   UNL     1       7.102  -1.032  -0.130  1.00  0.00     0.000 A 
ATOM     11  C   UNL     1       6.535  -1.309   2.165  1.00  0.00     0.000 A 
ATOM     12  C   UNL     1       7.187  -1.752   1.035  1.00  0.00     0.000 A 
ENDBRANCH   6   7
ENDBRANCH   1   6
TORSDOF 4
ENDMDL
