@<TRIPOS>MOLECULE
/home/cewinharhar/GITHUB/reincatalyze/data/processed/docking_pred/2023-Apr-26-1657_maxeplen10_maxtrainstep1000_exh32_gamma099_lrac9e-4_lrcr1e-3/f43d8cd6194682d8f3e5600fbc578d0750565092_ligand_2.pdbqt
 12 12 0 0 0
SMALL
GASTEIGER

@<TRIPOS>ATOM
      1  C          5.4740    2.8770   -0.0120 C.3     1  UNL1        0.1270
      2  C          6.2570    3.8370    0.8010 C.2     1  UNL1        0.3030
      3  O          6.9010    4.7720    0.2630 O.2     1  UNL1       -0.2520
      4  O          6.3020    3.7280    2.1810 O.3     1  UNL1       -0.4810
      5  H          6.4070    4.5740    2.7480 H       1  UNL1        0.2960
      6  C          4.9320    1.8190    0.9010 C.3     1  UNL1        0.0470
      7  C          5.7190    0.5870    0.9160 C.2     1  UNL1       -0.0470
      8  C          6.3670    0.1530   -0.2170 C.2     1  UNL1        0.0040
      9  C          5.8090   -0.1380    2.0810 C.2     1  UNL1        0.0040
     10  C          7.1020   -1.0320   -0.1300 C.2     1  UNL1        0.0000
     11  C          6.5350   -1.3090    2.1650 C.2     1  UNL1        0.0000
     12  C          7.1870   -1.7520    1.0350 C.2     1  UNL1        0.0000
@<TRIPOS>BOND
     1     8    10    1
     2     8     7    2
     3    10    12    2
     4     1     2    1
     5     1     6    1
     6     3     2    2
     7     2     4    1
     8     6     7    1
     9     7     9    1
    10    12    11    1
    11     9    11    2
    12     4     5    1
