@<TRIPOS>MOLECULE
/home/cewinharhar/GITHUB/reincatalyze/data/processed/docking_pred/2023-Apr-26-1657_maxeplen10_maxtrainstep1000_exh32_gamma099_lrac9e-4_lrcr1e-3/f43d8cd6194682d8f3e5600fbc578d0750565092_ligand_2.pdbqt
 12 12 0 0 0
SMALL
GASTEIGER

@<TRIPOS>ATOM
      1  C          8.4170   -0.5500   -2.2450 C.3     1  UNL1        0.1270
      2  C          8.4630   -1.8640   -2.9300 C.2     1  UNL1        0.3030
      3  O          9.5470   -2.4790   -3.0850 O.2     1  UNL1       -0.2520
      4  O          7.3070   -2.4500   -3.4200 O.3     1  UNL1       -0.4810
      5  H          6.7770   -3.0890   -2.8210 H       1  UNL1        0.2960
      6  C          6.9870   -0.1090   -2.1690 C.3     1  UNL1        0.0470
      7  C          6.4790    0.0270   -0.8050 C.2     1  UNL1       -0.0470
      8  C          6.6060   -1.0020    0.0990 C.2     1  UNL1        0.0040
      9  C          5.8710    1.2030   -0.4300 C.2     1  UNL1        0.0040
     10  C          6.0980   -0.8010    1.3850 C.2     1  UNL1        0.0000
     11  C          5.3700    1.3990    0.8420 C.2     1  UNL1        0.0000
     12  C          5.4920    0.3730    1.7530 C.2     1  UNL1        0.0000
@<TRIPOS>BOND
     1     4     2    1
     2     4     5    1
     3     3     2    2
     4     2     1    1
     5     1     6    1
     6     6     7    1
     7     7     9    2
     8     7     8    1
     9     9    11    1
    10     8    10    2
    11    11    12    2
    12    10    12    1
