@<TRIPOS>MOLECULE
/home/cewinharhar/GITHUB/reincatalyze/data/processed/docking_pred/2023-Apr-26-1657_maxeplen10_maxtrainstep1000_exh32_gamma099_lrac9e-4_lrcr1e-3/f43d8cd6194682d8f3e5600fbc578d0750565092_ligand_2.pdbqt
 12 12 0 0 0
SMALL
GASTEIGER

@<TRIPOS>ATOM
      1  C          5.0390    1.7830    0.7010 C.3     1  UNL1        0.1270
      2  C          4.5040    1.1070    1.9070 C.2     1  UNL1        0.3030
      3  O          5.1460    0.1930    2.4800 O.2     1  UNL1       -0.2520
      4  O          3.2740    1.4670    2.4340 O.3     1  UNL1       -0.4810
      5  H          3.0400    1.1900    3.3920 H       1  UNL1        0.2960
      6  C          6.5360    1.7490    0.7690 C.3     1  UNL1        0.0470
      7  C          7.1640    1.0150   -0.3290 C.2     1  UNL1       -0.0470
      8  C          8.4820    1.2310   -0.6560 C.2     1  UNL1        0.0040
      9  C          6.4200    0.0990   -1.0360 C.2     1  UNL1        0.0040
     10  C          9.0170    0.4950   -1.7150 C.2     1  UNL1        0.0000
     11  C          6.9500   -0.6280   -2.0840 C.2     1  UNL1        0.0000
     12  C          8.2700   -0.4170   -2.4180 C.2     1  UNL1        0.0000
@<TRIPOS>BOND
     1    12    11    2
     2    12    10    1
     3    11     9    1
     4    10     8    2
     5     9     7    2
     6     8     7    1
     7     7     6    1
     8     1     6    1
     9     1     2    1
    10     2     4    1
    11     2     3    2
    12     4     5    1
