@<TRIPOS>MOLECULE
/home/cewinharhar/GITHUB/reincatalyze/data/processed/docking_pred/2023-Apr-26-1657_maxeplen10_maxtrainstep1000_exh32_gamma099_lrac9e-4_lrcr1e-3/f43d8cd6194682d8f3e5600fbc578d0750565092_ligand_2.pdbqt
 12 12 0 0 0
SMALL
GASTEIGER

@<TRIPOS>ATOM
      1  C          8.1590   -0.8050   -2.0050 C.3     1  UNL1        0.1270
      2  C          8.3690   -1.9640   -2.9050 C.2     1  UNL1        0.3030
      3  O          9.5180   -2.4290   -3.1090 O.2     1  UNL1       -0.2520
      4  O          7.3000   -2.5670   -3.5470 O.3     1  UNL1       -0.4810
      5  H          6.5050   -2.8970   -2.9940 H       1  UNL1        0.2960
      6  C          7.3770   -1.2690   -0.8150 C.3     1  UNL1        0.0470
      7  C          6.5450   -0.2310   -0.2080 C.2     1  UNL1       -0.0470
      8  C          6.1610    0.8750   -0.9310 C.2     1  UNL1        0.0040
      9  C          6.1440   -0.3710    1.1000 C.2     1  UNL1        0.0040
     10  C          5.3650    1.8260   -0.2880 C.2     1  UNL1        0.0000
     11  C          5.3580    0.5700    1.7350 C.2     1  UNL1        0.0000
     12  C          4.9700    1.6810    1.0170 C.2     1  UNL1        0.0000
@<TRIPOS>BOND
     1     4     5    1
     2     4     2    1
     3     3     2    2
     4     2     1    1
     5     1     6    1
     6     8    10    1
     7     8     7    2
     8     6     7    1
     9    10    12    2
    10     7     9    1
    11    12    11    1
    12     9    11    2
