@<TRIPOS>MOLECULE
/home/cewinharhar/GITHUB/reincatalyze/data/processed/docking_pred/2023-Apr-26-1657_maxeplen10_maxtrainstep1000_exh32_gamma099_lrac9e-4_lrcr1e-3/f43d8cd6194682d8f3e5600fbc578d0750565092_ligand_2.pdbqt
 12 12 0 0 0
SMALL
GASTEIGER

@<TRIPOS>ATOM
      1  C          8.4160   -0.6310   -2.1300 C.3     1  UNL1        0.1270
      2  C          8.4660   -1.8960   -2.9010 C.2     1  UNL1        0.3030
      3  O          9.5520   -2.4960   -3.0960 O.2     1  UNL1       -0.2520
      4  O          7.3120   -2.4520   -3.4280 O.3     1  UNL1       -0.4810
      5  H          7.3710   -3.0120   -4.2830 H       1  UNL1        0.2960
      6  C          6.9970   -0.1500   -2.1060 C.3     1  UNL1        0.0470
      7  C          6.4590    0.0470   -0.7610 C.2     1  UNL1       -0.0470
      8  C          5.8390    1.2260   -0.4170 C.2     1  UNL1        0.0040
      9  C          6.5770   -0.9650    0.1640 C.2     1  UNL1        0.0040
     10  C          5.3480    1.3440    0.8850 C.2     1  UNL1        0.0000
     11  C          6.0910   -0.8460    1.4510 C.2     1  UNL1        0.0000
     12  C          5.4690    0.3320    1.8030 C.2     1  UNL1        0.0000
@<TRIPOS>BOND
     1     5     4    1
     2     4     2    1
     3     3     2    2
     4     2     1    1
     5     1     6    1
     6     6     7    1
     7     7     8    2
     8     7     9    1
     9     8    10    1
    10     9    11    2
    11    10    12    2
    12    11    12    1
