@<TRIPOS>MOLECULE
/home/cewinharhar/GITHUB/reincatalyze/data/processed/docking_pred/2023-Apr-26-1657_maxeplen10_maxtrainstep1000_exh32_gamma099_lrac9e-4_lrcr1e-3/f56adf6440abdf94ed5aca5eaefea0329b307251_ligand_2.pdbqt
 12 12 0 0 0
SMALL
GASTEIGER

@<TRIPOS>ATOM
      1  C          5.4290    2.8240    0.0690 C.3     1  UNL1        0.1270
      2  C          6.2140    3.7920    0.8710 C.2     1  UNL1        0.3030
      3  O          6.2130    3.7490    2.1260 O.2     1  UNL1       -0.2520
      4  O          6.9720    4.7740    0.2550 O.3     1  UNL1       -0.4810
      5  H          6.9750    4.8380   -0.7670 H       1  UNL1        0.2960
      6  C          4.9010    1.7680    0.9910 C.3     1  UNL1        0.0470
      7  C          5.6990    0.5430    1.0120 C.2     1  UNL1       -0.0470
      8  C          5.7660   -0.2330    2.1450 C.2     1  UNL1        0.0040
      9  C          6.3860    0.1700   -0.1200 C.2     1  UNL1        0.0040
     10  C          6.5470   -1.3900    2.0930 C.2     1  UNL1        0.0000
     11  C          7.1580   -0.9730   -0.1700 C.2     1  UNL1        0.0000
     12  C          7.2310   -1.7570    0.9620 C.2     1  UNL1        0.0000
@<TRIPOS>BOND
     1     5     4    1
     2    11     9    1
     3    11    12    2
     4     9     7    2
     5     1     2    1
     6     1     6    1
     7     4     2    1
     8     2     3    2
     9    12    10    1
    10     6     7    1
    11     7     8    1
    12    10     8    2
