@<TRIPOS>MOLECULE
/home/cewinharhar/GITHUB/reincatalyze/data/processed/docking_pred/2023-Apr-26-1657_maxeplen10_maxtrainstep1000_exh32_gamma099_lrac9e-4_lrcr1e-3/f56adf6440abdf94ed5aca5eaefea0329b307251_ligand_2.pdbqt
 12 12 0 0 0
SMALL
GASTEIGER

@<TRIPOS>ATOM
      1  C          8.4360   -0.5870   -2.1970 C.3     1  UNL1        0.1270
      2  C          8.4720   -1.8830   -2.9160 C.2     1  UNL1        0.3030
      3  O          9.5490   -2.5070   -3.0790 O.2     1  UNL1       -0.2520
      4  O          7.3130   -2.4410   -3.4310 O.3     1  UNL1       -0.4810
      5  H          6.7940   -1.9390   -4.1560 H       1  UNL1        0.2960
      6  C          7.0150   -0.1150   -2.1500 C.3     1  UNL1        0.0470
      7  C          6.4850    0.0430   -0.7960 C.2     1  UNL1       -0.0470
      8  C          6.6140   -0.9650    0.1310 C.2     1  UNL1        0.0040
      9  C          5.8530    1.2160   -0.4540 C.2     1  UNL1        0.0040
     10  C          6.0850   -0.7460    1.4050 C.2     1  UNL1        0.0000
     11  C          5.3310    1.4310    0.8050 C.2     1  UNL1        0.0000
     12  C          5.4550    0.4260    1.7400 C.2     1  UNL1        0.0000
@<TRIPOS>BOND
     1     5     4    1
     2     4     2    1
     3     3     2    2
     4     2     1    1
     5     1     6    1
     6     6     7    1
     7     7     9    2
     8     7     8    1
     9     9    11    1
    10     8    10    2
    11    11    12    2
    12    10    12    1
