@<TRIPOS>MOLECULE
/home/cewinharhar/GITHUB/reincatalyze/data/processed/docking_pred/2023-Apr-26-1657_maxeplen10_maxtrainstep1000_exh32_gamma099_lrac9e-4_lrcr1e-3/f56adf6440abdf94ed5aca5eaefea0329b307251_ligand_2.pdbqt
 12 12 0 0 0
SMALL
GASTEIGER

@<TRIPOS>ATOM
      1  C          8.2040   -1.6330    1.1500 C.3     1  UNL1        0.1270
      2  C          8.5160   -2.8410    0.3510 C.2     1  UNL1        0.3030
      3  O          9.1910   -3.7840    0.8340 O.2     1  UNL1       -0.2520
      4  O          8.0690   -2.9640   -0.9550 O.3     1  UNL1       -0.4810
      5  H          8.3670   -2.2770   -1.6520 H       1  UNL1        0.2960
      6  C          6.7150   -1.5240    1.2790 C.3     1  UNL1        0.0470
      7  C          6.1680   -0.2550    0.8030 C.2     1  UNL1       -0.0470
      8  C          5.4030    0.5350    1.6290 C.2     1  UNL1        0.0040
      9  C          6.4290    0.1470   -0.4860 C.2     1  UNL1        0.0040
     10  C          4.9140    1.7350    1.1090 C.2     1  UNL1        0.0000
     11  C          5.9450    1.3340   -1.0000 C.2     1  UNL1        0.0000
     12  C          5.1760    2.1310   -0.1790 C.2     1  UNL1        0.0000
@<TRIPOS>BOND
     1     5     4    1
     2    11     9    1
     3    11    12    2
     4     4     2    1
     5     9     7    2
     6    12    10    1
     7     2     3    2
     8     2     1    1
     9     7     6    1
    10     7     8    1
    11    10     8    2
    12     1     6    1
