MODEL 1
REMARK VINA RESULT:      -7.4      0.000      0.000
REMARK SMILES O=C(O)CCc1ccccc1
REMARK SMILES IDX 4 1 2 2 1 3 3 4 5 6 6 7 7 8 11 9 8 10 10 11 9 12
REMARK H PARENT 3 5
REMARK Flexibility Score: inf
ROOT
ATOM      1  C   UNL     1       8.436  -0.587  -2.197  1.00  0.00     0.127 C 
ENDROOT
BRANCH   1   2
ATOM      2  C   UNL     1       8.472  -1.883  -2.916  1.00  0.00     0.303 C 
ATOM      3  O   UNL     1       9.549  -2.507  -3.079  1.00  0.00    -0.252 OA
BRANCH   2   4
ATOM      4  O   UNL     1       7.313  -2.441  -3.431  1.00  0.00    -0.481 OA
ATOM      5  H   UNL     1       6.794  -1.939  -4.156  1.00  0.00     0.296 HD
ENDBRANCH   2   4
ENDBRANCH   1   2
BRANCH   1   6
ATOM      6  C   UNL     1       7.015  -0.115  -2.150  1.00  0.00     0.047 C 
BRANCH   6   7
ATOM      7  C   UNL     1       6.485   0.043  -0.796  1.00  0.00    -0.047 A 
ATOM      8  C   UNL     1       6.614  -0.965   0.131  1.00  0.00     0.004 A 
ATOM      9  C   UNL     1       5.853   1.216  -0.454  1.00  0.00     0.004 A 
ATOM     10  C   UNL     1       6.085  -0.746   1.405  1.00  0.00     0.000 A 
ATOM     11  C   UNL     1       5.331   1.431   0.805  1.00  0.00     0.000 A 
ATOM     12  C   UNL     1       5.455   0.426   1.740  1.00  0.00     0.000 A 
ENDBRANCH   6   7
ENDBRANCH   1   6
TORSDOF 4
ENDMDL
MODEL 2
REMARK VINA RESULT:      -7.3      0.132      1.732
REMARK SMILES O=C(O)CCc1ccccc1
REMARK SMILES IDX 4 1 2 2 1 3 3 4 5 6 6 7 7 8 11 9 8 10 10 11 9 12
REMARK H PARENT 3 5
REMARK Flexibility Score: inf
ROOT
ATOM      1  C   UNL     1       8.395  -0.628  -2.109  1.00  0.00     0.127 C 
ENDROOT
BRANCH   1   2
ATOM      2  C   UNL     1       8.364  -1.885  -2.893  1.00  0.00     0.303 C 
ATOM      3  O   UNL     1       7.276  -2.403  -3.249  1.00  0.00    -0.252 OA
BRANCH   2   4
ATOM      4  O   UNL     1       9.538  -2.526  -3.254  1.00  0.00    -0.481 OA
ATOM      5  H   UNL     1       9.674  -3.507  -2.994  1.00  0.00     0.296 HD
ENDBRANCH   2   4
ENDBRANCH   1   2
BRANCH   1   6
ATOM      6  C   UNL     1       7.010  -0.057  -2.079  1.00  0.00     0.047 C 
BRANCH   6   7
ATOM      7  C   UNL     1       6.458   0.093  -0.733  1.00  0.00    -0.047 A 
ATOM      8  C   UNL     1       5.809   1.249  -0.365  1.00  0.00     0.004 A 
ATOM      9  C   UNL     1       6.592  -0.938   0.167  1.00  0.00     0.004 A 
ATOM     10  C   UNL     1       5.306   1.323   0.936  1.00  0.00     0.000 A 
ATOM     11  C   UNL     1       6.094  -0.863   1.452  1.00  0.00     0.000 A 
ATOM     12  C   UNL     1       5.443   0.291   1.830  1.00  0.00     0.000 A 
ENDBRANCH   6   7
ENDBRANCH   1   6
TORSDOF 4
ENDMDL
MODEL 3
REMARK VINA RESULT:      -6.8      3.371      5.068
REMARK SMILES O=C(O)CCc1ccccc1
REMARK SMILES IDX 4 1 2 2 1 3 3 4 5 6 6 7 7 8 11 9 8 10 10 11 9 12
REMARK H PARENT 3 5
REMARK Flexibility Score: inf
ROOT
ATOM      1  C   UNL     1       5.007   1.761   0.676  1.00  0.00     0.127 C 
ENDROOT
BRANCH   1   2
ATOM      2  C   UNL     1       4.496   1.101   1.901  1.00  0.00     0.303 C 
ATOM      3  O   UNL     1       5.155   0.201   2.478  1.00  0.00    -0.252 OA
BRANCH   2   4
ATOM      4  O   UNL     1       3.273   1.461   2.443  1.00  0.00    -0.481 OA
ATOM      5  H   UNL     1       3.179   2.367   2.911  1.00  0.00     0.296 HD
ENDBRANCH   2   4
ENDBRANCH   1   2
BRANCH   1   6
ATOM      6  C   UNL     1       6.503   1.777   0.739  1.00  0.00     0.047 C 
BRANCH   6   7
ATOM      7  C   UNL     1       7.152   1.029  -0.337  1.00  0.00    -0.047 A 
ATOM      8  C   UNL     1       8.474   1.249  -0.649  1.00  0.00     0.004 A 
ATOM      9  C   UNL     1       6.425   0.095  -1.038  1.00  0.00     0.004 A 
ATOM     10  C   UNL     1       9.028   0.498  -1.687  1.00  0.00     0.000 A 
ATOM     11  C   UNL     1       6.975  -0.646  -2.065  1.00  0.00     0.000 A 
ATOM     12  C   UNL     1       8.298  -0.431  -2.384  1.00  0.00     0.000 A 
ENDBRANCH   6   7
ENDBRANCH   1   6
TORSDOF 4
ENDMDL
MODEL 4
REMARK VINA RESULT:      -6.7      3.830      4.946
REMARK SMILES O=C(O)CCc1ccccc1
REMARK SMILES IDX 4 1 2 2 1 3 3 4 5 6 6 7 7 8 11 9 8 10 10 11 9 12
REMARK H PARENT 3 5
REMARK Flexibility Score: inf
ROOT
ATOM      1  C   UNL     1       5.429   2.824   0.069  1.00  0.00     0.127 C 
ENDROOT
BRANCH   1   2
ATOM      2  C   UNL     1       6.214   3.792   0.871  1.00  0.00     0.303 C 
ATOM      3  O   UNL     1       6.213   3.749   2.126  1.00  0.00    -0.252 OA
BRANCH   2   4
ATOM      4  O   UNL     1       6.972   4.774   0.255  1.00  0.00    -0.481 OA
ATOM      5  H   UNL     1       6.975   4.838  -0.767  1.00  0.00     0.296 HD
ENDBRANCH   2   4
ENDBRANCH   1   2
BRANCH   1   6
ATOM      6  C   UNL     1       4.901   1.768   0.991  1.00  0.00     0.047 C 
BRANCH   6   7
ATOM      7  C   UNL     1       5.699   0.543   1.012  1.00  0.00    -0.047 A 
ATOM      8  C   UNL     1       5.766  -0.233   2.145  1.00  0.00     0.004 A 
ATOM      9  C   UNL     1       6.386   0.170  -0.120  1.00  0.00     0.004 A 
ATOM     10  C   UNL     1       6.547  -1.390   2.093  1.00  0.00     0.000 A 
ATOM     11  C   UNL     1       7.158  -0.973  -0.170  1.00  0.00     0.000 A 
ATOM     12  C   UNL     1       7.231  -1.757   0.962  1.00  0.00     0.000 A 
ENDBRANCH   6   7
ENDBRANCH   1   6
TORSDOF 4
ENDMDL
MODEL 5
REMARK VINA RESULT:      -6.6      1.883      2.859
REMARK SMILES O=C(O)CCc1ccccc1
REMARK SMILES IDX 4 1 2 2 1 3 3 4 5 6 6 7 7 8 11 9 8 10 10 11 9 12
REMARK H PARENT 3 5
REMARK Flexibility Score: inf
ROOT
ATOM      1  C   UNL     1       8.204  -1.633   1.150  1.00  0.00     0.127 C 
ENDROOT
BRANCH   1   2
ATOM      2  C   UNL     1       8.516  -2.841   0.351  1.00  0.00     0.303 C 
ATOM      3  O   UNL     1       9.191  -3.784   0.834  1.00  0.00    -0.252 OA
BRANCH   2   4
ATOM      4  O   UNL     1       8.069  -2.964  -0.955  1.00  0.00    -0.481 OA
ATOM      5  H   UNL     1       8.367  -2.277  -1.652  1.00  0.00     0.296 HD
ENDBRANCH   2   4
ENDBRANCH   1   2
BRANCH   1   6
ATOM      6  C   UNL     1       6.715  -1.524   1.279  1.00  0.00     0.047 C 
BRANCH   6   7
ATOM      7  C   UNL     1       6.168  -0.255   0.803  1.00  0.00    -0.047 A 
ATOM      8  C   UNL     1       5.403   0.535   1.629  1.00  0.00     0.004 A 
ATOM      9  C   UNL     1       6.429   0.147  -0.486  1.00  0.00     0.004 A 
ATOM     10  C   UNL     1       4.914   1.735   1.109  1.00  0.00     0.000 A 
ATOM     11  C   UNL     1       5.945   1.334  -1.000  1.00  0.00     0.000 A 
ATOM     12  C   UNL     1       5.176   2.131  -0.179  1.00  0.00     0.000 A 
ENDBRANCH   6   7
ENDBRANCH   1   6
TORSDOF 4
ENDMDL
