@<TRIPOS>MOLECULE
/home/cewinharhar/GITHUB/reincatalyze/data/processed/docking_pred/2023-Apr-26-1657_maxeplen10_maxtrainstep1000_exh32_gamma099_lrac9e-4_lrcr1e-3/f56adf6440abdf94ed5aca5eaefea0329b307251_ligand_2.pdbqt
 12 12 0 0 0
SMALL
GASTEIGER

@<TRIPOS>ATOM
      1  C          5.0070    1.7610    0.6760 C.3     1  UNL1        0.1270
      2  C          4.4960    1.1010    1.9010 C.2     1  UNL1        0.3030
      3  O          5.1550    0.2010    2.4780 O.2     1  UNL1       -0.2520
      4  O          3.2730    1.4610    2.4430 O.3     1  UNL1       -0.4810
      5  H          3.1790    2.3670    2.9110 H       1  UNL1        0.2960
      6  C          6.5030    1.7770    0.7390 C.3     1  UNL1        0.0470
      7  C          7.1520    1.0290   -0.3370 C.2     1  UNL1       -0.0470
      8  C          8.4740    1.2490   -0.6490 C.2     1  UNL1        0.0040
      9  C          6.4250    0.0950   -1.0380 C.2     1  UNL1        0.0040
     10  C          9.0280    0.4980   -1.6870 C.2     1  UNL1        0.0000
     11  C          6.9750   -0.6460   -2.0650 C.2     1  UNL1        0.0000
     12  C          8.2980   -0.4310   -2.3840 C.2     1  UNL1        0.0000
@<TRIPOS>BOND
     1    12    11    2
     2    12    10    1
     3    11     9    1
     4    10     8    2
     5     9     7    2
     6     8     7    1
     7     7     6    1
     8     1     6    1
     9     1     2    1
    10     2     4    1
    11     2     3    2
    12     4     5    1
