@<TRIPOS>MOLECULE
/home/cewinharhar/GITHUB/reincatalyze/data/processed/docking_pred/2023-Apr-26-1657_maxeplen10_maxtrainstep1000_exh32_gamma099_lrac9e-4_lrcr1e-3/f5d21a1fca5b46740ede221944c3c0743e15dd7f_ligand_2.pdbqt
 12 12 0 0 0
SMALL
GASTEIGER

@<TRIPOS>ATOM
      1  C          5.4620    2.6200    0.0070 C.3     1  UNL1        0.1270
      2  C          6.1760    3.6290    0.8240 C.2     1  UNL1        0.3030
      3  O          6.2580    3.5170    2.0720 O.2     1  UNL1       -0.2520
      4  O          6.7740    4.7290    0.2290 O.3     1  UNL1       -0.4810
      5  H          7.0410    4.6820   -0.7580 H       1  UNL1        0.2960
      6  C          5.9190    1.2590    0.4370 C.3     1  UNL1        0.0470
      7  C          6.8490    0.6220   -0.4940 C.2     1  UNL1       -0.0470
      8  C          6.4840   -0.5040   -1.1940 C.2     1  UNL1        0.0040
      9  C          8.1010    1.1650   -0.6680 C.2     1  UNL1        0.0040
     10  C          7.4230   -1.0580   -2.0670 C.2     1  UNL1        0.0000
     11  C          9.0290    0.6160   -1.5310 C.2     1  UNL1        0.0000
     12  C          8.6710   -0.5140   -2.2350 C.2     1  UNL1        0.0000
@<TRIPOS>BOND
     1    12    10    2
     2    12    11    1
     3    10     8    1
     4    11     9    2
     5     8     7    2
     6     5     4    1
     7     9     7    1
     8     7     6    1
     9     1     6    1
    10     1     2    1
    11     4     2    1
    12     2     3    2
