@<TRIPOS>MOLECULE
/home/cewinharhar/GITHUB/reincatalyze/data/processed/docking_pred/2023-Apr-26-1657_maxeplen10_maxtrainstep1000_exh32_gamma099_lrac9e-4_lrcr1e-3/f5d21a1fca5b46740ede221944c3c0743e15dd7f_ligand_2.pdbqt
 12 12 0 0 0
SMALL
GASTEIGER

@<TRIPOS>ATOM
      1  C          5.4100    2.9600    0.0960 C.3     1  UNL1        0.1270
      2  C          6.2620    3.8980    0.8640 C.2     1  UNL1        0.3030
      3  O          6.9510    4.7750    0.2840 O.2     1  UNL1       -0.2520
      4  O          6.3240    3.8330    2.2460 O.3     1  UNL1       -0.4810
      5  H          5.6490    4.3650    2.8030 H       1  UNL1        0.2960
      6  C          5.2320    1.7140    0.9090 C.3     1  UNL1        0.0470
      7  C          6.1660    0.6430    0.5680 C.2     1  UNL1       -0.0470
      8  C          6.3330    0.2440   -0.7380 C.2     1  UNL1        0.0040
      9  C          6.8840    0.0340    1.5710 C.2     1  UNL1        0.0040
     10  C          7.2430   -0.7850   -0.9900 C.2     1  UNL1        0.0000
     11  C          7.7830   -0.9840    1.3200 C.2     1  UNL1        0.0000
     12  C          7.9560   -1.3890    0.0150 C.2     1  UNL1        0.0000
@<TRIPOS>BOND
     1    10     8    1
     2    10    12    2
     3     8     7    2
     4    12    11    1
     5     1     2    1
     6     1     6    1
     7     3     2    2
     8     7     6    1
     9     7     9    1
    10     2     4    1
    11    11     9    2
    12     4     5    1
