@<TRIPOS>MOLECULE
/home/cewinharhar/GITHUB/reincatalyze/data/processed/docking_pred/2023-Apr-26-1657_maxeplen10_maxtrainstep1000_exh32_gamma099_lrac9e-4_lrcr1e-3/f5d21a1fca5b46740ede221944c3c0743e15dd7f_ligand_2.pdbqt
 12 12 0 0 0
SMALL
GASTEIGER

@<TRIPOS>ATOM
      1  C          5.0130    1.7910    0.6650 C.3     1  UNL1        0.1270
      2  C          4.5690    1.1210    1.9100 C.2     1  UNL1        0.3030
      3  O          3.4550    1.3820    2.4280 O.2     1  UNL1       -0.2520
      4  O          5.3740    0.1850    2.5380 O.3     1  UNL1       -0.4810
      5  H          5.0620   -0.2350    3.4180 H       1  UNL1        0.2960
      6  C          6.5100    1.8400    0.6650 C.3     1  UNL1        0.0470
      7  C          7.1320    1.0370   -0.3870 C.2     1  UNL1       -0.0470
      8  C          6.3900    0.1340   -1.1130 C.2     1  UNL1        0.0040
      9  C          8.4730    1.1940   -0.6470 C.2     1  UNL1        0.0040
     10  C          7.0490   -0.5990   -2.1020 C.2     1  UNL1        0.0000
     11  C          9.1230    0.4680   -1.6260 C.2     1  UNL1        0.0000
     12  C          8.3880   -0.4390   -2.3570 C.2     1  UNL1        0.0000
@<TRIPOS>BOND
     1    12    10    2
     2    12    11    1
     3    10     8    1
     4    11     9    2
     5     8     7    2
     6     9     7    1
     7     7     6    1
     8     1     6    1
     9     1     2    1
    10     2     3    2
    11     2     4    1
    12     4     5    1
