@<TRIPOS>MOLECULE
/home/cewinharhar/GITHUB/reincatalyze/data/processed/docking_pred/2023-Apr-26-1657_maxeplen10_maxtrainstep1000_exh32_gamma099_lrac9e-4_lrcr1e-3/f5d21a1fca5b46740ede221944c3c0743e15dd7f_ligand_2.pdbqt
 12 12 0 0 0
SMALL
GASTEIGER

@<TRIPOS>ATOM
      1  C          8.6160   -0.5770   -2.3110 C.3     1  UNL1        0.1270
      2  C          8.5610   -1.9050   -2.9670 C.2     1  UNL1        0.3030
      3  O          9.5940   -2.6050   -3.1070 O.2     1  UNL1       -0.2520
      4  O          7.3630   -2.4110   -3.4460 O.3     1  UNL1       -0.4810
      5  H          6.5030   -2.2500   -2.9150 H       1  UNL1        0.2960
      6  C          7.2180   -0.0480   -2.2020 C.3     1  UNL1        0.0470
      7  C          6.8040    0.2620   -0.8350 C.2     1  UNL1       -0.0470
      8  C          7.4200   -0.3370    0.2390 C.2     1  UNL1        0.0040
      9  C          5.7880    1.1670   -0.6300 C.2     1  UNL1        0.0040
     10  C          6.9740    0.0080    1.5170 C.2     1  UNL1        0.0000
     11  C          5.3480    1.5060    0.6340 C.2     1  UNL1        0.0000
     12  C          5.9590    0.9100    1.7160 C.2     1  UNL1        0.0000
@<TRIPOS>BOND
     1     4     2    1
     2     4     5    1
     3     3     2    2
     4     2     1    1
     5     1     6    1
     6     6     7    1
     7     7     9    2
     8     7     8    1
     9     9    11    1
    10     8    10    2
    11    11    12    2
    12    10    12    1
