@<TRIPOS>MOLECULE
/home/cewinharhar/GITHUB/reincatalyze/data/processed/docking_pred/2023-Apr-26-1657_maxeplen10_maxtrainstep1000_exh32_gamma099_lrac9e-4_lrcr1e-3/f5d21a1fca5b46740ede221944c3c0743e15dd7f_ligand_2.pdbqt
 12 12 0 0 0
SMALL
GASTEIGER

@<TRIPOS>ATOM
      1  C          8.5300   -0.5800   -2.2850 C.3     1  UNL1        0.1270
      2  C          8.4550   -1.9100   -2.9350 C.2     1  UNL1        0.3030
      3  O          7.3500   -2.4370   -3.2120 O.2     1  UNL1       -0.2520
      4  O          9.6070   -2.6100   -3.2550 O.3     1  UNL1       -0.4810
      5  H         10.3780   -2.6410   -2.5820 H       1  UNL1        0.2960
      6  C          7.1410   -0.0290   -2.1790 C.3     1  UNL1        0.0470
      7  C          6.7320    0.2920   -0.8130 C.2     1  UNL1       -0.0470
      8  C          5.7410    1.2160   -0.5740 C.2     1  UNL1        0.0040
      9  C          7.3480   -0.3440    0.2400 C.2     1  UNL1        0.0040
     10  C          5.4000    1.4730    0.7560 C.2     1  UNL1        0.0000
     11  C          7.0100   -0.0890    1.5540 C.2     1  UNL1        0.0000
     12  C          6.0190    0.8360    1.8020 C.2     1  UNL1        0.0000
@<TRIPOS>BOND
     1     4     2    1
     2     4     5    1
     3     3     2    2
     4     2     1    1
     5     1     6    1
     6     6     7    1
     7     7     8    2
     8     7     9    1
     9     8    10    1
    10     9    11    2
    11    10    12    2
    12    11    12    1
