MODEL 1
REMARK VINA RESULT:      -7.2      0.000      0.000
REMARK SMILES O=C(O)CCc1ccccc1
REMARK SMILES IDX 4 1 2 2 1 3 3 4 5 6 6 7 7 8 11 9 8 10 10 11 9 12
REMARK H PARENT 3 5
REMARK Flexibility Score: inf
ROOT
ATOM      1  C   UNL     1       8.616  -0.577  -2.311  1.00  0.00     0.127 C 
ENDROOT
BRANCH   1   2
ATOM      2  C   UNL     1       8.561  -1.905  -2.967  1.00  0.00     0.303 C 
ATOM      3  O   UNL     1       9.594  -2.605  -3.107  1.00  0.00    -0.252 OA
BRANCH   2   4
ATOM      4  O   UNL     1       7.363  -2.411  -3.446  1.00  0.00    -0.481 OA
ATOM      5  H   UNL     1       6.503  -2.250  -2.915  1.00  0.00     0.296 HD
ENDBRANCH   2   4
ENDBRANCH   1   2
BRANCH   1   6
ATOM      6  C   UNL     1       7.218  -0.048  -2.202  1.00  0.00     0.047 C 
BRANCH   6   7
ATOM      7  C   UNL     1       6.804   0.262  -0.835  1.00  0.00    -0.047 A 
ATOM      8  C   UNL     1       7.420  -0.337   0.239  1.00  0.00     0.004 A 
ATOM      9  C   UNL     1       5.788   1.167  -0.630  1.00  0.00     0.004 A 
ATOM     10  C   UNL     1       6.974   0.008   1.517  1.00  0.00     0.000 A 
ATOM     11  C   UNL     1       5.348   1.506   0.634  1.00  0.00     0.000 A 
ATOM     12  C   UNL     1       5.959   0.910   1.716  1.00  0.00     0.000 A 
ENDBRANCH   6   7
ENDBRANCH   1   6
TORSDOF 4
ENDMDL
MODEL 2
REMARK VINA RESULT:      -7.1      0.125      1.731
REMARK SMILES O=C(O)CCc1ccccc1
REMARK SMILES IDX 4 1 2 2 1 3 3 4 5 6 6 7 7 8 11 9 8 10 10 11 9 12
REMARK H PARENT 3 5
REMARK Flexibility Score: inf
ROOT
ATOM      1  C   UNL     1       8.530  -0.580  -2.285  1.00  0.00     0.127 C 
ENDROOT
BRANCH   1   2
ATOM      2  C   UNL     1       8.455  -1.910  -2.935  1.00  0.00     0.303 C 
ATOM      3  O   UNL     1       7.350  -2.437  -3.212  1.00  0.00    -0.252 OA
BRANCH   2   4
ATOM      4  O   UNL     1       9.607  -2.610  -3.255  1.00  0.00    -0.481 OA
ATOM      5  H   UNL     1      10.378  -2.641  -2.582  1.00  0.00     0.296 HD
ENDBRANCH   2   4
ENDBRANCH   1   2
BRANCH   1   6
ATOM      6  C   UNL     1       7.141  -0.029  -2.179  1.00  0.00     0.047 C 
BRANCH   6   7
ATOM      7  C   UNL     1       6.732   0.292  -0.813  1.00  0.00    -0.047 A 
ATOM      8  C   UNL     1       5.741   1.216  -0.574  1.00  0.00     0.004 A 
ATOM      9  C   UNL     1       7.348  -0.344   0.240  1.00  0.00     0.004 A 
ATOM     10  C   UNL     1       5.400   1.473   0.756  1.00  0.00     0.000 A 
ATOM     11  C   UNL     1       7.010  -0.089   1.554  1.00  0.00     0.000 A 
ATOM     12  C   UNL     1       6.019   0.836   1.802  1.00  0.00     0.000 A 
ENDBRANCH   6   7
ENDBRANCH   1   6
TORSDOF 4
ENDMDL
MODEL 3
REMARK VINA RESULT:      -6.9      3.323      5.124
REMARK SMILES O=C(O)CCc1ccccc1
REMARK SMILES IDX 4 1 2 2 1 3 3 4 5 6 6 7 7 8 11 9 8 10 10 11 9 12
REMARK H PARENT 3 5
REMARK Flexibility Score: inf
ROOT
ATOM      1  C   UNL     1       5.013   1.791   0.665  1.00  0.00     0.127 C 
ENDROOT
BRANCH   1   2
ATOM      2  C   UNL     1       4.569   1.121   1.910  1.00  0.00     0.303 C 
ATOM      3  O   UNL     1       3.455   1.382   2.428  1.00  0.00    -0.252 OA
BRANCH   2   4
ATOM      4  O   UNL     1       5.374   0.185   2.538  1.00  0.00    -0.481 OA
ATOM      5  H   UNL     1       5.062  -0.235   3.418  1.00  0.00     0.296 HD
ENDBRANCH   2   4
ENDBRANCH   1   2
BRANCH   1   6
ATOM      6  C   UNL     1       6.510   1.840   0.665  1.00  0.00     0.047 C 
BRANCH   6   7
ATOM      7  C   UNL     1       7.132   1.037  -0.387  1.00  0.00    -0.047 A 
ATOM      8  C   UNL     1       6.390   0.134  -1.113  1.00  0.00     0.004 A 
ATOM      9  C   UNL     1       8.473   1.194  -0.647  1.00  0.00     0.004 A 
ATOM     10  C   UNL     1       7.049  -0.599  -2.102  1.00  0.00     0.000 A 
ATOM     11  C   UNL     1       9.123   0.468  -1.626  1.00  0.00     0.000 A 
ATOM     12  C   UNL     1       8.388  -0.439  -2.357  1.00  0.00     0.000 A 
ENDBRANCH   6   7
ENDBRANCH   1   6
TORSDOF 4
ENDMDL
MODEL 4
REMARK VINA RESULT:      -6.6      3.762      5.121
REMARK SMILES O=C(O)CCc1ccccc1
REMARK SMILES IDX 4 1 2 2 1 3 3 4 5 6 6 7 7 8 11 9 8 10 10 11 9 12
REMARK H PARENT 3 5
REMARK Flexibility Score: inf
ROOT
ATOM      1  C   UNL     1       5.410   2.960   0.096  1.00  0.00     0.127 C 
ENDROOT
BRANCH   1   2
ATOM      2  C   UNL     1       6.262   3.898   0.864  1.00  0.00     0.303 C 
ATOM      3  O   UNL     1       6.951   4.775   0.284  1.00  0.00    -0.252 OA
BRANCH   2   4
ATOM      4  O   UNL     1       6.324   3.833   2.246  1.00  0.00    -0.481 OA
ATOM      5  H   UNL     1       5.649   4.365   2.803  1.00  0.00     0.296 HD
ENDBRANCH   2   4
ENDBRANCH   1   2
BRANCH   1   6
ATOM      6  C   UNL     1       5.232   1.714   0.909  1.00  0.00     0.047 C 
BRANCH   6   7
ATOM      7  C   UNL     1       6.166   0.643   0.568  1.00  0.00    -0.047 A 
ATOM      8  C   UNL     1       6.333   0.244  -0.738  1.00  0.00     0.004 A 
ATOM      9  C   UNL     1       6.884   0.034   1.571  1.00  0.00     0.004 A 
ATOM     10  C   UNL     1       7.243  -0.785  -0.990  1.00  0.00     0.000 A 
ATOM     11  C   UNL     1       7.783  -0.984   1.320  1.00  0.00     0.000 A 
ATOM     12  C   UNL     1       7.956  -1.389   0.015  1.00  0.00     0.000 A 
ENDBRANCH   6   7
ENDBRANCH   1   6
TORSDOF 4
ENDMDL
MODEL 5
REMARK VINA RESULT:      -6.5      3.699      5.166
REMARK SMILES O=C(O)CCc1ccccc1
REMARK SMILES IDX 4 1 2 2 1 3 3 4 5 6 6 7 7 8 11 9 8 10 10 11 9 12
REMARK H PARENT 3 5
REMARK Flexibility Score: inf
ROOT
ATOM      1  C   UNL     1       5.462   2.620   0.007  1.00  0.00     0.127 C 
ENDROOT
BRANCH   1   2
ATOM      2  C   UNL     1       6.176   3.629   0.824  1.00  0.00     0.303 C 
ATOM      3  O   UNL     1       6.258   3.517   2.072  1.00  0.00    -0.252 OA
BRANCH   2   4
ATOM      4  O   UNL     1       6.774   4.729   0.229  1.00  0.00    -0.481 OA
ATOM      5  H   UNL     1       7.041   4.682  -0.758  1.00  0.00     0.296 HD
ENDBRANCH   2   4
ENDBRANCH   1   2
BRANCH   1   6
ATOM      6  C   UNL     1       5.919   1.259   0.437  1.00  0.00     0.047 C 
BRANCH   6   7
ATOM      7  C   UNL     1       6.849   0.622  -0.494  1.00  0.00    -0.047 A 
ATOM      8  C   UNL     1       6.484  -0.504  -1.194  1.00  0.00     0.004 A 
ATOM      9  C   UNL     1       8.101   1.165  -0.668  1.00  0.00     0.004 A 
ATOM     10  C   UNL     1       7.423  -1.058  -2.067  1.00  0.00     0.000 A 
ATOM     11  C   UNL     1       9.029   0.616  -1.531  1.00  0.00     0.000 A 
ATOM     12  C   UNL     1       8.671  -0.514  -2.235  1.00  0.00     0.000 A 
ENDBRANCH   6   7
ENDBRANCH   1   6
TORSDOF 4
ENDMDL
