@<TRIPOS>MOLECULE
/home/cewinharhar/GITHUB/reincatalyze/data/processed/docking_pred/2023-Apr-26-1657_maxeplen10_maxtrainstep1000_exh32_gamma099_lrac9e-4_lrcr1e-3/f5fb071253116e33fb6a6057d91faa3d89d34546_ligand_2.pdbqt
 12 12 0 0 0
SMALL
GASTEIGER

@<TRIPOS>ATOM
      1  C          8.0120   -1.2560    2.2830 C.3     1  UNL1        0.1270
      2  C          8.7010   -2.4010    1.6430 C.2     1  UNL1        0.3030
      3  O          9.8930   -2.6830    1.9210 O.2     1  UNL1       -0.2520
      4  O          8.0460   -3.1950    0.7150 O.3     1  UNL1       -0.4810
      5  H          7.1070   -2.9290    0.4030 H       1  UNL1        0.2960
      6  C          6.5670   -1.2960    1.8920 C.3     1  UNL1        0.0470
      7  C          6.1430   -0.1670    1.0660 C.2     1  UNL1       -0.0470
      8  C          6.5230   -0.0780   -0.2530 C.2     1  UNL1        0.0040
      9  C          5.3530    0.8120    1.6220 C.2     1  UNL1        0.0040
     10  C          6.0800    1.0270   -0.9830 C.2     1  UNL1        0.0000
     11  C          4.9160    1.9050    0.8990 C.2     1  UNL1        0.0000
     12  C          5.2930    2.0020   -0.4220 C.2     1  UNL1        0.0000
@<TRIPOS>BOND
     1    10    12    2
     2    10     8    1
     3    12    11    1
     4     8     7    2
     5     5     4    1
     6     4     2    1
     7    11     9    2
     8     7     9    1
     9     7     6    1
    10     2     3    2
    11     2     1    1
    12     6     1    1
