@<TRIPOS>MOLECULE
/home/cewinharhar/GITHUB/reincatalyze/data/processed/docking_pred/2023-Apr-26-1657_maxeplen10_maxtrainstep1000_exh32_gamma099_lrac9e-4_lrcr1e-3/f5fb071253116e33fb6a6057d91faa3d89d34546_ligand_2.pdbqt
 12 12 0 0 0
SMALL
GASTEIGER

@<TRIPOS>ATOM
      1  C          7.8910   -1.4230    2.3260 C.3     1  UNL1        0.1270
      2  C          8.7650   -2.3760    1.6020 C.2     1  UNL1        0.3030
      3  O          9.9710   -2.5210    1.9180 O.2     1  UNL1       -0.2520
      4  O          8.2720   -3.1340    0.5530 O.3     1  UNL1       -0.4810
      5  H          8.4460   -2.8310   -0.4090 H       1  UNL1        0.2960
      6  C          6.5150   -1.5060    1.7390 C.3     1  UNL1        0.0470
      7  C          6.1050   -0.3070    1.0110 C.2     1  UNL1       -0.0470
      8  C          5.3460    0.6630    1.6240 C.2     1  UNL1        0.0040
      9  C          6.4900   -0.1530   -0.3000 C.2     1  UNL1        0.0040
     10  C          4.9920    1.7830    0.8690 C.2     1  UNL1        0.0000
     11  C          6.1390    0.9550   -1.0460 C.2     1  UNL1        0.0000
     12  C          5.3770    1.9310   -0.4390 C.2     1  UNL1        0.0000
@<TRIPOS>BOND
     1    11    12    2
     2    11     9    1
     3    12    10    1
     4     5     4    1
     5     9     7    2
     6     4     2    1
     7    10     8    2
     8     7     8    1
     9     7     6    1
    10     2     3    2
    11     2     1    1
    12     6     1    1
