@<TRIPOS>MOLECULE
/home/cewinharhar/GITHUB/reincatalyze/data/processed/docking_pred/2023-Apr-26-1657_maxeplen10_maxtrainstep1000_exh32_gamma099_lrac9e-4_lrcr1e-3/f5fb071253116e33fb6a6057d91faa3d89d34546_ligand_2.pdbqt
 12 12 0 0 0
SMALL
GASTEIGER

@<TRIPOS>ATOM
      1  C          5.0740    1.7230    0.7220 C.3     1  UNL1        0.1270
      2  C          4.5760    1.0300    1.9340 C.2     1  UNL1        0.3030
      3  O          5.2570    0.1400    2.5000 O.2     1  UNL1       -0.2520
      4  O          3.3410    1.3480    2.4770 O.3     1  UNL1       -0.4810
      5  H          3.1460    1.1080    3.4530 H       1  UNL1        0.2960
      6  C          6.5710    1.7190    0.7590 C.3     1  UNL1        0.0470
      7  C          7.1920    0.9820   -0.3410 C.2     1  UNL1       -0.0470
      8  C          8.4980    1.2200   -0.6980 C.2     1  UNL1        0.0040
      9  C          6.4520    0.0400   -1.0190 C.2     1  UNL1        0.0040
     10  C          9.0260    0.4780   -1.7580 C.2     1  UNL1        0.0000
     11  C          6.9750   -0.6920   -2.0660 C.2     1  UNL1        0.0000
     12  C          8.2840   -0.4590   -2.4310 C.2     1  UNL1        0.0000
@<TRIPOS>BOND
     1    12    11    2
     2    12    10    1
     3    11     9    1
     4    10     8    2
     5     9     7    2
     6     8     7    1
     7     7     6    1
     8     1     6    1
     9     1     2    1
    10     2     4    1
    11     2     3    2
    12     4     5    1
