@<TRIPOS>MOLECULE
/home/cewinharhar/GITHUB/reincatalyze/data/processed/docking_pred/2023-Apr-26-1657_maxeplen10_maxtrainstep1000_exh32_gamma099_lrac9e-4_lrcr1e-3/f5fb071253116e33fb6a6057d91faa3d89d34546_ligand_2.pdbqt
 12 12 0 0 0
SMALL
GASTEIGER

@<TRIPOS>ATOM
      1  C          8.4690   -0.6430   -2.1660 C.3     1  UNL1        0.1270
      2  C          8.4690   -1.9280   -2.9050 C.2     1  UNL1        0.3030
      3  O          9.4840   -2.6660   -2.9260 O.2     1  UNL1       -0.2520
      4  O          7.3440   -2.3500   -3.5950 O.3     1  UNL1       -0.4810
      5  H          6.4220   -2.0090   -3.3070 H       1  UNL1        0.2960
      6  C          7.0800   -0.0810   -2.1990 C.3     1  UNL1        0.0470
      7  C          6.4970    0.1420   -0.8770 C.2     1  UNL1       -0.0470
      8  C          6.5450   -0.8390    0.0870 C.2     1  UNL1        0.0040
      9  C          5.8980    1.3490   -0.6020 C.2     1  UNL1        0.0040
     10  C          5.9690   -0.5560    1.3280 C.2     1  UNL1        0.0000
     11  C          5.3290    1.6270    0.6250 C.2     1  UNL1        0.0000
     12  C          5.3720    0.6500    1.5960 C.2     1  UNL1        0.0000
@<TRIPOS>BOND
     1     4     5    1
     2     4     2    1
     3     3     2    2
     4     2     1    1
     5     6     1    1
     6     6     7    1
     7     7     9    2
     8     7     8    1
     9     9    11    1
    10     8    10    2
    11    11    12    2
    12    10    12    1
