MODEL 1
REMARK VINA RESULT:      -7.0      0.000      0.000
REMARK SMILES O=C(O)CCc1ccccc1
REMARK SMILES IDX 4 1 2 2 1 3 3 4 5 6 6 7 7 8 11 9 8 10 10 11 9 12
REMARK H PARENT 3 5
REMARK Flexibility Score: inf
ROOT
ATOM      1  C   UNL     1       8.423  -0.618  -2.129  1.00  0.00     0.127 C 
ENDROOT
BRANCH   1   2
ATOM      2  C   UNL     1       8.381  -1.889  -2.889  1.00  0.00     0.303 C 
ATOM      3  O   UNL     1       7.289  -2.409  -3.228  1.00  0.00    -0.252 OA
BRANCH   2   4
ATOM      4  O   UNL     1       9.550  -2.542  -3.246  1.00  0.00    -0.481 OA
ATOM      5  H   UNL     1      10.406  -1.997  -3.384  1.00  0.00     0.296 HD
ENDBRANCH   2   4
ENDBRANCH   1   2
BRANCH   1   6
ATOM      6  C   UNL     1       7.050  -0.018  -2.138  1.00  0.00     0.047 C 
BRANCH   6   7
ATOM      7  C   UNL     1       6.469   0.159  -0.809  1.00  0.00    -0.047 A 
ATOM      8  C   UNL     1       5.799   1.315  -0.482  1.00  0.00     0.004 A 
ATOM      9  C   UNL     1       6.598  -0.848   0.120  1.00  0.00     0.004 A 
ATOM     10  C   UNL     1       5.269   1.415   0.806  1.00  0.00     0.000 A 
ATOM     11  C   UNL     1       6.073  -0.747   1.393  1.00  0.00     0.000 A 
ATOM     12  C   UNL     1       5.401   0.408   1.728  1.00  0.00     0.000 A 
ENDBRANCH   6   7
ENDBRANCH   1   6
TORSDOF 4
ENDMDL
MODEL 2
REMARK VINA RESULT:      -7.0      0.219      1.729
REMARK SMILES O=C(O)CCc1ccccc1
REMARK SMILES IDX 4 1 2 2 1 3 3 4 5 6 6 7 7 8 11 9 8 10 10 11 9 12
REMARK H PARENT 3 5
REMARK Flexibility Score: inf
ROOT
ATOM      1  C   UNL     1       8.469  -0.643  -2.166  1.00  0.00     0.127 C 
ENDROOT
BRANCH   1   2
ATOM      2  C   UNL     1       8.469  -1.928  -2.905  1.00  0.00     0.303 C 
ATOM      3  O   UNL     1       9.484  -2.666  -2.926  1.00  0.00    -0.252 OA
BRANCH   2   4
ATOM      4  O   UNL     1       7.344  -2.350  -3.595  1.00  0.00    -0.481 OA
ATOM      5  H   UNL     1       6.422  -2.009  -3.307  1.00  0.00     0.296 HD
ENDBRANCH   2   4
ENDBRANCH   1   2
BRANCH   1   6
ATOM      6  C   UNL     1       7.080  -0.081  -2.199  1.00  0.00     0.047 C 
BRANCH   6   7
ATOM      7  C   UNL     1       6.497   0.142  -0.877  1.00  0.00    -0.047 A 
ATOM      8  C   UNL     1       6.545  -0.839   0.087  1.00  0.00     0.004 A 
ATOM      9  C   UNL     1       5.898   1.349  -0.602  1.00  0.00     0.004 A 
ATOM     10  C   UNL     1       5.969  -0.556   1.328  1.00  0.00     0.000 A 
ATOM     11  C   UNL     1       5.329   1.627   0.625  1.00  0.00     0.000 A 
ATOM     12  C   UNL     1       5.372   0.650   1.596  1.00  0.00     0.000 A 
ENDBRANCH   6   7
ENDBRANCH   1   6
TORSDOF 4
ENDMDL
MODEL 3
REMARK VINA RESULT:      -6.5      3.272      5.083
REMARK SMILES O=C(O)CCc1ccccc1
REMARK SMILES IDX 4 1 2 2 1 3 3 4 5 6 6 7 7 8 11 9 8 10 10 11 9 12
REMARK H PARENT 3 5
REMARK Flexibility Score: inf
ROOT
ATOM      1  C   UNL     1       5.074   1.723   0.722  1.00  0.00     0.127 C 
ENDROOT
BRANCH   1   2
ATOM      2  C   UNL     1       4.576   1.030   1.934  1.00  0.00     0.303 C 
ATOM      3  O   UNL     1       5.257   0.140   2.500  1.00  0.00    -0.252 OA
BRANCH   2   4
ATOM      4  O   UNL     1       3.341   1.348   2.477  1.00  0.00    -0.481 OA
ATOM      5  H   UNL     1       3.146   1.108   3.453  1.00  0.00     0.296 HD
ENDBRANCH   2   4
ENDBRANCH   1   2
BRANCH   1   6
ATOM      6  C   UNL     1       6.571   1.719   0.759  1.00  0.00     0.047 C 
BRANCH   6   7
ATOM      7  C   UNL     1       7.192   0.982  -0.341  1.00  0.00    -0.047 A 
ATOM      8  C   UNL     1       8.498   1.220  -0.698  1.00  0.00     0.004 A 
ATOM      9  C   UNL     1       6.452   0.040  -1.019  1.00  0.00     0.004 A 
ATOM     10  C   UNL     1       9.026   0.478  -1.758  1.00  0.00     0.000 A 
ATOM     11  C   UNL     1       6.975  -0.692  -2.066  1.00  0.00     0.000 A 
ATOM     12  C   UNL     1       8.284  -0.459  -2.431  1.00  0.00     0.000 A 
ENDBRANCH   6   7
ENDBRANCH   1   6
TORSDOF 4
ENDMDL
MODEL 4
REMARK VINA RESULT:      -6.5      2.376      3.611
REMARK SMILES O=C(O)CCc1ccccc1
REMARK SMILES IDX 4 1 2 2 1 3 3 4 5 6 6 7 7 8 11 9 8 10 10 11 9 12
REMARK H PARENT 3 5
REMARK Flexibility Score: inf
ROOT
ATOM      1  C   UNL     1       8.012  -1.256   2.283  1.00  0.00     0.127 C 
ENDROOT
BRANCH   1   2
ATOM      2  C   UNL     1       8.701  -2.401   1.643  1.00  0.00     0.303 C 
ATOM      3  O   UNL     1       9.893  -2.683   1.921  1.00  0.00    -0.252 OA
BRANCH   2   4
ATOM      4  O   UNL     1       8.046  -3.195   0.715  1.00  0.00    -0.481 OA
ATOM      5  H   UNL     1       7.107  -2.929   0.403  1.00  0.00     0.296 HD
ENDBRANCH   2   4
ENDBRANCH   1   2
BRANCH   1   6
ATOM      6  C   UNL     1       6.567  -1.296   1.892  1.00  0.00     0.047 C 
BRANCH   6   7
ATOM      7  C   UNL     1       6.143  -0.167   1.066  1.00  0.00    -0.047 A 
ATOM      8  C   UNL     1       6.523  -0.078  -0.253  1.00  0.00     0.004 A 
ATOM      9  C   UNL     1       5.353   0.812   1.622  1.00  0.00     0.004 A 
ATOM     10  C   UNL     1       6.080   1.027  -0.983  1.00  0.00     0.000 A 
ATOM     11  C   UNL     1       4.916   1.905   0.899  1.00  0.00     0.000 A 
ATOM     12  C   UNL     1       5.293   2.002  -0.422  1.00  0.00     0.000 A 
ENDBRANCH   6   7
ENDBRANCH   1   6
TORSDOF 4
ENDMDL
MODEL 5
REMARK VINA RESULT:      -6.4      2.326      3.496
REMARK SMILES O=C(O)CCc1ccccc1
REMARK SMILES IDX 4 1 2 2 1 3 3 4 5 6 6 7 7 8 11 9 8 10 10 11 9 12
REMARK H PARENT 3 5
REMARK Flexibility Score: inf
ROOT
ATOM      1  C   UNL     1       7.891  -1.423   2.326  1.00  0.00     0.127 C 
ENDROOT
BRANCH   1   2
ATOM      2  C   UNL     1       8.765  -2.376   1.602  1.00  0.00     0.303 C 
ATOM      3  O   UNL     1       9.971  -2.521   1.918  1.00  0.00    -0.252 OA
BRANCH   2   4
ATOM      4  O   UNL     1       8.272  -3.134   0.553  1.00  0.00    -0.481 OA
ATOM      5  H   UNL     1       8.446  -2.831  -0.409  1.00  0.00     0.296 HD
ENDBRANCH   2   4
ENDBRANCH   1   2
BRANCH   1   6
ATOM      6  C   UNL     1       6.515  -1.506   1.739  1.00  0.00     0.047 C 
BRANCH   6   7
ATOM      7  C   UNL     1       6.105  -0.307   1.011  1.00  0.00    -0.047 A 
ATOM      8  C   UNL     1       5.346   0.663   1.624  1.00  0.00     0.004 A 
ATOM      9  C   UNL     1       6.490  -0.153  -0.300  1.00  0.00     0.004 A 
ATOM     10  C   UNL     1       4.992   1.783   0.869  1.00  0.00     0.000 A 
ATOM     11  C   UNL     1       6.139   0.955  -1.046  1.00  0.00     0.000 A 
ATOM     12  C   UNL     1       5.377   1.931  -0.439  1.00  0.00     0.000 A 
ENDBRANCH   6   7
ENDBRANCH   1   6
TORSDOF 4
ENDMDL
