MODEL 1
REMARK VINA RESULT:      -7.3      0.000      0.000
REMARK SMILES O=C(O)CCc1ccccc1
REMARK SMILES IDX 4 1 2 2 1 3 3 4 5 6 6 7 7 8 11 9 8 10 10 11 9 12
REMARK H PARENT 3 5
REMARK Flexibility Score: inf
ROOT
ATOM      1  C   UNL     1       8.419  -0.628  -2.161  1.00  0.00     0.127 C 
ENDROOT
BRANCH   1   2
ATOM      2  C   UNL     1       8.463  -1.903  -2.914  1.00  0.00     0.303 C 
ATOM      3  O   UNL     1       9.546  -2.513  -3.098  1.00  0.00    -0.252 OA
BRANCH   2   4
ATOM      4  O   UNL     1       7.307  -2.458  -3.438  1.00  0.00    -0.481 OA
ATOM      5  H   UNL     1       6.689  -2.999  -2.826  1.00  0.00     0.296 HD
ENDBRANCH   2   4
ENDBRANCH   1   2
BRANCH   1   6
ATOM      6  C   UNL     1       7.000  -0.148  -2.130  1.00  0.00     0.047 C 
BRANCH   6   7
ATOM      7  C   UNL     1       6.463   0.033  -0.783  1.00  0.00    -0.047 A 
ATOM      8  C   UNL     1       6.596  -0.955   0.165  1.00  0.00     0.004 A 
ATOM      9  C   UNL     1       5.819   1.207  -0.469  1.00  0.00     0.004 A 
ATOM     10  C   UNL     1       6.059  -0.714   1.432  1.00  0.00     0.000 A 
ATOM     11  C   UNL     1       5.288   1.444   0.784  1.00  0.00     0.000 A 
ATOM     12  C   UNL     1       5.417   0.459   1.740  1.00  0.00     0.000 A 
ENDBRANCH   6   7
ENDBRANCH   1   6
TORSDOF 4
ENDMDL
MODEL 2
REMARK VINA RESULT:      -7.3      0.087      1.438
REMARK SMILES O=C(O)CCc1ccccc1
REMARK SMILES IDX 4 1 2 2 1 3 3 4 5 6 6 7 7 8 11 9 8 10 10 11 9 12
REMARK H PARENT 3 5
REMARK Flexibility Score: inf
ROOT
ATOM      1  C   UNL     1       8.424  -0.589  -2.188  1.00  0.00     0.127 C 
ENDROOT
BRANCH   1   2
ATOM      2  C   UNL     1       8.475  -1.883  -2.908  1.00  0.00     0.303 C 
ATOM      3  O   UNL     1       9.562  -2.485  -3.088  1.00  0.00    -0.252 OA
BRANCH   2   4
ATOM      4  O   UNL     1       7.320  -2.466  -3.404  1.00  0.00    -0.481 OA
ATOM      5  H   UNL     1       7.016  -2.245  -4.356  1.00  0.00     0.296 HD
ENDBRANCH   2   4
ENDBRANCH   1   2
BRANCH   1   6
ATOM      6  C   UNL     1       6.999  -0.127  -2.150  1.00  0.00     0.047 C 
BRANCH   6   7
ATOM      7  C   UNL     1       6.470   0.058  -0.800  1.00  0.00    -0.047 A 
ATOM      8  C   UNL     1       5.844   1.231  -0.446  1.00  0.00     0.004 A 
ATOM      9  C   UNL     1       6.602  -0.957   0.118  1.00  0.00     0.004 A 
ATOM     10  C   UNL     1       5.362   1.339   0.861  1.00  0.00     0.000 A 
ATOM     11  C   UNL     1       6.125  -0.849   1.409  1.00  0.00     0.000 A 
ATOM     12  C   UNL     1       5.498   0.323   1.773  1.00  0.00     0.000 A 
ENDBRANCH   6   7
ENDBRANCH   1   6
TORSDOF 4
ENDMDL
MODEL 3
REMARK VINA RESULT:      -7.2      0.643      1.074
REMARK SMILES O=C(O)CCc1ccccc1
REMARK SMILES IDX 4 1 2 2 1 3 3 4 5 6 6 7 7 8 11 9 8 10 10 11 9 12
REMARK H PARENT 3 5
REMARK Flexibility Score: inf
ROOT
ATOM      1  C   UNL     1       8.246  -0.973  -1.784  1.00  0.00     0.127 C 
ENDROOT
BRANCH   1   2
ATOM      2  C   UNL     1       8.385  -2.028  -2.815  1.00  0.00     0.303 C 
ATOM      3  O   UNL     1       9.509  -2.501  -3.115  1.00  0.00    -0.252 OA
BRANCH   2   4
ATOM      4  O   UNL     1       7.274  -2.522  -3.480  1.00  0.00    -0.481 OA
ATOM      5  H   UNL     1       6.721  -3.266  -3.046  1.00  0.00     0.296 HD
ENDBRANCH   2   4
ENDBRANCH   1   2
BRANCH   1   6
ATOM      6  C   UNL     1       7.254  -1.441  -0.763  1.00  0.00     0.047 C 
BRANCH   6   7
ATOM      7  C   UNL     1       6.487  -0.362  -0.142  1.00  0.00    -0.047 A 
ATOM      8  C   UNL     1       6.062  -0.462   1.162  1.00  0.00     0.004 A 
ATOM      9  C   UNL     1       6.193   0.762  -0.878  1.00  0.00     0.004 A 
ATOM     10  C   UNL     1       5.334   0.607   1.690  1.00  0.00     0.000 A 
ATOM     11  C   UNL     1       5.474   1.818  -0.354  1.00  0.00     0.000 A 
ATOM     12  C   UNL     1       5.044   1.726   0.952  1.00  0.00     0.000 A 
ENDBRANCH   6   7
ENDBRANCH   1   6
TORSDOF 4
ENDMDL
MODEL 4
REMARK VINA RESULT:      -6.8      3.383      5.074
REMARK SMILES O=C(O)CCc1ccccc1
REMARK SMILES IDX 4 1 2 2 1 3 3 4 5 6 6 7 7 8 11 9 8 10 10 11 9 12
REMARK H PARENT 3 5
REMARK Flexibility Score: inf
ROOT
ATOM      1  C   UNL     1       4.994   1.810   0.694  1.00  0.00     0.127 C 
ENDROOT
BRANCH   1   2
ATOM      2  C   UNL     1       4.490   1.126   1.909  1.00  0.00     0.303 C 
ATOM      3  O   UNL     1       5.157   0.223   2.471  1.00  0.00    -0.252 OA
BRANCH   2   4
ATOM      4  O   UNL     1       3.264   1.466   2.458  1.00  0.00    -0.481 OA
ATOM      5  H   UNL     1       3.136   1.406   3.472  1.00  0.00     0.296 HD
ENDBRANCH   2   4
ENDBRANCH   1   2
BRANCH   1   6
ATOM      6  C   UNL     1       6.492   1.799   0.736  1.00  0.00     0.047 C 
BRANCH   6   7
ATOM      7  C   UNL     1       7.111   1.040  -0.349  1.00  0.00    -0.047 A 
ATOM      8  C   UNL     1       6.369   0.167  -1.110  1.00  0.00     0.004 A 
ATOM      9  C   UNL     1       8.452   1.209  -0.607  1.00  0.00     0.004 A 
ATOM     10  C   UNL     1       7.026  -0.524  -2.131  1.00  0.00     0.000 A 
ATOM     11  C   UNL     1       9.100   0.525  -1.616  1.00  0.00     0.000 A 
ATOM     12  C   UNL     1       8.363  -0.352  -2.382  1.00  0.00     0.000 A 
ENDBRANCH   6   7
ENDBRANCH   1   6
TORSDOF 4
ENDMDL
MODEL 5
REMARK VINA RESULT:      -6.7      3.833      4.914
REMARK SMILES O=C(O)CCc1ccccc1
REMARK SMILES IDX 4 1 2 2 1 3 3 4 5 6 6 7 7 8 11 9 8 10 10 11 9 12
REMARK H PARENT 3 5
REMARK Flexibility Score: inf
ROOT
ATOM      1  C   UNL     1       5.614   2.811  -0.073  1.00  0.00     0.127 C 
ENDROOT
BRANCH   1   2
ATOM      2  C   UNL     1       6.282   3.839   0.760  1.00  0.00     0.303 C 
ATOM      3  O   UNL     1       6.936   4.775   0.238  1.00  0.00    -0.252 OA
BRANCH   2   4
ATOM      4  O   UNL     1       6.203   3.794   2.142  1.00  0.00    -0.481 OA
ATOM      5  H   UNL     1       6.909   4.281   2.701  1.00  0.00     0.296 HD
ENDBRANCH   2   4
ENDBRANCH   1   2
BRANCH   1   6
ATOM      6  C   UNL     1       4.992   1.797   0.838  1.00  0.00     0.047 C 
BRANCH   6   7
ATOM      7  C   UNL     1       5.746   0.549   0.943  1.00  0.00    -0.047 A 
ATOM      8  C   UNL     1       5.774  -0.159   2.121  1.00  0.00     0.004 A 
ATOM      9  C   UNL     1       6.431   0.085  -0.157  1.00  0.00     0.004 A 
ATOM     10  C   UNL     1       6.514  -1.344   2.148  1.00  0.00     0.000 A 
ATOM     11  C   UNL     1       7.162  -1.086  -0.128  1.00  0.00     0.000 A 
ATOM     12  C   UNL     1       7.196  -1.801   1.049  1.00  0.00     0.000 A 
ENDBRANCH   6   7
ENDBRANCH   1   6
TORSDOF 4
ENDMDL
