@<TRIPOS>MOLECULE
/home/cewinharhar/GITHUB/reincatalyze/data/processed/docking_pred/2023-Apr-26-1657_maxeplen10_maxtrainstep1000_exh32_gamma099_lrac9e-4_lrcr1e-3/f6e3ea477952fa895fac814ddb6280364cb1460b_ligand_2.pdbqt
 12 12 0 0 0
SMALL
GASTEIGER

@<TRIPOS>ATOM
      1  C          4.9940    1.8100    0.6940 C.3     1  UNL1        0.1270
      2  C          4.4900    1.1260    1.9090 C.2     1  UNL1        0.3030
      3  O          5.1570    0.2230    2.4710 O.2     1  UNL1       -0.2520
      4  O          3.2640    1.4660    2.4580 O.3     1  UNL1       -0.4810
      5  H          3.1360    1.4060    3.4720 H       1  UNL1        0.2960
      6  C          6.4920    1.7990    0.7360 C.3     1  UNL1        0.0470
      7  C          7.1110    1.0400   -0.3490 C.2     1  UNL1       -0.0470
      8  C          6.3690    0.1670   -1.1100 C.2     1  UNL1        0.0040
      9  C          8.4520    1.2090   -0.6070 C.2     1  UNL1        0.0040
     10  C          7.0260   -0.5240   -2.1310 C.2     1  UNL1        0.0000
     11  C          9.1000    0.5250   -1.6160 C.2     1  UNL1        0.0000
     12  C          8.3630   -0.3520   -2.3820 C.2     1  UNL1        0.0000
@<TRIPOS>BOND
     1    12    10    2
     2    12    11    1
     3    10     8    1
     4    11     9    2
     5     8     7    2
     6     9     7    1
     7     7     6    1
     8     1     6    1
     9     1     2    1
    10     2     4    1
    11     2     3    2
    12     4     5    1
