@<TRIPOS>MOLECULE
/home/cewinharhar/GITHUB/reincatalyze/data/processed/docking_pred/2023-Apr-26-1657_maxeplen10_maxtrainstep1000_exh32_gamma099_lrac9e-4_lrcr1e-3/f6e3ea477952fa895fac814ddb6280364cb1460b_ligand_2.pdbqt
 12 12 0 0 0
SMALL
GASTEIGER

@<TRIPOS>ATOM
      1  C          8.4190   -0.6280   -2.1610 C.3     1  UNL1        0.1270
      2  C          8.4630   -1.9030   -2.9140 C.2     1  UNL1        0.3030
      3  O          9.5460   -2.5130   -3.0980 O.2     1  UNL1       -0.2520
      4  O          7.3070   -2.4580   -3.4380 O.3     1  UNL1       -0.4810
      5  H          6.6890   -2.9990   -2.8260 H       1  UNL1        0.2960
      6  C          7.0000   -0.1480   -2.1300 C.3     1  UNL1        0.0470
      7  C          6.4630    0.0330   -0.7830 C.2     1  UNL1       -0.0470
      8  C          6.5960   -0.9550    0.1650 C.2     1  UNL1        0.0040
      9  C          5.8190    1.2070   -0.4690 C.2     1  UNL1        0.0040
     10  C          6.0590   -0.7140    1.4320 C.2     1  UNL1        0.0000
     11  C          5.2880    1.4440    0.7840 C.2     1  UNL1        0.0000
     12  C          5.4170    0.4590    1.7400 C.2     1  UNL1        0.0000
@<TRIPOS>BOND
     1     4     2    1
     2     4     5    1
     3     3     2    2
     4     2     1    1
     5     1     6    1
     6     6     7    1
     7     7     9    2
     8     7     8    1
     9     9    11    1
    10     8    10    2
    11    11    12    2
    12    10    12    1
