@<TRIPOS>MOLECULE
/home/cewinharhar/GITHUB/reincatalyze/data/processed/docking_pred/2023-Apr-26-1657_maxeplen10_maxtrainstep1000_exh32_gamma099_lrac9e-4_lrcr1e-3/f6e3ea477952fa895fac814ddb6280364cb1460b_ligand_2.pdbqt
 12 12 0 0 0
SMALL
GASTEIGER

@<TRIPOS>ATOM
      1  C          8.4240   -0.5890   -2.1880 C.3     1  UNL1        0.1270
      2  C          8.4750   -1.8830   -2.9080 C.2     1  UNL1        0.3030
      3  O          9.5620   -2.4850   -3.0880 O.2     1  UNL1       -0.2520
      4  O          7.3200   -2.4660   -3.4040 O.3     1  UNL1       -0.4810
      5  H          7.0160   -2.2450   -4.3560 H       1  UNL1        0.2960
      6  C          6.9990   -0.1270   -2.1500 C.3     1  UNL1        0.0470
      7  C          6.4700    0.0580   -0.8000 C.2     1  UNL1       -0.0470
      8  C          5.8440    1.2310   -0.4460 C.2     1  UNL1        0.0040
      9  C          6.6020   -0.9570    0.1180 C.2     1  UNL1        0.0040
     10  C          5.3620    1.3390    0.8610 C.2     1  UNL1        0.0000
     11  C          6.1250   -0.8490    1.4090 C.2     1  UNL1        0.0000
     12  C          5.4980    0.3230    1.7730 C.2     1  UNL1        0.0000
@<TRIPOS>BOND
     1     5     4    1
     2     4     2    1
     3     3     2    2
     4     2     1    1
     5     1     6    1
     6     6     7    1
     7     7     8    2
     8     7     9    1
     9     8    10    1
    10     9    11    2
    11    10    12    2
    12    11    12    1
