@<TRIPOS>MOLECULE
/home/cewinharhar/GITHUB/reincatalyze/data/processed/docking_pred/2023-Apr-26-1657_maxeplen10_maxtrainstep1000_exh32_gamma099_lrac9e-4_lrcr1e-3/f6e3ea477952fa895fac814ddb6280364cb1460b_ligand_2.pdbqt
 12 12 0 0 0
SMALL
GASTEIGER

@<TRIPOS>ATOM
      1  C          5.6140    2.8110   -0.0730 C.3     1  UNL1        0.1270
      2  C          6.2820    3.8390    0.7600 C.2     1  UNL1        0.3030
      3  O          6.9360    4.7750    0.2380 O.2     1  UNL1       -0.2520
      4  O          6.2030    3.7940    2.1420 O.3     1  UNL1       -0.4810
      5  H          6.9090    4.2810    2.7010 H       1  UNL1        0.2960
      6  C          4.9920    1.7970    0.8380 C.3     1  UNL1        0.0470
      7  C          5.7460    0.5490    0.9430 C.2     1  UNL1       -0.0470
      8  C          5.7740   -0.1590    2.1210 C.2     1  UNL1        0.0040
      9  C          6.4310    0.0850   -0.1570 C.2     1  UNL1        0.0040
     10  C          6.5140   -1.3440    2.1480 C.2     1  UNL1        0.0000
     11  C          7.1620   -1.0860   -0.1280 C.2     1  UNL1        0.0000
     12  C          7.1960   -1.8010    1.0490 C.2     1  UNL1        0.0000
@<TRIPOS>BOND
     1     9    11    1
     2     9     7    2
     3    11    12    2
     4     1     2    1
     5     1     6    1
     6     3     2    2
     7     2     4    1
     8     6     7    1
     9     7     8    1
    10    12    10    1
    11     8    10    2
    12     4     5    1
