@<TRIPOS>MOLECULE
/home/cewinharhar/GITHUB/reincatalyze/data/processed/docking_pred/2023-Apr-26-1657_maxeplen10_maxtrainstep1000_exh32_gamma099_lrac9e-4_lrcr1e-3/f6e3ea477952fa895fac814ddb6280364cb1460b_ligand_2.pdbqt
 12 12 0 0 0
SMALL
GASTEIGER

@<TRIPOS>ATOM
      1  C          8.2460   -0.9730   -1.7840 C.3     1  UNL1        0.1270
      2  C          8.3850   -2.0280   -2.8150 C.2     1  UNL1        0.3030
      3  O          9.5090   -2.5010   -3.1150 O.2     1  UNL1       -0.2520
      4  O          7.2740   -2.5220   -3.4800 O.3     1  UNL1       -0.4810
      5  H          6.7210   -3.2660   -3.0460 H       1  UNL1        0.2960
      6  C          7.2540   -1.4410   -0.7630 C.3     1  UNL1        0.0470
      7  C          6.4870   -0.3620   -0.1420 C.2     1  UNL1       -0.0470
      8  C          6.0620   -0.4620    1.1620 C.2     1  UNL1        0.0040
      9  C          6.1930    0.7620   -0.8780 C.2     1  UNL1        0.0040
     10  C          5.3340    0.6070    1.6900 C.2     1  UNL1        0.0000
     11  C          5.4740    1.8180   -0.3540 C.2     1  UNL1        0.0000
     12  C          5.0440    1.7260    0.9520 C.2     1  UNL1        0.0000
@<TRIPOS>BOND
     1     4     5    1
     2     4     2    1
     3     3     2    2
     4     2     1    1
     5     1     6    1
     6     9    11    1
     7     9     7    2
     8     6     7    1
     9    11    12    2
    10     7     8    1
    11    12    10    1
    12     8    10    2
