@<TRIPOS>MOLECULE
/home/cewinharhar/GITHUB/reincatalyze/data/processed/docking_pred/2023-Apr-26-1657_maxeplen10_maxtrainstep1000_exh32_gamma099_lrac9e-4_lrcr1e-3/f74925e0f2dbd9eb14447f51d5c862455f02ecd6_ligand_2.pdbqt
 12 12 0 0 0
SMALL
GASTEIGER

@<TRIPOS>ATOM
      1  C          5.0430    1.7060    0.7080 C.3     1  UNL1        0.1270
      2  C          4.5830    1.0210    1.9390 C.2     1  UNL1        0.3030
      3  O          5.2960    0.1570    2.5070 O.2     1  UNL1       -0.2520
      4  O          3.3500    1.3160    2.4970 O.3     1  UNL1       -0.4810
      5  H          2.7550    2.0210    2.0540 H       1  UNL1        0.2960
      6  C          6.5400    1.7630    0.7320 C.3     1  UNL1        0.0470
      7  C          7.1810    1.0270   -0.3570 C.2     1  UNL1       -0.0470
      8  C          8.5140    1.2100   -0.6390 C.2     1  UNL1        0.0040
      9  C          6.4330    0.1430   -1.1000 C.2     1  UNL1        0.0040
     10  C          9.0600    0.4720   -1.6930 C.2     1  UNL1        0.0000
     11  C          6.9750   -0.5840   -2.1410 C.2     1  UNL1        0.0000
     12  C          8.3100   -0.4070   -2.4310 C.2     1  UNL1        0.0000
@<TRIPOS>BOND
     1    12    11    2
     2    12    10    1
     3    11     9    1
     4    10     8    2
     5     9     7    2
     6     8     7    1
     7     7     6    1
     8     1     6    1
     9     1     2    1
    10     2     4    1
    11     2     3    2
    12     5     4    1
