@<TRIPOS>MOLECULE
/home/cewinharhar/GITHUB/reincatalyze/data/processed/docking_pred/2023-Apr-26-1657_maxeplen10_maxtrainstep1000_exh32_gamma099_lrac9e-4_lrcr1e-3/f74925e0f2dbd9eb14447f51d5c862455f02ecd6_ligand_2.pdbqt
 12 12 0 0 0
SMALL
GASTEIGER

@<TRIPOS>ATOM
      1  C          8.4380   -0.5960   -2.1880 C.3     1  UNL1        0.1270
      2  C          8.4750   -1.8870   -2.9160 C.2     1  UNL1        0.3030
      3  O          9.5560   -2.4980   -3.1020 O.2     1  UNL1       -0.2520
      4  O          7.3130   -2.4560   -3.4110 O.3     1  UNL1       -0.4810
      5  H          6.6550   -1.8740   -3.9370 H       1  UNL1        0.2960
      6  C          7.0180   -0.1200   -2.1460 C.3     1  UNL1        0.0470
      7  C          6.4830    0.0350   -0.7940 C.2     1  UNL1       -0.0470
      8  C          6.6120   -0.9730    0.1340 C.2     1  UNL1        0.0040
      9  C          5.8480    1.2070   -0.4540 C.2     1  UNL1        0.0040
     10  C          6.0790   -0.7550    1.4060 C.2     1  UNL1        0.0000
     11  C          5.3200    1.4200    0.8040 C.2     1  UNL1        0.0000
     12  C          5.4450    0.4160    1.7390 C.2     1  UNL1        0.0000
@<TRIPOS>BOND
     1     5     4    1
     2     4     2    1
     3     3     2    2
     4     2     1    1
     5     1     6    1
     6     6     7    1
     7     7     9    2
     8     7     8    1
     9     9    11    1
    10     8    10    2
    11    11    12    2
    12    10    12    1
