@<TRIPOS>MOLECULE
/home/cewinharhar/GITHUB/reincatalyze/data/processed/docking_pred/2023-Apr-26-1657_maxeplen10_maxtrainstep1000_exh32_gamma099_lrac9e-4_lrcr1e-3/f74925e0f2dbd9eb14447f51d5c862455f02ecd6_ligand_2.pdbqt
 12 12 0 0 0
SMALL
GASTEIGER

@<TRIPOS>ATOM
      1  C          8.4320   -0.6100   -2.1490 C.3     1  UNL1        0.1270
      2  C          8.4780   -1.8820   -2.9080 C.2     1  UNL1        0.3030
      3  O          9.5620   -2.4860   -3.1000 O.2     1  UNL1       -0.2520
      4  O          7.3210   -2.4410   -3.4270 O.3     1  UNL1       -0.4810
      5  H          6.8100   -1.9430   -4.1610 H       1  UNL1        0.2960
      6  C          7.0140   -0.1250   -2.1290 C.3     1  UNL1        0.0470
      7  C          6.4700    0.0670   -0.7860 C.2     1  UNL1       -0.0470
      8  C          5.8320    1.2380   -0.4470 C.2     1  UNL1        0.0040
      9  C          6.5990   -0.9410    0.1410 C.2     1  UNL1        0.0040
     10  C          5.3360    1.3510    0.8540 C.2     1  UNL1        0.0000
     11  C          6.1080   -0.8270    1.4260 C.2     1  UNL1        0.0000
     12  C          5.4680    0.3430    1.7750 C.2     1  UNL1        0.0000
@<TRIPOS>BOND
     1     5     4    1
     2     4     2    1
     3     3     2    2
     4     2     1    1
     5     1     6    1
     6     6     7    1
     7     7     8    2
     8     7     9    1
     9     8    10    1
    10     9    11    2
    11    10    12    2
    12    11    12    1
