@<TRIPOS>MOLECULE
/home/cewinharhar/GITHUB/reincatalyze/data/processed/docking_pred/2023-Apr-26-1657_maxeplen10_maxtrainstep1000_exh32_gamma099_lrac9e-4_lrcr1e-3/f74925e0f2dbd9eb14447f51d5c862455f02ecd6_ligand_2.pdbqt
 12 12 0 0 0
SMALL
GASTEIGER

@<TRIPOS>ATOM
      1  C          8.0520   -1.4660    1.1470 C.3     1  UNL1        0.1270
      2  C          8.3530   -2.6730    0.3420 C.2     1  UNL1        0.3030
      3  O          9.0510   -3.6080    0.8070 O.2     1  UNL1       -0.2520
      4  O          7.8710   -2.8030   -0.9500 O.3     1  UNL1       -0.4810
      5  H          6.8860   -3.0450   -1.0960 H       1  UNL1        0.2960
      6  C          6.5640   -1.3360    1.2630 C.3     1  UNL1        0.0470
      7  C          6.0390   -0.0610    0.7760 C.2     1  UNL1       -0.0470
      8  C          5.2860    0.7480    1.5950 C.2     1  UNL1        0.0040
      9  C          6.3080    0.3260   -0.5160 C.2     1  UNL1        0.0040
     10  C          4.8180    1.9520    1.0640 C.2     1  UNL1        0.0000
     11  C          5.8440    1.5170   -1.0400 C.2     1  UNL1        0.0000
     12  C          5.0880    2.3330   -0.2260 C.2     1  UNL1        0.0000
@<TRIPOS>BOND
     1     5     4    1
     2    11     9    1
     3    11    12    2
     4     4     2    1
     5     9     7    2
     6    12    10    1
     7     2     3    2
     8     2     1    1
     9     7     6    1
    10     7     8    1
    11    10     8    2
    12     1     6    1
