@<TRIPOS>MOLECULE
/home/cewinharhar/GITHUB/reincatalyze/data/processed/docking_pred/2023-Apr-26-1657_maxeplen10_maxtrainstep1000_exh32_gamma099_lrac9e-4_lrcr1e-3/f74925e0f2dbd9eb14447f51d5c862455f02ecd6_ligand_2.pdbqt
 12 12 0 0 0
SMALL
GASTEIGER

@<TRIPOS>ATOM
      1  C          5.4310    2.8990   -0.0090 C.3     1  UNL1        0.1270
      2  C          6.2230    3.8650    0.7880 C.2     1  UNL1        0.3030
      3  O          6.8880    4.7750    0.2340 O.2     1  UNL1       -0.2520
      4  O          6.2520    3.7890    2.1710 O.3     1  UNL1       -0.4810
      5  H          5.9960    2.9110    2.6300 H       1  UNL1        0.2960
      6  C          4.8960    1.8500    0.9180 C.3     1  UNL1        0.0470
      7  C          5.6880    0.6210    0.9450 C.2     1  UNL1       -0.0470
      8  C          5.7810   -0.1310    2.0930 C.2     1  UNL1        0.0040
      9  C          6.3420    0.2190   -0.1970 C.2     1  UNL1        0.0040
     10  C          6.5530   -1.2930    2.0450 C.2     1  UNL1        0.0000
     11  C          7.1060   -0.9300   -0.2420 C.2     1  UNL1        0.0000
     12  C          7.2040   -1.6890    0.9040 C.2     1  UNL1        0.0000
@<TRIPOS>BOND
     1    11     9    1
     2    11    12    2
     3     9     7    2
     4     1     2    1
     5     1     6    1
     6     3     2    2
     7     2     4    1
     8    12    10    1
     9     6     7    1
    10     7     8    1
    11    10     8    2
    12     4     5    1
