@<TRIPOS>MOLECULE
/home/cewinharhar/GITHUB/reincatalyze/data/processed/docking_pred/2023-Apr-26-1657_maxeplen10_maxtrainstep1000_exh32_gamma099_lrac9e-4_lrcr1e-3/f9550a52c30547fdb3e6e224a3b8a38c5560e948_ligand_2.pdbqt
 12 12 0 0 0
SMALL
GASTEIGER

@<TRIPOS>ATOM
      1  C          8.4260   -0.6420   -2.1070 C.3     1  UNL1        0.1270
      2  C          8.3890   -1.9000   -2.8890 C.2     1  UNL1        0.3030
      3  O          7.3000   -2.4150   -3.2430 O.2     1  UNL1       -0.2520
      4  O          9.5610   -2.5440   -3.2530 O.3     1  UNL1       -0.4810
      5  H          9.5360   -3.5440   -3.4710 H       1  UNL1        0.2960
      6  C          7.0460   -0.0570   -2.0910 C.3     1  UNL1        0.0470
      7  C          6.4790    0.0920   -0.7520 C.2     1  UNL1       -0.0470
      8  C          6.5980   -0.9150    0.1780 C.2     1  UNL1        0.0040
      9  C          5.8230    1.2560   -0.4270 C.2     1  UNL1        0.0040
     10  C          6.0320   -0.7040    1.4380 C.2     1  UNL1        0.0000
     11  C          5.2640    1.4630    0.8190 C.2     1  UNL1        0.0000
     12  C          5.3780    0.4590    1.7560 C.2     1  UNL1        0.0000
@<TRIPOS>BOND
     1     5     4    1
     2     4     2    1
     3     3     2    2
     4     2     1    1
     5     1     6    1
     6     6     7    1
     7     7     9    2
     8     7     8    1
     9     9    11    1
    10     8    10    2
    11    11    12    2
    12    10    12    1
