@<TRIPOS>MOLECULE
/home/cewinharhar/GITHUB/reincatalyze/data/processed/docking_pred/2023-Apr-26-1657_maxeplen10_maxtrainstep1000_exh32_gamma099_lrac9e-4_lrcr1e-3/f9550a52c30547fdb3e6e224a3b8a38c5560e948_ligand_2.pdbqt
 12 12 0 0 0
SMALL
GASTEIGER

@<TRIPOS>ATOM
      1  C          8.4410   -0.6300   -2.0760 C.3     1  UNL1        0.1270
      2  C          8.4760   -1.8780   -2.8730 C.2     1  UNL1        0.3030
      3  O          9.5570   -2.4740   -3.1030 O.2     1  UNL1       -0.2520
      4  O          7.3110   -2.4240   -3.3890 O.3     1  UNL1       -0.4810
      5  H          6.6810   -2.9380   -2.7670 H       1  UNL1        0.2960
      6  C          7.0390   -0.1010   -2.0900 C.3     1  UNL1        0.0470
      7  C          6.4650    0.0970   -0.7600 C.2     1  UNL1       -0.0470
      8  C          5.8110    1.2650   -0.4430 C.2     1  UNL1        0.0040
      9  C          6.5820   -0.9030    0.1780 C.2     1  UNL1        0.0040
     10  C          5.2870    1.3850    0.8460 C.2     1  UNL1        0.0000
     11  C          6.0630   -0.7830    1.4520 C.2     1  UNL1        0.0000
     12  C          5.4080    0.3850    1.7780 C.2     1  UNL1        0.0000
@<TRIPOS>BOND
     1     4     2    1
     2     4     5    1
     3     3     2    2
     4     2     1    1
     5     6     1    1
     6     6     7    1
     7     7     8    2
     8     7     9    1
     9     8    10    1
    10     9    11    2
    11    10    12    2
    12    11    12    1
