@<TRIPOS>MOLECULE
/home/cewinharhar/GITHUB/reincatalyze/data/processed/docking_pred/2023-Apr-26-1657_maxeplen10_maxtrainstep1000_exh32_gamma099_lrac9e-4_lrcr1e-3/f9550a52c30547fdb3e6e224a3b8a38c5560e948_ligand_2.pdbqt
 12 12 0 0 0
SMALL
GASTEIGER

@<TRIPOS>ATOM
      1  C          8.2120   -0.8700   -1.9340 C.3     1  UNL1        0.1270
      2  C          8.3630   -2.0100   -2.8690 C.2     1  UNL1        0.3030
      3  O          9.4850   -2.5290   -3.0870 O.2     1  UNL1       -0.2520
      4  O          7.2640   -2.5360   -3.5290 O.3     1  UNL1       -0.4810
      5  H          6.5190   -2.9810   -2.9860 H       1  UNL1        0.2960
      6  C          7.4810   -1.3510   -0.7180 C.3     1  UNL1        0.0470
      7  C          6.6200   -0.3420   -0.1040 C.2     1  UNL1       -0.0470
      8  C          6.1630   -0.4970    1.1840 C.2     1  UNL1        0.0040
      9  C          6.2690    0.7720   -0.8300 C.2     1  UNL1        0.0040
     10  C          5.3440    0.5070    1.7070 C.2     1  UNL1        0.0000
     11  C          5.4590    1.7640   -0.3120 C.2     1  UNL1        0.0000
     12  C          4.9970    1.6160    0.9780 C.2     1  UNL1        0.0000
@<TRIPOS>BOND
     1     4     5    1
     2     4     2    1
     3     3     2    2
     4     2     1    1
     5     1     6    1
     6     9    11    1
     7     9     7    2
     8     6     7    1
     9    11    12    2
    10     7     8    1
    11    12    10    1
    12     8    10    2
