MODEL 1
REMARK VINA RESULT:      -7.4      0.000      0.000
REMARK SMILES O=C(O)CCc1ccccc1
REMARK SMILES IDX 4 1 2 2 1 3 3 4 5 6 6 7 7 8 11 9 8 10 10 11 9 12
REMARK H PARENT 3 5
REMARK Flexibility Score: inf
ROOT
ATOM      1  C   UNL     1       8.441  -0.630  -2.076  1.00  0.00     0.127 C 
ENDROOT
BRANCH   1   2
ATOM      2  C   UNL     1       8.476  -1.878  -2.873  1.00  0.00     0.303 C 
ATOM      3  O   UNL     1       9.557  -2.474  -3.103  1.00  0.00    -0.252 OA
BRANCH   2   4
ATOM      4  O   UNL     1       7.311  -2.424  -3.389  1.00  0.00    -0.481 OA
ATOM      5  H   UNL     1       6.681  -2.938  -2.767  1.00  0.00     0.296 HD
ENDBRANCH   2   4
ENDBRANCH   1   2
BRANCH   1   6
ATOM      6  C   UNL     1       7.039  -0.101  -2.090  1.00  0.00     0.047 C 
BRANCH   6   7
ATOM      7  C   UNL     1       6.465   0.097  -0.760  1.00  0.00    -0.047 A 
ATOM      8  C   UNL     1       5.811   1.265  -0.443  1.00  0.00     0.004 A 
ATOM      9  C   UNL     1       6.582  -0.903   0.178  1.00  0.00     0.004 A 
ATOM     10  C   UNL     1       5.287   1.385   0.846  1.00  0.00     0.000 A 
ATOM     11  C   UNL     1       6.063  -0.783   1.452  1.00  0.00     0.000 A 
ATOM     12  C   UNL     1       5.408   0.385   1.778  1.00  0.00     0.000 A 
ENDBRANCH   6   7
ENDBRANCH   1   6
TORSDOF 4
ENDMDL
MODEL 2
REMARK VINA RESULT:      -7.3      0.087      1.731
REMARK SMILES O=C(O)CCc1ccccc1
REMARK SMILES IDX 4 1 2 2 1 3 3 4 5 6 6 7 7 8 11 9 8 10 10 11 9 12
REMARK H PARENT 3 5
REMARK Flexibility Score: inf
ROOT
ATOM      1  C   UNL     1       8.426  -0.642  -2.107  1.00  0.00     0.127 C 
ENDROOT
BRANCH   1   2
ATOM      2  C   UNL     1       8.389  -1.900  -2.889  1.00  0.00     0.303 C 
ATOM      3  O   UNL     1       7.300  -2.415  -3.243  1.00  0.00    -0.252 OA
BRANCH   2   4
ATOM      4  O   UNL     1       9.561  -2.544  -3.253  1.00  0.00    -0.481 OA
ATOM      5  H   UNL     1       9.536  -3.544  -3.471  1.00  0.00     0.296 HD
ENDBRANCH   2   4
ENDBRANCH   1   2
BRANCH   1   6
ATOM      6  C   UNL     1       7.046  -0.057  -2.091  1.00  0.00     0.047 C 
BRANCH   6   7
ATOM      7  C   UNL     1       6.479   0.092  -0.752  1.00  0.00    -0.047 A 
ATOM      8  C   UNL     1       6.598  -0.915   0.178  1.00  0.00     0.004 A 
ATOM      9  C   UNL     1       5.823   1.256  -0.427  1.00  0.00     0.004 A 
ATOM     10  C   UNL     1       6.032  -0.704   1.438  1.00  0.00     0.000 A 
ATOM     11  C   UNL     1       5.264   1.463   0.819  1.00  0.00     0.000 A 
ATOM     12  C   UNL     1       5.378   0.459   1.756  1.00  0.00     0.000 A 
ENDBRANCH   6   7
ENDBRANCH   1   6
TORSDOF 4
ENDMDL
MODEL 3
REMARK VINA RESULT:      -7.2      0.589      1.598
REMARK SMILES O=C(O)CCc1ccccc1
REMARK SMILES IDX 4 1 2 2 1 3 3 4 5 6 6 7 7 8 11 9 8 10 10 11 9 12
REMARK H PARENT 3 5
REMARK Flexibility Score: inf
ROOT
ATOM      1  C   UNL     1       8.212  -0.870  -1.934  1.00  0.00     0.127 C 
ENDROOT
BRANCH   1   2
ATOM      2  C   UNL     1       8.363  -2.010  -2.869  1.00  0.00     0.303 C 
ATOM      3  O   UNL     1       9.485  -2.529  -3.087  1.00  0.00    -0.252 OA
BRANCH   2   4
ATOM      4  O   UNL     1       7.264  -2.536  -3.529  1.00  0.00    -0.481 OA
ATOM      5  H   UNL     1       6.519  -2.981  -2.986  1.00  0.00     0.296 HD
ENDBRANCH   2   4
ENDBRANCH   1   2
BRANCH   1   6
ATOM      6  C   UNL     1       7.481  -1.351  -0.718  1.00  0.00     0.047 C 
BRANCH   6   7
ATOM      7  C   UNL     1       6.620  -0.342  -0.104  1.00  0.00    -0.047 A 
ATOM      8  C   UNL     1       6.163  -0.497   1.184  1.00  0.00     0.004 A 
ATOM      9  C   UNL     1       6.269   0.772  -0.830  1.00  0.00     0.004 A 
ATOM     10  C   UNL     1       5.344   0.507   1.707  1.00  0.00     0.000 A 
ATOM     11  C   UNL     1       5.459   1.764  -0.312  1.00  0.00     0.000 A 
ATOM     12  C   UNL     1       4.997   1.616   0.978  1.00  0.00     0.000 A 
ENDBRANCH   6   7
ENDBRANCH   1   6
TORSDOF 4
ENDMDL
MODEL 4
REMARK VINA RESULT:      -6.8      3.362      5.079
REMARK SMILES O=C(O)CCc1ccccc1
REMARK SMILES IDX 4 1 2 2 1 3 3 4 5 6 6 7 7 8 11 9 8 10 10 11 9 12
REMARK H PARENT 3 5
REMARK Flexibility Score: inf
ROOT
ATOM      1  C   UNL     1       5.008   1.796   0.710  1.00  0.00     0.127 C 
ENDROOT
BRANCH   1   2
ATOM      2  C   UNL     1       4.485   1.113   1.918  1.00  0.00     0.303 C 
ATOM      3  O   UNL     1       5.140   0.204   2.486  1.00  0.00    -0.252 OA
BRANCH   2   4
ATOM      4  O   UNL     1       3.256   1.461   2.454  1.00  0.00    -0.481 OA
ATOM      5  H   UNL     1       2.984   1.086   3.367  1.00  0.00     0.296 HD
ENDBRANCH   2   4
ENDBRANCH   1   2
BRANCH   1   6
ATOM      6  C   UNL     1       6.505   1.763   0.761  1.00  0.00     0.047 C 
BRANCH   6   7
ATOM      7  C   UNL     1       7.121   1.020  -0.336  1.00  0.00    -0.047 A 
ATOM      8  C   UNL     1       6.388   0.121  -1.076  1.00  0.00     0.004 A 
ATOM      9  C   UNL     1       8.449   1.230  -0.626  1.00  0.00     0.004 A 
ATOM     10  C   UNL     1       7.042  -0.553  -2.110  1.00  0.00     0.000 A 
ATOM     11  C   UNL     1       9.094   0.563  -1.649  1.00  0.00     0.000 A 
ATOM     12  C   UNL     1       8.367  -0.340  -2.395  1.00  0.00     0.000 A 
ENDBRANCH   6   7
ENDBRANCH   1   6
TORSDOF 4
ENDMDL
MODEL 5
REMARK VINA RESULT:      -6.7      3.809      4.916
REMARK SMILES O=C(O)CCc1ccccc1
REMARK SMILES IDX 4 1 2 2 1 3 3 4 5 6 6 7 7 8 11 9 8 10 10 11 9 12
REMARK H PARENT 3 5
REMARK Flexibility Score: inf
ROOT
ATOM      1  C   UNL     1       5.434   2.899   0.039  1.00  0.00     0.127 C 
ENDROOT
BRANCH   1   2
ATOM      2  C   UNL     1       6.244   3.861   0.823  1.00  0.00     0.303 C 
ATOM      3  O   UNL     1       6.895   4.775   0.258  1.00  0.00    -0.252 OA
BRANCH   2   4
ATOM      4  O   UNL     1       6.306   3.778   2.205  1.00  0.00    -0.481 OA
ATOM      5  H   UNL     1       7.127   4.145   2.693  1.00  0.00     0.296 HD
ENDBRANCH   2   4
ENDBRANCH   1   2
BRANCH   1   6
ATOM      6  C   UNL     1       4.942   1.832   0.969  1.00  0.00     0.047 C 
BRANCH   6   7
ATOM      7  C   UNL     1       5.731   0.602   0.932  1.00  0.00    -0.047 A 
ATOM      8  C   UNL     1       6.389   0.221  -0.215  1.00  0.00     0.004 A 
ATOM      9  C   UNL     1       5.813  -0.177   2.064  1.00  0.00     0.004 A 
ATOM     10  C   UNL     1       7.125  -0.965  -0.177  1.00  0.00     0.000 A 
ATOM     11  C   UNL     1       6.541  -1.350   2.099  1.00  0.00     0.000 A 
ATOM     12  C   UNL     1       7.202  -1.738   0.954  1.00  0.00     0.000 A 
ENDBRANCH   6   7
ENDBRANCH   1   6
TORSDOF 4
ENDMDL
