@<TRIPOS>MOLECULE
/home/cewinharhar/GITHUB/reincatalyze/data/processed/docking_pred/2023-Apr-26-1657_maxeplen10_maxtrainstep1000_exh32_gamma099_lrac9e-4_lrcr1e-3/f9550a52c30547fdb3e6e224a3b8a38c5560e948_ligand_2.pdbqt
 12 12 0 0 0
SMALL
GASTEIGER

@<TRIPOS>ATOM
      1  C          5.0080    1.7960    0.7100 C.3     1  UNL1        0.1270
      2  C          4.4850    1.1130    1.9180 C.2     1  UNL1        0.3030
      3  O          5.1400    0.2040    2.4860 O.2     1  UNL1       -0.2520
      4  O          3.2560    1.4610    2.4540 O.3     1  UNL1       -0.4810
      5  H          2.9840    1.0860    3.3670 H       1  UNL1        0.2960
      6  C          6.5050    1.7630    0.7610 C.3     1  UNL1        0.0470
      7  C          7.1210    1.0200   -0.3360 C.2     1  UNL1       -0.0470
      8  C          6.3880    0.1210   -1.0760 C.2     1  UNL1        0.0040
      9  C          8.4490    1.2300   -0.6260 C.2     1  UNL1        0.0040
     10  C          7.0420   -0.5530   -2.1100 C.2     1  UNL1        0.0000
     11  C          9.0940    0.5630   -1.6490 C.2     1  UNL1        0.0000
     12  C          8.3670   -0.3400   -2.3950 C.2     1  UNL1        0.0000
@<TRIPOS>BOND
     1    12    10    2
     2    12    11    1
     3    10     8    1
     4    11     9    2
     5     8     7    2
     6     9     7    1
     7     7     6    1
     8     1     6    1
     9     1     2    1
    10     2     4    1
    11     2     3    2
    12     4     5    1
