@<TRIPOS>MOLECULE
/home/cewinharhar/GITHUB/reincatalyze/data/processed/docking_pred/2023-Apr-26-1657_maxeplen10_maxtrainstep1000_exh32_gamma099_lrac9e-4_lrcr1e-3/f9550a52c30547fdb3e6e224a3b8a38c5560e948_ligand_2.pdbqt
 12 12 0 0 0
SMALL
GASTEIGER

@<TRIPOS>ATOM
      1  C          5.4340    2.8990    0.0390 C.3     1  UNL1        0.1270
      2  C          6.2440    3.8610    0.8230 C.2     1  UNL1        0.3030
      3  O          6.8950    4.7750    0.2580 O.2     1  UNL1       -0.2520
      4  O          6.3060    3.7780    2.2050 O.3     1  UNL1       -0.4810
      5  H          7.1270    4.1450    2.6930 H       1  UNL1        0.2960
      6  C          4.9420    1.8320    0.9690 C.3     1  UNL1        0.0470
      7  C          5.7310    0.6020    0.9320 C.2     1  UNL1       -0.0470
      8  C          6.3890    0.2210   -0.2150 C.2     1  UNL1        0.0040
      9  C          5.8130   -0.1770    2.0640 C.2     1  UNL1        0.0040
     10  C          7.1250   -0.9650   -0.1770 C.2     1  UNL1        0.0000
     11  C          6.5410   -1.3500    2.0990 C.2     1  UNL1        0.0000
     12  C          7.2020   -1.7380    0.9540 C.2     1  UNL1        0.0000
@<TRIPOS>BOND
     1     8    10    1
     2     8     7    2
     3    10    12    2
     4     1     2    1
     5     1     6    1
     6     3     2    2
     7     2     4    1
     8     7     6    1
     9     7     9    1
    10    12    11    1
    11     9    11    2
    12     4     5    1
