@<TRIPOS>MOLECULE
/home/cewinharhar/GITHUB/reincatalyze/data/processed/docking_pred/2023-Apr-26-1657_maxeplen10_maxtrainstep1000_exh32_gamma099_lrac9e-4_lrcr1e-3/faf685cb0c2e1ff185f0c147bdf23d27aa2a460b_ligand_2.pdbqt
 12 12 0 0 0
SMALL
GASTEIGER

@<TRIPOS>ATOM
      1  C          8.2780    0.3910   -1.9390 C.3     1  UNL1        0.1270
      2  C          9.4580    0.3900   -1.0420 C.2     1  UNL1        0.3030
      3  O          9.5270   -0.3870   -0.0580 O.2     1  UNL1       -0.2520
      4  O         10.5210    1.2500   -1.2660 O.3     1  UNL1       -0.4810
      5  H         11.4780    0.9050   -1.1530 H       1  UNL1        0.2960
      6  C          7.2350   -0.5060   -1.3450 C.3     1  UNL1        0.0470
      7  C          6.3990    0.1410   -0.3360 C.2     1  UNL1       -0.0470
      8  C          5.8410    1.3750   -0.5710 C.2     1  UNL1        0.0040
      9  C          6.1720   -0.5010    0.8600 C.2     1  UNL1        0.0040
     10  C          5.0520    1.9330    0.4380 C.2     1  UNL1        0.0000
     11  C          5.3920    0.0520    1.8560 C.2     1  UNL1        0.0000
     12  C          4.8300    1.2890    1.6280 C.2     1  UNL1        0.0000
@<TRIPOS>BOND
     1     1     6    1
     2     1     2    1
     3     6     7    1
     4     4     5    1
     5     4     2    1
     6     2     3    2
     7     8     7    2
     8     8    10    1
     9     7     9    1
    10    10    12    2
    11     9    11    2
    12    12    11    1
