@<TRIPOS>MOLECULE
/home/cewinharhar/GITHUB/reincatalyze/data/processed/docking_pred/2023-Apr-26-1657_maxeplen10_maxtrainstep1000_exh32_gamma099_lrac9e-4_lrcr1e-3/faf685cb0c2e1ff185f0c147bdf23d27aa2a460b_ligand_2.pdbqt
 12 12 0 0 0
SMALL
GASTEIGER

@<TRIPOS>ATOM
      1  C          8.4250   -0.7200   -2.0140 C.3     1  UNL1        0.1270
      2  C          8.4510   -1.9370   -2.8590 C.2     1  UNL1        0.3030
      3  O          9.5230   -2.5530   -3.0810 O.2     1  UNL1       -0.2520
      4  O          7.2880   -2.4310   -3.4280 O.3     1  UNL1       -0.4810
      5  H          6.6130   -1.7780   -3.8360 H       1  UNL1        0.2960
      6  C          7.0370   -0.1550   -2.0450 C.3     1  UNL1        0.0470
      7  C          6.4550    0.0630   -0.7210 C.2     1  UNL1       -0.0470
      8  C          5.8090    1.2400   -0.4230 C.2     1  UNL1        0.0040
      9  C          6.5570   -0.9270    0.2280 C.2     1  UNL1        0.0040
     10  C          5.2760    1.3790    0.8610 C.2     1  UNL1        0.0000
     11  C          6.0300   -0.7880    1.4970 C.2     1  UNL1        0.0000
     12  C          5.3820    0.3880    1.8050 C.2     1  UNL1        0.0000
@<TRIPOS>BOND
     1     5     4    1
     2     4     2    1
     3     3     2    2
     4     2     1    1
     5     6     1    1
     6     6     7    1
     7     7     8    2
     8     7     9    1
     9     8    10    1
    10     9    11    2
    11    10    12    2
    12    11    12    1
