MODEL 1
REMARK VINA RESULT:      -7.3      0.000      0.000
REMARK SMILES O=C(O)CCc1ccccc1
REMARK SMILES IDX 4 1 2 2 1 3 3 4 5 6 6 7 7 8 11 9 8 10 10 11 9 12
REMARK H PARENT 3 5
REMARK Flexibility Score: inf
ROOT
ATOM      1  C   UNL     1       8.425  -0.720  -2.014  1.00  0.00     0.127 C 
ENDROOT
BRANCH   1   2
ATOM      2  C   UNL     1       8.451  -1.937  -2.859  1.00  0.00     0.303 C 
ATOM      3  O   UNL     1       9.523  -2.553  -3.081  1.00  0.00    -0.252 OA
BRANCH   2   4
ATOM      4  O   UNL     1       7.288  -2.431  -3.428  1.00  0.00    -0.481 OA
ATOM      5  H   UNL     1       6.613  -1.778  -3.836  1.00  0.00     0.296 HD
ENDBRANCH   2   4
ENDBRANCH   1   2
BRANCH   1   6
ATOM      6  C   UNL     1       7.037  -0.155  -2.045  1.00  0.00     0.047 C 
BRANCH   6   7
ATOM      7  C   UNL     1       6.455   0.063  -0.721  1.00  0.00    -0.047 A 
ATOM      8  C   UNL     1       5.809   1.240  -0.423  1.00  0.00     0.004 A 
ATOM      9  C   UNL     1       6.557  -0.927   0.228  1.00  0.00     0.004 A 
ATOM     10  C   UNL     1       5.276   1.379   0.861  1.00  0.00     0.000 A 
ATOM     11  C   UNL     1       6.030  -0.788   1.497  1.00  0.00     0.000 A 
ATOM     12  C   UNL     1       5.382   0.388   1.805  1.00  0.00     0.000 A 
ENDBRANCH   6   7
ENDBRANCH   1   6
TORSDOF 4
ENDMDL
MODEL 2
REMARK VINA RESULT:      -7.3      0.147      1.444
REMARK SMILES O=C(O)CCc1ccccc1
REMARK SMILES IDX 4 1 2 2 1 3 3 4 5 6 6 7 7 8 11 9 8 10 10 11 9 12
REMARK H PARENT 3 5
REMARK Flexibility Score: inf
ROOT
ATOM      1  C   UNL     1       8.432  -0.541  -2.246  1.00  0.00     0.127 C 
ENDROOT
BRANCH   1   2
ATOM      2  C   UNL     1       8.488  -1.848  -2.944  1.00  0.00     0.303 C 
ATOM      3  O   UNL     1       9.576  -2.454  -3.104  1.00  0.00    -0.252 OA
BRANCH   2   4
ATOM      4  O   UNL     1       7.336  -2.438  -3.439  1.00  0.00    -0.481 OA
ATOM      5  H   UNL     1       6.662  -2.847  -2.786  1.00  0.00     0.296 HD
ENDBRANCH   2   4
ENDBRANCH   1   2
BRANCH   1   6
ATOM      6  C   UNL     1       7.001  -0.100  -2.186  1.00  0.00     0.047 C 
BRANCH   6   7
ATOM      7  C   UNL     1       6.483   0.055  -0.828  1.00  0.00    -0.047 A 
ATOM      8  C   UNL     1       6.630  -0.951   0.099  1.00  0.00     0.004 A 
ATOM      9  C   UNL     1       5.845   1.223  -0.482  1.00  0.00     0.004 A 
ATOM     10  C   UNL     1       6.111  -0.734   1.378  1.00  0.00     0.000 A 
ATOM     11  C   UNL     1       5.333   1.436   0.782  1.00  0.00     0.000 A 
ATOM     12  C   UNL     1       5.475   0.433   1.717  1.00  0.00     0.000 A 
ENDBRANCH   6   7
ENDBRANCH   1   6
TORSDOF 4
ENDMDL
MODEL 3
REMARK VINA RESULT:      -6.7      3.373      5.083
REMARK SMILES O=C(O)CCc1ccccc1
REMARK SMILES IDX 4 1 2 2 1 3 3 4 5 6 6 7 7 8 11 9 8 10 10 11 9 12
REMARK H PARENT 3 5
REMARK Flexibility Score: inf
ROOT
ATOM      1  C   UNL     1       4.991   1.806   0.668  1.00  0.00     0.127 C 
ENDROOT
BRANCH   1   2
ATOM      2  C   UNL     1       4.495   1.132   1.891  1.00  0.00     0.303 C 
ATOM      3  O   UNL     1       5.171   0.242   2.463  1.00  0.00    -0.252 OA
BRANCH   2   4
ATOM      4  O   UNL     1       3.268   1.468   2.439  1.00  0.00    -0.481 OA
ATOM      5  H   UNL     1       2.776   0.786   3.023  1.00  0.00     0.296 HD
ENDBRANCH   2   4
ENDBRANCH   1   2
BRANCH   1   6
ATOM      6  C   UNL     1       6.488   1.815   0.709  1.00  0.00     0.047 C 
BRANCH   6   7
ATOM      7  C   UNL     1       7.117   1.049  -0.365  1.00  0.00    -0.047 A 
ATOM      8  C   UNL     1       6.382   0.169  -1.125  1.00  0.00     0.004 A 
ATOM      9  C   UNL     1       8.460   1.217  -0.613  1.00  0.00     0.004 A 
ATOM     10  C   UNL     1       7.048  -0.529  -2.135  1.00  0.00     0.000 A 
ATOM     11  C   UNL     1       9.117   0.526  -1.612  1.00  0.00     0.000 A 
ATOM     12  C   UNL     1       8.387  -0.357  -2.377  1.00  0.00     0.000 A 
ENDBRANCH   6   7
ENDBRANCH   1   6
TORSDOF 4
ENDMDL
MODEL 4
REMARK VINA RESULT:      -6.7      3.812      4.919
REMARK SMILES O=C(O)CCc1ccccc1
REMARK SMILES IDX 4 1 2 2 1 3 3 4 5 6 6 7 7 8 11 9 8 10 10 11 9 12
REMARK H PARENT 3 5
REMARK Flexibility Score: inf
ROOT
ATOM      1  C   UNL     1       5.466   2.811   0.013  1.00  0.00     0.127 C 
ENDROOT
BRANCH   1   2
ATOM      2  C   UNL     1       6.222   3.778   0.844  1.00  0.00     0.303 C 
ATOM      3  O   UNL     1       6.190   3.722   2.098  1.00  0.00    -0.252 OA
BRANCH   2   4
ATOM      4  O   UNL     1       6.985   4.774   0.257  1.00  0.00    -0.481 OA
ATOM      5  H   UNL     1       7.429   4.597  -0.648  1.00  0.00     0.296 HD
ENDBRANCH   2   4
ENDBRANCH   1   2
BRANCH   1   6
ATOM      6  C   UNL     1       4.931   1.737   0.909  1.00  0.00     0.047 C 
BRANCH   6   7
ATOM      7  C   UNL     1       5.732   0.514   0.916  1.00  0.00    -0.047 A 
ATOM      8  C   UNL     1       6.436   0.129  -0.201  1.00  0.00     0.004 A 
ATOM      9  C   UNL     1       5.777  -0.253   2.057  1.00  0.00     0.004 A 
ATOM     10  C   UNL     1       7.181  -1.050  -0.123  1.00  0.00     0.000 A 
ATOM     11  C   UNL     1       6.513  -1.418   2.133  1.00  0.00     0.000 A 
ATOM     12  C   UNL     1       7.222  -1.811   1.018  1.00  0.00     0.000 A 
ENDBRANCH   6   7
ENDBRANCH   1   6
TORSDOF 4
ENDMDL
MODEL 5
REMARK VINA RESULT:      -6.6      2.005      2.296
REMARK SMILES O=C(O)CCc1ccccc1
REMARK SMILES IDX 4 1 2 2 1 3 3 4 5 6 6 7 7 8 11 9 8 10 10 11 9 12
REMARK H PARENT 3 5
REMARK Flexibility Score: inf
ROOT
ATOM      1  C   UNL     1       8.278   0.391  -1.939  1.00  0.00     0.127 C 
ENDROOT
BRANCH   1   2
ATOM      2  C   UNL     1       9.458   0.390  -1.042  1.00  0.00     0.303 C 
ATOM      3  O   UNL     1       9.527  -0.387  -0.058  1.00  0.00    -0.252 OA
BRANCH   2   4
ATOM      4  O   UNL     1      10.521   1.250  -1.266  1.00  0.00    -0.481 OA
ATOM      5  H   UNL     1      11.478   0.905  -1.153  1.00  0.00     0.296 HD
ENDBRANCH   2   4
ENDBRANCH   1   2
BRANCH   1   6
ATOM      6  C   UNL     1       7.235  -0.506  -1.345  1.00  0.00     0.047 C 
BRANCH   6   7
ATOM      7  C   UNL     1       6.399   0.141  -0.336  1.00  0.00    -0.047 A 
ATOM      8  C   UNL     1       5.841   1.375  -0.571  1.00  0.00     0.004 A 
ATOM      9  C   UNL     1       6.172  -0.501   0.860  1.00  0.00     0.004 A 
ATOM     10  C   UNL     1       5.052   1.933   0.438  1.00  0.00     0.000 A 
ATOM     11  C   UNL     1       5.392   0.052   1.856  1.00  0.00     0.000 A 
ATOM     12  C   UNL     1       4.830   1.289   1.628  1.00  0.00     0.000 A 
ENDBRANCH   6   7
ENDBRANCH   1   6
TORSDOF 4
ENDMDL
