@<TRIPOS>MOLECULE
/home/cewinharhar/GITHUB/reincatalyze/data/processed/docking_pred/2023-Apr-26-1657_maxeplen10_maxtrainstep1000_exh32_gamma099_lrac9e-4_lrcr1e-3/faf685cb0c2e1ff185f0c147bdf23d27aa2a460b_ligand_2.pdbqt
 12 12 0 0 0
SMALL
GASTEIGER

@<TRIPOS>ATOM
      1  C          5.4660    2.8110    0.0130 C.3     1  UNL1        0.1270
      2  C          6.2220    3.7780    0.8440 C.2     1  UNL1        0.3030
      3  O          6.1900    3.7220    2.0980 O.2     1  UNL1       -0.2520
      4  O          6.9850    4.7740    0.2570 O.3     1  UNL1       -0.4810
      5  H          7.4290    4.5970   -0.6480 H       1  UNL1        0.2960
      6  C          4.9310    1.7370    0.9090 C.3     1  UNL1        0.0470
      7  C          5.7320    0.5140    0.9160 C.2     1  UNL1       -0.0470
      8  C          6.4360    0.1290   -0.2010 C.2     1  UNL1        0.0040
      9  C          5.7770   -0.2530    2.0570 C.2     1  UNL1        0.0040
     10  C          7.1810   -1.0500   -0.1230 C.2     1  UNL1        0.0000
     11  C          6.5130   -1.4180    2.1330 C.2     1  UNL1        0.0000
     12  C          7.2220   -1.8110    1.0180 C.2     1  UNL1        0.0000
@<TRIPOS>BOND
     1     5     4    1
     2     8    10    1
     3     8     7    2
     4    10    12    2
     5     1     2    1
     6     1     6    1
     7     4     2    1
     8     2     3    2
     9     6     7    1
    10     7     9    1
    11    12    11    1
    12     9    11    2
