@<TRIPOS>MOLECULE
/home/cewinharhar/GITHUB/reincatalyze/data/processed/docking_pred/2023-Apr-26-1657_maxeplen10_maxtrainstep1000_exh32_gamma099_lrac9e-4_lrcr1e-3/fbb46063794dc265e75c2cefc4e8ae8bb502d9b1_ligand_2.pdbqt
 12 12 0 0 0
SMALL
GASTEIGER

@<TRIPOS>ATOM
      1  C          5.0010    1.8040    0.7070 C.3     1  UNL1        0.1270
      2  C          4.4860    1.1160    1.9140 C.2     1  UNL1        0.3030
      3  O          5.1450    0.2080    2.4770 O.2     1  UNL1       -0.2520
      4  O          3.2580    1.4590    2.4560 O.3     1  UNL1       -0.4810
      5  H          2.4010    1.1090    2.0170 H       1  UNL1        0.2960
      6  C          6.4990    1.7830    0.7560 C.3     1  UNL1        0.0470
      7  C          7.1190    1.0360   -0.3360 C.2     1  UNL1       -0.0470
      8  C          6.3860    0.1450   -1.0850 C.2     1  UNL1        0.0040
      9  C          8.4530    1.2340   -0.6130 C.2     1  UNL1        0.0040
     10  C          7.0440   -0.5340   -2.1130 C.2     1  UNL1        0.0000
     11  C          9.1010    0.5620   -1.6290 C.2     1  UNL1        0.0000
     12  C          8.3740   -0.3330   -2.3840 C.2     1  UNL1        0.0000
@<TRIPOS>BOND
     1    12    10    2
     2    12    11    1
     3    10     8    1
     4    11     9    2
     5     8     7    2
     6     9     7    1
     7     7     6    1
     8     1     6    1
     9     1     2    1
    10     2     4    1
    11     2     3    2
    12     5     4    1
