@<TRIPOS>MOLECULE
/home/cewinharhar/GITHUB/reincatalyze/data/processed/docking_pred/2023-Apr-26-1657_maxeplen10_maxtrainstep1000_exh32_gamma099_lrac9e-4_lrcr1e-3/fbb46063794dc265e75c2cefc4e8ae8bb502d9b1_ligand_2.pdbqt
 12 12 0 0 0
SMALL
GASTEIGER

@<TRIPOS>ATOM
      1  C          8.2350    0.1810   -2.1790 C.3     1  UNL1        0.1270
      2  C          9.3660    0.3340   -1.2340 C.2     1  UNL1        0.3030
      3  O          9.4700   -0.3970   -0.2180 O.2     1  UNL1       -0.2520
      4  O         10.3440    1.2930   -1.4470 O.3     1  UNL1       -0.4810
      5  H         10.5250    1.6200   -2.4000 H       1  UNL1        0.2960
      6  C          7.1420   -0.5730   -1.4850 C.3     1  UNL1        0.0470
      7  C          6.3590    0.2370   -0.5530 C.2     1  UNL1       -0.0470
      8  C          6.1300   -0.1940    0.7330 C.2     1  UNL1        0.0040
      9  C          5.8510    1.4430   -0.9760 C.2     1  UNL1        0.0040
     10  C          5.3750    0.6310    1.5680 C.2     1  UNL1        0.0000
     11  C          5.1040    2.2580   -0.1480 C.2     1  UNL1        0.0000
     12  C          4.8700    1.8330    1.1410 C.2     1  UNL1        0.0000
@<TRIPOS>BOND
     1     5     4    1
     2     1     6    1
     3     1     2    1
     4     6     7    1
     5     4     2    1
     6     2     3    2
     7     9     7    2
     8     9    11    1
     9     7     8    1
    10    11    12    2
    11     8    10    2
    12    12    10    1
