@<TRIPOS>MOLECULE
/home/cewinharhar/GITHUB/reincatalyze/data/processed/docking_pred/2023-Apr-26-1657_maxeplen10_maxtrainstep1000_exh32_gamma099_lrac9e-4_lrcr1e-3/fbb46063794dc265e75c2cefc4e8ae8bb502d9b1_ligand_2.pdbqt
 12 12 0 0 0
SMALL
GASTEIGER

@<TRIPOS>ATOM
      1  C          8.4370   -0.6070   -2.1640 C.3     1  UNL1        0.1270
      2  C          8.4830   -1.8890   -2.9060 C.2     1  UNL1        0.3030
      3  O          9.5660   -2.4990   -3.0850 O.2     1  UNL1       -0.2520
      4  O          7.3270   -2.4520   -3.4230 O.3     1  UNL1       -0.4810
      5  H          6.4740   -1.8880   -3.4720 H       1  UNL1        0.2960
      6  C          7.0170   -0.1280   -2.1400 C.3     1  UNL1        0.0470
      7  C          6.4750    0.0570   -0.7950 C.2     1  UNL1       -0.0470
      8  C          5.8320    1.2240   -0.4500 C.2     1  UNL1        0.0040
      9  C          6.6120   -0.9520    0.1290 C.2     1  UNL1        0.0040
     10  C          5.3380    1.3310    0.8520 C.2     1  UNL1        0.0000
     11  C          6.1240   -0.8440    1.4160 C.2     1  UNL1        0.0000
     12  C          5.4790    0.3210    1.7700 C.2     1  UNL1        0.0000
@<TRIPOS>BOND
     1     5     4    1
     2     4     2    1
     3     3     2    2
     4     2     1    1
     5     1     6    1
     6     6     7    1
     7     7     8    2
     8     7     9    1
     9     8    10    1
    10     9    11    2
    11    10    12    2
    12    11    12    1
