@<TRIPOS>MOLECULE
/home/cewinharhar/GITHUB/reincatalyze/data/processed/docking_pred/2023-Apr-26-1657_maxeplen10_maxtrainstep1000_exh32_gamma099_lrac9e-4_lrcr1e-3/fbb46063794dc265e75c2cefc4e8ae8bb502d9b1_ligand_2.pdbqt
 12 12 0 0 0
SMALL
GASTEIGER

@<TRIPOS>ATOM
      1  C          8.4750   -0.6900   -2.0530 C.3     1  UNL1        0.1270
      2  C          8.4800   -1.9300   -2.8650 C.2     1  UNL1        0.3030
      3  O          9.5420   -2.5630   -3.0810 O.2     1  UNL1       -0.2520
      4  O          7.3060   -2.4250   -3.4100 O.3     1  UNL1       -0.4810
      5  H          6.6210   -1.7730   -3.8020 H       1  UNL1        0.2960
      6  C          7.0890   -0.1220   -2.0670 C.3     1  UNL1        0.0470
      7  C          6.5010    0.0460   -0.7390 C.2     1  UNL1       -0.0470
      8  C          6.6100   -0.9440    0.2090 C.2     1  UNL1        0.0040
      9  C          5.8360    1.2130   -0.4430 C.2     1  UNL1        0.0040
     10  C          6.0260   -0.7150    1.4570 C.2     1  UNL1        0.0000
     11  C          5.2580    1.4390    0.7910 C.2     1  UNL1        0.0000
     12  C          5.3620    0.4510    1.7460 C.2     1  UNL1        0.0000
@<TRIPOS>BOND
     1     5     4    1
     2     4     2    1
     3     3     2    2
     4     2     1    1
     5     6     1    1
     6     6     7    1
     7     7     9    2
     8     7     8    1
     9     9    11    1
    10     8    10    2
    11    11    12    2
    12    10    12    1
