@<TRIPOS>MOLECULE
/home/cewinharhar/GITHUB/reincatalyze/data/processed/docking_pred/2023-Apr-26-1657_maxeplen10_maxtrainstep1000_exh32_gamma099_lrac9e-4_lrcr1e-3/fbb46063794dc265e75c2cefc4e8ae8bb502d9b1_ligand_2.pdbqt
 12 12 0 0 0
SMALL
GASTEIGER

@<TRIPOS>ATOM
      1  C          8.2630   -1.5200    1.0310 C.3     1  UNL1        0.1270
      2  C          8.5110   -2.7740    0.2810 C.2     1  UNL1        0.3030
      3  O          9.1110   -3.7410    0.8110 O.2     1  UNL1       -0.2520
      4  O          8.0860   -2.9120   -1.0300 O.3     1  UNL1       -0.4810
      5  H          7.3800   -2.2690   -1.3990 H       1  UNL1        0.2960
      6  C          6.7900   -1.4040    1.2800 C.3     1  UNL1        0.0470
      7  C          6.2010   -0.1600    0.7880 C.2     1  UNL1       -0.0470
      8  C          5.4220    0.6230    1.6090 C.2     1  UNL1        0.0040
      9  C          6.4340    0.2260   -0.5120 C.2     1  UNL1        0.0040
     10  C          4.8920    1.7980    1.0720 C.2     1  UNL1        0.0000
     11  C          5.9090    1.3880   -1.0410 C.2     1  UNL1        0.0000
     12  C          5.1280    2.1770   -0.2260 C.2     1  UNL1        0.0000
@<TRIPOS>BOND
     1     5     4    1
     2    11     9    1
     3    11    12    2
     4     4     2    1
     5     9     7    2
     6    12    10    1
     7     2     3    2
     8     2     1    1
     9     7     6    1
    10     7     8    1
    11     1     6    1
    12    10     8    2
