MODEL 1
REMARK VINA RESULT:      -7.3      0.000      0.000
REMARK SMILES O=C(O)CCc1ccccc1
REMARK SMILES IDX 4 1 2 2 1 3 3 4 5 6 6 7 7 8 11 9 8 10 10 11 9 12
REMARK H PARENT 3 5
REMARK Flexibility Score: inf
ROOT
ATOM      1  C   UNL     1       8.475  -0.690  -2.053  1.00  0.00     0.127 C 
ENDROOT
BRANCH   1   2
ATOM      2  C   UNL     1       8.480  -1.930  -2.865  1.00  0.00     0.303 C 
ATOM      3  O   UNL     1       9.542  -2.563  -3.081  1.00  0.00    -0.252 OA
BRANCH   2   4
ATOM      4  O   UNL     1       7.306  -2.425  -3.410  1.00  0.00    -0.481 OA
ATOM      5  H   UNL     1       6.621  -1.773  -3.802  1.00  0.00     0.296 HD
ENDBRANCH   2   4
ENDBRANCH   1   2
BRANCH   1   6
ATOM      6  C   UNL     1       7.089  -0.122  -2.067  1.00  0.00     0.047 C 
BRANCH   6   7
ATOM      7  C   UNL     1       6.501   0.046  -0.739  1.00  0.00    -0.047 A 
ATOM      8  C   UNL     1       6.610  -0.944   0.209  1.00  0.00     0.004 A 
ATOM      9  C   UNL     1       5.836   1.213  -0.443  1.00  0.00     0.004 A 
ATOM     10  C   UNL     1       6.026  -0.715   1.457  1.00  0.00     0.000 A 
ATOM     11  C   UNL     1       5.258   1.439   0.791  1.00  0.00     0.000 A 
ATOM     12  C   UNL     1       5.362   0.451   1.746  1.00  0.00     0.000 A 
ENDBRANCH   6   7
ENDBRANCH   1   6
TORSDOF 4
ENDMDL
MODEL 2
REMARK VINA RESULT:      -7.3      0.110      1.440
REMARK SMILES O=C(O)CCc1ccccc1
REMARK SMILES IDX 4 1 2 2 1 3 3 4 5 6 6 7 7 8 11 9 8 10 10 11 9 12
REMARK H PARENT 3 5
REMARK Flexibility Score: inf
ROOT
ATOM      1  C   UNL     1       8.437  -0.607  -2.164  1.00  0.00     0.127 C 
ENDROOT
BRANCH   1   2
ATOM      2  C   UNL     1       8.483  -1.889  -2.906  1.00  0.00     0.303 C 
ATOM      3  O   UNL     1       9.566  -2.499  -3.085  1.00  0.00    -0.252 OA
BRANCH   2   4
ATOM      4  O   UNL     1       7.327  -2.452  -3.423  1.00  0.00    -0.481 OA
ATOM      5  H   UNL     1       6.474  -1.888  -3.472  1.00  0.00     0.296 HD
ENDBRANCH   2   4
ENDBRANCH   1   2
BRANCH   1   6
ATOM      6  C   UNL     1       7.017  -0.128  -2.140  1.00  0.00     0.047 C 
BRANCH   6   7
ATOM      7  C   UNL     1       6.475   0.057  -0.795  1.00  0.00    -0.047 A 
ATOM      8  C   UNL     1       5.832   1.224  -0.450  1.00  0.00     0.004 A 
ATOM      9  C   UNL     1       6.612  -0.952   0.129  1.00  0.00     0.004 A 
ATOM     10  C   UNL     1       5.338   1.331   0.852  1.00  0.00     0.000 A 
ATOM     11  C   UNL     1       6.124  -0.844   1.416  1.00  0.00     0.000 A 
ATOM     12  C   UNL     1       5.479   0.321   1.770  1.00  0.00     0.000 A 
ENDBRANCH   6   7
ENDBRANCH   1   6
TORSDOF 4
ENDMDL
MODEL 3
REMARK VINA RESULT:      -6.8      3.367      5.072
REMARK SMILES O=C(O)CCc1ccccc1
REMARK SMILES IDX 4 1 2 2 1 3 3 4 5 6 6 7 7 8 11 9 8 10 10 11 9 12
REMARK H PARENT 3 5
REMARK Flexibility Score: inf
ROOT
ATOM      1  C   UNL     1       5.001   1.804   0.707  1.00  0.00     0.127 C 
ENDROOT
BRANCH   1   2
ATOM      2  C   UNL     1       4.486   1.116   1.914  1.00  0.00     0.303 C 
ATOM      3  O   UNL     1       5.145   0.208   2.477  1.00  0.00    -0.252 OA
BRANCH   2   4
ATOM      4  O   UNL     1       3.258   1.459   2.456  1.00  0.00    -0.481 OA
ATOM      5  H   UNL     1       2.401   1.109   2.017  1.00  0.00     0.296 HD
ENDBRANCH   2   4
ENDBRANCH   1   2
BRANCH   1   6
ATOM      6  C   UNL     1       6.499   1.783   0.756  1.00  0.00     0.047 C 
BRANCH   6   7
ATOM      7  C   UNL     1       7.119   1.036  -0.336  1.00  0.00    -0.047 A 
ATOM      8  C   UNL     1       6.386   0.145  -1.085  1.00  0.00     0.004 A 
ATOM      9  C   UNL     1       8.453   1.234  -0.613  1.00  0.00     0.004 A 
ATOM     10  C   UNL     1       7.044  -0.534  -2.113  1.00  0.00     0.000 A 
ATOM     11  C   UNL     1       9.101   0.562  -1.629  1.00  0.00     0.000 A 
ATOM     12  C   UNL     1       8.374  -0.333  -2.384  1.00  0.00     0.000 A 
ENDBRANCH   6   7
ENDBRANCH   1   6
TORSDOF 4
ENDMDL
MODEL 4
REMARK VINA RESULT:      -6.7      1.931      2.288
REMARK SMILES O=C(O)CCc1ccccc1
REMARK SMILES IDX 4 1 2 2 1 3 3 4 5 6 6 7 7 8 11 9 8 10 10 11 9 12
REMARK H PARENT 3 5
REMARK Flexibility Score: inf
ROOT
ATOM      1  C   UNL     1       8.235   0.181  -2.179  1.00  0.00     0.127 C 
ENDROOT
BRANCH   1   2
ATOM      2  C   UNL     1       9.366   0.334  -1.234  1.00  0.00     0.303 C 
ATOM      3  O   UNL     1       9.470  -0.397  -0.218  1.00  0.00    -0.252 OA
BRANCH   2   4
ATOM      4  O   UNL     1      10.344   1.293  -1.447  1.00  0.00    -0.481 OA
ATOM      5  H   UNL     1      10.525   1.620  -2.400  1.00  0.00     0.296 HD
ENDBRANCH   2   4
ENDBRANCH   1   2
BRANCH   1   6
ATOM      6  C   UNL     1       7.142  -0.573  -1.485  1.00  0.00     0.047 C 
BRANCH   6   7
ATOM      7  C   UNL     1       6.359   0.237  -0.553  1.00  0.00    -0.047 A 
ATOM      8  C   UNL     1       6.130  -0.194   0.733  1.00  0.00     0.004 A 
ATOM      9  C   UNL     1       5.851   1.443  -0.976  1.00  0.00     0.004 A 
ATOM     10  C   UNL     1       5.375   0.631   1.568  1.00  0.00     0.000 A 
ATOM     11  C   UNL     1       5.104   2.258  -0.148  1.00  0.00     0.000 A 
ATOM     12  C   UNL     1       4.870   1.833   1.141  1.00  0.00     0.000 A 
ENDBRANCH   6   7
ENDBRANCH   1   6
TORSDOF 4
ENDMDL
MODEL 5
REMARK VINA RESULT:      -6.5      1.861      2.782
REMARK SMILES O=C(O)CCc1ccccc1
REMARK SMILES IDX 4 1 2 2 1 3 3 4 5 6 6 7 7 8 11 9 8 10 10 11 9 12
REMARK H PARENT 3 5
REMARK Flexibility Score: inf
ROOT
ATOM      1  C   UNL     1       8.263  -1.520   1.031  1.00  0.00     0.127 C 
ENDROOT
BRANCH   1   2
ATOM      2  C   UNL     1       8.511  -2.774   0.281  1.00  0.00     0.303 C 
ATOM      3  O   UNL     1       9.111  -3.741   0.811  1.00  0.00    -0.252 OA
BRANCH   2   4
ATOM      4  O   UNL     1       8.086  -2.912  -1.030  1.00  0.00    -0.481 OA
ATOM      5  H   UNL     1       7.380  -2.269  -1.399  1.00  0.00     0.296 HD
ENDBRANCH   2   4
ENDBRANCH   1   2
BRANCH   1   6
ATOM      6  C   UNL     1       6.790  -1.404   1.280  1.00  0.00     0.047 C 
BRANCH   6   7
ATOM      7  C   UNL     1       6.201  -0.160   0.788  1.00  0.00    -0.047 A 
ATOM      8  C   UNL     1       5.422   0.623   1.609  1.00  0.00     0.004 A 
ATOM      9  C   UNL     1       6.434   0.226  -0.512  1.00  0.00     0.004 A 
ATOM     10  C   UNL     1       4.892   1.798   1.072  1.00  0.00     0.000 A 
ATOM     11  C   UNL     1       5.909   1.388  -1.041  1.00  0.00     0.000 A 
ATOM     12  C   UNL     1       5.128   2.177  -0.226  1.00  0.00     0.000 A 
ENDBRANCH   6   7
ENDBRANCH   1   6
TORSDOF 4
ENDMDL
