@<TRIPOS>MOLECULE
/home/cewinharhar/GITHUB/reincatalyze/data/processed/docking_pred/2023-Apr-26-1657_maxeplen10_maxtrainstep1000_exh32_gamma099_lrac9e-4_lrcr1e-3/fc1d4194c005f01296b9c57c803e441f6dc40ccd_ligand_2.pdbqt
 12 12 0 0 0
SMALL
GASTEIGER

@<TRIPOS>ATOM
      1  C          8.1220    0.2980   -2.1060 C.3     1  UNL1        0.1270
      2  C          9.3080    0.3910   -1.2220 C.2     1  UNL1        0.3030
      3  O          9.4580   -0.3900   -0.2500 O.2     1  UNL1       -0.2520
      4  O         10.2870    1.3450   -1.4460 O.3     1  UNL1       -0.4810
      5  H         10.1350    2.0610   -2.1620 H       1  UNL1        0.2960
      6  C          7.0910   -0.5480   -1.4220 C.3     1  UNL1        0.0470
      7  C          6.3170    0.1630   -0.4070 C.2     1  UNL1       -0.0470
      8  C          5.7750    1.4000   -0.6740 C.2     1  UNL1        0.0040
      9  C          6.1300   -0.4190    0.8250 C.2     1  UNL1        0.0040
     10  C          5.0460    2.0210    0.3430 C.2     1  UNL1        0.0000
     11  C          5.4090    0.1970    1.8290 C.2     1  UNL1        0.0000
     12  C          4.8640    1.4360    1.5700 C.2     1  UNL1        0.0000
@<TRIPOS>BOND
     1     5     4    1
     2     1     6    1
     3     1     2    1
     4     4     2    1
     5     6     7    1
     6     2     3    2
     7     8     7    2
     8     8    10    1
     9     7     9    1
    10    10    12    2
    11     9    11    2
    12    12    11    1
