@<TRIPOS>MOLECULE
/home/cewinharhar/GITHUB/reincatalyze/data/processed/docking_pred/2023-Apr-26-1657_maxeplen10_maxtrainstep1000_exh32_gamma099_lrac9e-4_lrcr1e-3/fc1d4194c005f01296b9c57c803e441f6dc40ccd_ligand_2.pdbqt
 12 12 0 0 0
SMALL
GASTEIGER

@<TRIPOS>ATOM
      1  C          8.4180   -0.5920   -2.1840 C.3     1  UNL1        0.1270
      2  C          8.4650   -1.8820   -2.9120 C.2     1  UNL1        0.3030
      3  O          9.5490   -2.4910   -3.0860 O.2     1  UNL1       -0.2520
      4  O          7.3100   -2.4520   -3.4210 O.3     1  UNL1       -0.4810
      5  H          6.9410   -2.1220   -4.3180 H       1  UNL1        0.2960
      6  C          6.9950   -0.1230   -2.1480 C.3     1  UNL1        0.0470
      7  C          6.4640    0.0600   -0.7980 C.2     1  UNL1       -0.0470
      8  C          5.8350    1.2310   -0.4430 C.2     1  UNL1        0.0040
      9  C          6.5970   -0.9560    0.1190 C.2     1  UNL1        0.0040
     10  C          5.3510    1.3360    0.8630 C.2     1  UNL1        0.0000
     11  C          6.1180   -0.8500    1.4100 C.2     1  UNL1        0.0000
     12  C          5.4870    0.3190    1.7750 C.2     1  UNL1        0.0000
@<TRIPOS>BOND
     1     5     4    1
     2     4     2    1
     3     3     2    2
     4     2     1    1
     5     1     6    1
     6     6     7    1
     7     7     8    2
     8     7     9    1
     9     8    10    1
    10     9    11    2
    11    10    12    2
    12    11    12    1
