@<TRIPOS>MOLECULE
/home/cewinharhar/GITHUB/reincatalyze/data/processed/docking_pred/2023-Apr-26-1657_maxeplen10_maxtrainstep1000_exh32_gamma099_lrac9e-4_lrcr1e-3/fc1d4194c005f01296b9c57c803e441f6dc40ccd_ligand_2.pdbqt
 12 12 0 0 0
SMALL
GASTEIGER

@<TRIPOS>ATOM
      1  C          5.5880    2.9210   -0.0270 C.3     1  UNL1        0.1270
      2  C          6.3240    3.8500    0.8630 C.2     1  UNL1        0.3030
      3  O          6.1570    3.8270    2.1070 O.2     1  UNL1       -0.2520
      4  O          7.2180    4.7720    0.3430 O.3     1  UNL1       -0.4810
      5  H          7.9300    4.4590   -0.3220 H       1  UNL1        0.2960
      6  C          4.9420    1.8680    0.8210 C.3     1  UNL1        0.0470
      7  C          5.6990    0.6190    0.8960 C.2     1  UNL1       -0.0470
      8  C          6.3080    0.0980   -0.2210 C.2     1  UNL1        0.0040
      9  C          5.7990   -0.0330    2.1030 C.2     1  UNL1        0.0040
     10  C          7.0150   -1.0980   -0.0760 C.2     1  UNL1        0.0000
     11  C          6.4980   -1.2150    2.2450 C.2     1  UNL1        0.0000
     12  C          7.1110   -1.7450    1.1300 C.2     1  UNL1        0.0000
@<TRIPOS>BOND
     1     5     4    1
     2     8    10    1
     3     8     7    2
     4    10    12    2
     5     1     6    1
     6     1     2    1
     7     4     2    1
     8     6     7    1
     9     2     3    2
    10     7     9    1
    11    12    11    1
    12     9    11    2
