@<TRIPOS>MOLECULE
/home/cewinharhar/GITHUB/reincatalyze/data/processed/docking_pred/2023-Apr-26-1657_maxeplen10_maxtrainstep1000_exh32_gamma099_lrac9e-4_lrcr1e-3/fc1d4194c005f01296b9c57c803e441f6dc40ccd_ligand_2.pdbqt
 12 12 0 0 0
SMALL
GASTEIGER

@<TRIPOS>ATOM
      1  C          4.9820    1.7590    0.6710 C.3     1  UNL1        0.1270
      2  C          4.4860    1.1000    1.9010 C.2     1  UNL1        0.3030
      3  O          5.1550    0.2060    2.4760 O.2     1  UNL1       -0.2520
      4  O          3.2650    1.4530    2.4530 O.3     1  UNL1       -0.4810
      5  H          3.1690    2.3590    2.9190 H       1  UNL1        0.2960
      6  C          6.4790    1.7770    0.7170 C.3     1  UNL1        0.0470
      7  C          7.1160    1.0190   -0.3580 C.2     1  UNL1       -0.0470
      8  C          6.3930    0.1220   -1.1110 C.2     1  UNL1        0.0040
      9  C          8.4540    1.2120   -0.6150 C.2     1  UNL1        0.0040
     10  C          7.0670   -0.5670   -2.1220 C.2     1  UNL1        0.0000
     11  C          9.1180    0.5300   -1.6150 C.2     1  UNL1        0.0000
     12  C          8.4010   -0.3700   -2.3730 C.2     1  UNL1        0.0000
@<TRIPOS>BOND
     1    12    10    2
     2    12    11    1
     3    10     8    1
     4    11     9    2
     5     8     7    2
     6     9     7    1
     7     7     6    1
     8     1     6    1
     9     1     2    1
    10     2     4    1
    11     2     3    2
    12     4     5    1
