@<TRIPOS>MOLECULE
/home/cewinharhar/GITHUB/reincatalyze/data/processed/docking_pred/2023-Apr-26-1657_maxeplen10_maxtrainstep1000_exh32_gamma099_lrac9e-4_lrcr1e-3/fc1d4194c005f01296b9c57c803e441f6dc40ccd_ligand_2.pdbqt
 12 12 0 0 0
SMALL
GASTEIGER

@<TRIPOS>ATOM
      1  C          8.4390   -0.5760   -2.2050 C.3     1  UNL1        0.1270
      2  C          8.4900   -1.8710   -2.9240 C.2     1  UNL1        0.3030
      3  O          9.5760   -2.4760   -3.0990 O.2     1  UNL1       -0.2520
      4  O          7.3350   -2.4500   -3.4250 O.3     1  UNL1       -0.4810
      5  H          7.1020   -2.3300   -4.4140 H       1  UNL1        0.2960
      6  C          7.0130   -0.1190   -2.1580 C.3     1  UNL1        0.0470
      7  C          6.4840    0.0390   -0.8050 C.2     1  UNL1       -0.0470
      8  C          6.6250   -0.9630    0.1270 C.2     1  UNL1        0.0040
      9  C          5.8410    1.2080   -0.4670 C.2     1  UNL1        0.0040
     10  C          6.0950   -0.7430    1.4010 C.2     1  UNL1        0.0000
     11  C          5.3180    1.4230    0.7920 C.2     1  UNL1        0.0000
     12  C          5.4540    0.4240    1.7310 C.2     1  UNL1        0.0000
@<TRIPOS>BOND
     1     5     4    1
     2     4     2    1
     3     3     2    2
     4     2     1    1
     5     1     6    1
     6     6     7    1
     7     7     9    2
     8     7     8    1
     9     9    11    1
    10     8    10    2
    11    11    12    2
    12    10    12    1
