@<TRIPOS>MOLECULE
/home/cewinharhar/GITHUB/reincatalyze/data/processed/docking_pred/2023-Apr-26-1657_maxeplen10_maxtrainstep1000_exh32_gamma099_lrac9e-4_lrcr1e-3/fd0126b23dad862f417327e64da043fff24e40de_ligand_2.pdbqt
 12 12 0 0 0
SMALL
GASTEIGER

@<TRIPOS>ATOM
      1  C          5.0530    1.7430    0.6900 C.3     1  UNL1        0.1270
      2  C          4.5920    1.0530    1.9170 C.2     1  UNL1        0.3030
      3  O          5.3070    0.1910    2.4860 O.2     1  UNL1       -0.2520
      4  O          3.3560    1.3410    2.4720 O.3     1  UNL1       -0.4810
      5  H          2.8560    0.6110    2.9880 H       1  UNL1        0.2960
      6  C          6.5510    1.7890    0.7100 C.3     1  UNL1        0.0470
      7  C          7.1840    1.0250   -0.3630 C.2     1  UNL1       -0.0470
      8  C          8.5130    1.2070   -0.6670 C.2     1  UNL1        0.0040
      9  C          6.4340    0.1130   -1.0710 C.2     1  UNL1        0.0040
     10  C          9.0520    0.4420   -1.7040 C.2     1  UNL1        0.0000
     11  C          6.9680   -0.6420   -2.0950 C.2     1  UNL1        0.0000
     12  C          8.2990   -0.4650   -2.4070 C.2     1  UNL1        0.0000
@<TRIPOS>BOND
     1    12    11    2
     2    12    10    1
     3    11     9    1
     4    10     8    2
     5     9     7    2
     6     8     7    1
     7     7     6    1
     8     1     6    1
     9     1     2    1
    10     2     4    1
    11     2     3    2
    12     4     5    1
