@<TRIPOS>MOLECULE
/home/cewinharhar/GITHUB/reincatalyze/data/processed/docking_pred/2023-Apr-26-1657_maxeplen10_maxtrainstep1000_exh32_gamma099_lrac9e-4_lrcr1e-3/fd0126b23dad862f417327e64da043fff24e40de_ligand_2.pdbqt
 12 12 0 0 0
SMALL
GASTEIGER

@<TRIPOS>ATOM
      1  C          8.1660    0.2590   -2.1000 C.3     1  UNL1        0.1270
      2  C          9.3470    0.3600   -1.2100 C.2     1  UNL1        0.3030
      3  O          9.4740   -0.3910   -0.2110 O.2     1  UNL1       -0.2520
      4  O         10.3450    1.2890   -1.4570 O.3     1  UNL1       -0.4810
      5  H         10.5730    1.5340   -2.4240 H       1  UNL1        0.2960
      6  C          7.1340   -0.5870   -1.4200 C.3     1  UNL1        0.0470
      7  C          6.3470    0.1270   -0.4170 C.2     1  UNL1       -0.0470
      8  C          6.1500   -0.4090    0.8350 C.2     1  UNL1        0.0040
      9  C          5.8030    1.3490   -0.7360 C.2     1  UNL1        0.0040
     10  C          5.3880    0.3300    1.7430 C.2     1  UNL1        0.0000
     11  C          5.0490    2.0780    0.1630 C.2     1  UNL1        0.0000
     12  C          4.8460    1.5480    1.4190 C.2     1  UNL1        0.0000
@<TRIPOS>BOND
     1     5     4    1
     2     1     6    1
     3     1     2    1
     4     4     2    1
     5     6     7    1
     6     2     3    2
     7     9     7    2
     8     9    11    1
     9     7     8    1
    10    11    12    2
    11     8    10    2
    12    12    10    1
