@<TRIPOS>MOLECULE
/home/cewinharhar/GITHUB/reincatalyze/data/processed/docking_pred/2023-Apr-26-1657_maxeplen10_maxtrainstep1000_exh32_gamma099_lrac9e-4_lrcr1e-3/fd0126b23dad862f417327e64da043fff24e40de_ligand_2.pdbqt
 12 12 0 0 0
SMALL
GASTEIGER

@<TRIPOS>ATOM
      1  C          8.4290   -0.6520   -2.1260 C.3     1  UNL1        0.1270
      2  C          8.4700   -1.9120   -2.9060 C.2     1  UNL1        0.3030
      3  O          9.5490   -2.5270   -3.0910 O.2     1  UNL1       -0.2520
      4  O          7.3150   -2.4460   -3.4540 O.3     1  UNL1       -0.4810
      5  H          6.6240   -2.8830   -2.8380 H       1  UNL1        0.2960
      6  C          7.0170   -0.1520   -2.1150 C.3     1  UNL1        0.0470
      7  C          6.4680    0.0500   -0.7750 C.2     1  UNL1       -0.0470
      8  C          5.8300    1.2230   -0.4460 C.2     1  UNL1        0.0040
      9  C          6.5950   -0.9510    0.1600 C.2     1  UNL1        0.0040
     10  C          5.3300    1.3470    0.8530 C.2     1  UNL1        0.0000
     11  C          6.1000   -0.8270    1.4430 C.2     1  UNL1        0.0000
     12  C          5.4600    0.3450    1.7810 C.2     1  UNL1        0.0000
@<TRIPOS>BOND
     1     4     2    1
     2     4     5    1
     3     3     2    2
     4     2     1    1
     5     1     6    1
     6     6     7    1
     7     7     8    2
     8     7     9    1
     9     8    10    1
    10     9    11    2
    11    10    12    2
    12    11    12    1
