@<TRIPOS>MOLECULE
/home/cewinharhar/GITHUB/reincatalyze/data/processed/docking_pred/2023-Apr-26-1657_maxeplen10_maxtrainstep1000_exh32_gamma099_lrac9e-4_lrcr1e-3/fd0126b23dad862f417327e64da043fff24e40de_ligand_2.pdbqt
 12 12 0 0 0
SMALL
GASTEIGER

@<TRIPOS>ATOM
      1  C          8.4640   -0.6060   -2.1620 C.3     1  UNL1        0.1270
      2  C          8.4780   -1.8930   -2.8980 C.2     1  UNL1        0.3030
      3  O          9.5430   -2.5400   -3.0570 O.2     1  UNL1       -0.2520
      4  O          7.3120   -2.4180   -3.4310 O.3     1  UNL1       -0.4810
      5  H          6.7620   -3.0810   -2.8780 H       1  UNL1        0.2960
      6  C          7.0550   -0.0990   -2.1270 C.3     1  UNL1        0.0470
      7  C          6.5050    0.0380   -0.7800 C.2     1  UNL1       -0.0470
      8  C          6.6240   -0.9820    0.1350 C.2     1  UNL1        0.0040
      9  C          5.8650    1.2050   -0.4310 C.2     1  UNL1        0.0040
     10  C          6.0760   -0.7820    1.4040 C.2     1  UNL1        0.0000
     11  C          5.3240    1.4010    0.8240 C.2     1  UNL1        0.0000
     12  C          5.4380    0.3840    1.7460 C.2     1  UNL1        0.0000
@<TRIPOS>BOND
     1     4     2    1
     2     4     5    1
     3     3     2    2
     4     2     1    1
     5     1     6    1
     6     6     7    1
     7     7     9    2
     8     7     8    1
     9     9    11    1
    10     8    10    2
    11    11    12    2
    12    10    12    1
