@<TRIPOS>MOLECULE
/home/cewinharhar/GITHUB/reincatalyze/data/processed/docking_pred/2023-Apr-26-1657_maxeplen10_maxtrainstep1000_exh32_gamma099_lrac9e-4_lrcr1e-3/fd0126b23dad862f417327e64da043fff24e40de_ligand_2.pdbqt
 12 12 0 0 0
SMALL
GASTEIGER

@<TRIPOS>ATOM
      1  C          5.3320    2.9920    0.0590 C.3     1  UNL1        0.1270
      2  C          6.2230    3.8820    0.8390 C.2     1  UNL1        0.3030
      3  O          6.9070    4.7730    0.2770 O.2     1  UNL1       -0.2520
      4  O          6.3270    3.7540    2.2150 O.3     1  UNL1       -0.4810
      5  H          6.3630    4.5970    2.7950 H       1  UNL1        0.2960
      6  C          5.1980    1.6950    0.7970 C.3     1  UNL1        0.0470
      7  C          5.9780    0.6000    0.2210 C.2     1  UNL1       -0.0470
      8  C          6.4010   -0.4490    1.0030 C.2     1  UNL1        0.0040
      9  C          6.2850    0.6280   -1.1190 C.2     1  UNL1        0.0040
     10  C          7.1400   -1.4610    0.3860 C.2     1  UNL1        0.0000
     11  C          7.0160   -0.3730   -1.7280 C.2     1  UNL1        0.0000
     12  C          7.4440   -1.4280   -0.9520 C.2     1  UNL1        0.0000
@<TRIPOS>BOND
     1    11     9    1
     2    11    12    2
     3     9     7    2
     4    12    10    1
     5     1     6    1
     6     1     2    1
     7     7     6    1
     8     7     8    1
     9     3     2    2
    10    10     8    2
    11     2     4    1
    12     4     5    1
