MODEL 1
REMARK VINA RESULT:      -7.3      0.000      0.000
REMARK SMILES O=C(O)CCc1ccccc1
REMARK SMILES IDX 4 1 2 2 1 3 3 4 5 6 6 7 7 8 11 9 8 10 10 11 9 12
REMARK H PARENT 3 5
REMARK Flexibility Score: inf
ROOT
ATOM      1  C   UNL     1       8.464  -0.606  -2.162  1.00  0.00     0.127 C 
ENDROOT
BRANCH   1   2
ATOM      2  C   UNL     1       8.478  -1.893  -2.898  1.00  0.00     0.303 C 
ATOM      3  O   UNL     1       9.543  -2.540  -3.057  1.00  0.00    -0.252 OA
BRANCH   2   4
ATOM      4  O   UNL     1       7.312  -2.418  -3.431  1.00  0.00    -0.481 OA
ATOM      5  H   UNL     1       6.762  -3.081  -2.878  1.00  0.00     0.296 HD
ENDBRANCH   2   4
ENDBRANCH   1   2
BRANCH   1   6
ATOM      6  C   UNL     1       7.055  -0.099  -2.127  1.00  0.00     0.047 C 
BRANCH   6   7
ATOM      7  C   UNL     1       6.505   0.038  -0.780  1.00  0.00    -0.047 A 
ATOM      8  C   UNL     1       6.624  -0.982   0.135  1.00  0.00     0.004 A 
ATOM      9  C   UNL     1       5.865   1.205  -0.431  1.00  0.00     0.004 A 
ATOM     10  C   UNL     1       6.076  -0.782   1.404  1.00  0.00     0.000 A 
ATOM     11  C   UNL     1       5.324   1.401   0.824  1.00  0.00     0.000 A 
ATOM     12  C   UNL     1       5.438   0.384   1.746  1.00  0.00     0.000 A 
ENDBRANCH   6   7
ENDBRANCH   1   6
TORSDOF 4
ENDMDL
MODEL 2
REMARK VINA RESULT:      -7.3      0.052      1.437
REMARK SMILES O=C(O)CCc1ccccc1
REMARK SMILES IDX 4 1 2 2 1 3 3 4 5 6 6 7 7 8 11 9 8 10 10 11 9 12
REMARK H PARENT 3 5
REMARK Flexibility Score: inf
ROOT
ATOM      1  C   UNL     1       8.429  -0.652  -2.126  1.00  0.00     0.127 C 
ENDROOT
BRANCH   1   2
ATOM      2  C   UNL     1       8.470  -1.912  -2.906  1.00  0.00     0.303 C 
ATOM      3  O   UNL     1       9.549  -2.527  -3.091  1.00  0.00    -0.252 OA
BRANCH   2   4
ATOM      4  O   UNL     1       7.315  -2.446  -3.454  1.00  0.00    -0.481 OA
ATOM      5  H   UNL     1       6.624  -2.883  -2.838  1.00  0.00     0.296 HD
ENDBRANCH   2   4
ENDBRANCH   1   2
BRANCH   1   6
ATOM      6  C   UNL     1       7.017  -0.152  -2.115  1.00  0.00     0.047 C 
BRANCH   6   7
ATOM      7  C   UNL     1       6.468   0.050  -0.775  1.00  0.00    -0.047 A 
ATOM      8  C   UNL     1       5.830   1.223  -0.446  1.00  0.00     0.004 A 
ATOM      9  C   UNL     1       6.595  -0.951   0.160  1.00  0.00     0.004 A 
ATOM     10  C   UNL     1       5.330   1.347   0.853  1.00  0.00     0.000 A 
ATOM     11  C   UNL     1       6.100  -0.827   1.443  1.00  0.00     0.000 A 
ATOM     12  C   UNL     1       5.460   0.345   1.781  1.00  0.00     0.000 A 
ENDBRANCH   6   7
ENDBRANCH   1   6
TORSDOF 4
ENDMDL
MODEL 3
REMARK VINA RESULT:      -6.7      3.340      5.036
REMARK SMILES O=C(O)CCc1ccccc1
REMARK SMILES IDX 4 1 2 2 1 3 3 4 5 6 6 7 7 8 11 9 8 10 10 11 9 12
REMARK H PARENT 3 5
REMARK Flexibility Score: inf
ROOT
ATOM      1  C   UNL     1       5.053   1.743   0.690  1.00  0.00     0.127 C 
ENDROOT
BRANCH   1   2
ATOM      2  C   UNL     1       4.592   1.053   1.917  1.00  0.00     0.303 C 
ATOM      3  O   UNL     1       5.307   0.191   2.486  1.00  0.00    -0.252 OA
BRANCH   2   4
ATOM      4  O   UNL     1       3.356   1.341   2.472  1.00  0.00    -0.481 OA
ATOM      5  H   UNL     1       2.856   0.611   2.988  1.00  0.00     0.296 HD
ENDBRANCH   2   4
ENDBRANCH   1   2
BRANCH   1   6
ATOM      6  C   UNL     1       6.551   1.789   0.710  1.00  0.00     0.047 C 
BRANCH   6   7
ATOM      7  C   UNL     1       7.184   1.025  -0.363  1.00  0.00    -0.047 A 
ATOM      8  C   UNL     1       8.513   1.207  -0.667  1.00  0.00     0.004 A 
ATOM      9  C   UNL     1       6.434   0.113  -1.071  1.00  0.00     0.004 A 
ATOM     10  C   UNL     1       9.052   0.442  -1.704  1.00  0.00     0.000 A 
ATOM     11  C   UNL     1       6.968  -0.642  -2.095  1.00  0.00     0.000 A 
ATOM     12  C   UNL     1       8.299  -0.465  -2.407  1.00  0.00     0.000 A 
ENDBRANCH   6   7
ENDBRANCH   1   6
TORSDOF 4
ENDMDL
MODEL 4
REMARK VINA RESULT:      -6.6      1.936      2.251
REMARK SMILES O=C(O)CCc1ccccc1
REMARK SMILES IDX 4 1 2 2 1 3 3 4 5 6 6 7 7 8 11 9 8 10 10 11 9 12
REMARK H PARENT 3 5
REMARK Flexibility Score: inf
ROOT
ATOM      1  C   UNL     1       8.166   0.259  -2.100  1.00  0.00     0.127 C 
ENDROOT
BRANCH   1   2
ATOM      2  C   UNL     1       9.347   0.360  -1.210  1.00  0.00     0.303 C 
ATOM      3  O   UNL     1       9.474  -0.391  -0.211  1.00  0.00    -0.252 OA
BRANCH   2   4
ATOM      4  O   UNL     1      10.345   1.289  -1.457  1.00  0.00    -0.481 OA
ATOM      5  H   UNL     1      10.573   1.534  -2.424  1.00  0.00     0.296 HD
ENDBRANCH   2   4
ENDBRANCH   1   2
BRANCH   1   6
ATOM      6  C   UNL     1       7.134  -0.587  -1.420  1.00  0.00     0.047 C 
BRANCH   6   7
ATOM      7  C   UNL     1       6.347   0.127  -0.417  1.00  0.00    -0.047 A 
ATOM      8  C   UNL     1       6.150  -0.409   0.835  1.00  0.00     0.004 A 
ATOM      9  C   UNL     1       5.803   1.349  -0.736  1.00  0.00     0.004 A 
ATOM     10  C   UNL     1       5.388   0.330   1.743  1.00  0.00     0.000 A 
ATOM     11  C   UNL     1       5.049   2.078   0.163  1.00  0.00     0.000 A 
ATOM     12  C   UNL     1       4.846   1.548   1.419  1.00  0.00     0.000 A 
ENDBRANCH   6   7
ENDBRANCH   1   6
TORSDOF 4
ENDMDL
MODEL 5
REMARK VINA RESULT:      -6.6      3.709      4.965
REMARK SMILES O=C(O)CCc1ccccc1
REMARK SMILES IDX 4 1 2 2 1 3 3 4 5 6 6 7 7 8 11 9 8 10 10 11 9 12
REMARK H PARENT 3 5
REMARK Flexibility Score: inf
ROOT
ATOM      1  C   UNL     1       5.332   2.992   0.059  1.00  0.00     0.127 C 
ENDROOT
BRANCH   1   2
ATOM      2  C   UNL     1       6.223   3.882   0.839  1.00  0.00     0.303 C 
ATOM      3  O   UNL     1       6.907   4.773   0.277  1.00  0.00    -0.252 OA
BRANCH   2   4
ATOM      4  O   UNL     1       6.327   3.754   2.215  1.00  0.00    -0.481 OA
ATOM      5  H   UNL     1       6.363   4.597   2.795  1.00  0.00     0.296 HD
ENDBRANCH   2   4
ENDBRANCH   1   2
BRANCH   1   6
ATOM      6  C   UNL     1       5.198   1.695   0.797  1.00  0.00     0.047 C 
BRANCH   6   7
ATOM      7  C   UNL     1       5.978   0.600   0.221  1.00  0.00    -0.047 A 
ATOM      8  C   UNL     1       6.401  -0.449   1.003  1.00  0.00     0.004 A 
ATOM      9  C   UNL     1       6.285   0.628  -1.119  1.00  0.00     0.004 A 
ATOM     10  C   UNL     1       7.140  -1.461   0.386  1.00  0.00     0.000 A 
ATOM     11  C   UNL     1       7.016  -0.373  -1.728  1.00  0.00     0.000 A 
ATOM     12  C   UNL     1       7.444  -1.428  -0.952  1.00  0.00     0.000 A 
ENDBRANCH   6   7
ENDBRANCH   1   6
TORSDOF 4
ENDMDL
