@<TRIPOS>MOLECULE
/home/cewinharhar/GITHUB/reincatalyze/data/processed/docking_pred/2023-Apr-26-1657_maxeplen10_maxtrainstep1000_exh32_gamma099_lrac9e-4_lrcr1e-3/fd751eb3811fc03d22e30b1993ea0072812fb772_ligand_2.pdbqt
 12 12 0 0 0
SMALL
GASTEIGER

@<TRIPOS>ATOM
      1  C          8.4520   -0.5970   -2.1700 C.3     1  UNL1        0.1270
      2  C          8.4790   -1.8810   -2.9090 C.2     1  UNL1        0.3030
      3  O          9.5570   -2.4950   -3.1060 O.2     1  UNL1       -0.2520
      4  O          7.3130   -2.4390   -3.4060 O.3     1  UNL1       -0.4810
      5  H          7.3540   -3.3440   -3.8840 H       1  UNL1        0.2960
      6  C          7.0370   -0.1030   -2.1360 C.3     1  UNL1        0.0470
      7  C          6.4930    0.0500   -0.7880 C.2     1  UNL1       -0.0470
      8  C          6.6100   -0.9620    0.1370 C.2     1  UNL1        0.0040
      9  C          5.8610    1.2240   -0.4490 C.2     1  UNL1        0.0040
     10  C          6.0670   -0.7460    1.4060 C.2     1  UNL1        0.0000
     11  C          5.3250    1.4360    0.8060 C.2     1  UNL1        0.0000
     12  C          5.4370    0.4270    1.7380 C.2     1  UNL1        0.0000
@<TRIPOS>BOND
     1     5     4    1
     2     4     2    1
     3     3     2    2
     4     2     1    1
     5     1     6    1
     6     6     7    1
     7     7     9    2
     8     7     8    1
     9     9    11    1
    10     8    10    2
    11    11    12    2
    12    10    12    1
