@<TRIPOS>MOLECULE
/home/cewinharhar/GITHUB/reincatalyze/data/processed/docking_pred/2023-Apr-26-1657_maxeplen10_maxtrainstep1000_exh32_gamma099_lrac9e-4_lrcr1e-3/fd751eb3811fc03d22e30b1993ea0072812fb772_ligand_2.pdbqt
 12 12 0 0 0
SMALL
GASTEIGER

@<TRIPOS>ATOM
      1  C          8.3260   -0.8780   -1.9160 C.3     1  UNL1        0.1270
      2  C          8.3360   -2.0050   -2.8780 C.2     1  UNL1        0.3030
      3  O          7.2680   -2.4630   -3.3560 O.2     1  UNL1       -0.2520
      4  O          9.5280   -2.5870   -3.2770 O.3     1  UNL1       -0.4810
      5  H         10.0000   -2.2380   -4.1160 H       1  UNL1        0.2960
      6  C          7.5850   -1.3130   -0.6890 C.3     1  UNL1        0.0470
      7  C          6.6870   -0.2970   -0.1440 C.2     1  UNL1       -0.0470
      8  C          6.3210    0.7940   -0.8980 C.2     1  UNL1        0.0040
      9  C          6.2060   -0.4420    1.1370 C.2     1  UNL1        0.0040
     10  C          5.4590    1.7260   -0.3140 C.2     1  UNL1        0.0000
     11  C          5.3550    0.4800    1.7120 C.2     1  UNL1        0.0000
     12  C          4.9830    1.5760    0.9640 C.2     1  UNL1        0.0000
@<TRIPOS>BOND
     1     5     4    1
     2     3     2    2
     3     4     2    1
     4     2     1    1
     5     1     6    1
     6     8    10    1
     7     8     7    2
     8     6     7    1
     9    10    12    2
    10     7     9    1
    11    12    11    1
    12     9    11    2
