MODEL 1
REMARK VINA RESULT:      -7.4      0.000      0.000
REMARK SMILES O=C(O)CCc1ccccc1
REMARK SMILES IDX 4 1 2 2 1 3 3 4 5 6 6 7 7 8 11 9 8 10 10 11 9 12
REMARK H PARENT 3 5
REMARK Flexibility Score: inf
ROOT
ATOM      1  C   UNL     1       8.452  -0.597  -2.170  1.00  0.00     0.127 C 
ENDROOT
BRANCH   1   2
ATOM      2  C   UNL     1       8.479  -1.881  -2.909  1.00  0.00     0.303 C 
ATOM      3  O   UNL     1       9.557  -2.495  -3.106  1.00  0.00    -0.252 OA
BRANCH   2   4
ATOM      4  O   UNL     1       7.313  -2.439  -3.406  1.00  0.00    -0.481 OA
ATOM      5  H   UNL     1       7.354  -3.344  -3.884  1.00  0.00     0.296 HD
ENDBRANCH   2   4
ENDBRANCH   1   2
BRANCH   1   6
ATOM      6  C   UNL     1       7.037  -0.103  -2.136  1.00  0.00     0.047 C 
BRANCH   6   7
ATOM      7  C   UNL     1       6.493   0.050  -0.788  1.00  0.00    -0.047 A 
ATOM      8  C   UNL     1       6.610  -0.962   0.137  1.00  0.00     0.004 A 
ATOM      9  C   UNL     1       5.861   1.224  -0.449  1.00  0.00     0.004 A 
ATOM     10  C   UNL     1       6.067  -0.746   1.406  1.00  0.00     0.000 A 
ATOM     11  C   UNL     1       5.325   1.436   0.806  1.00  0.00     0.000 A 
ATOM     12  C   UNL     1       5.437   0.427   1.738  1.00  0.00     0.000 A 
ENDBRANCH   6   7
ENDBRANCH   1   6
TORSDOF 4
ENDMDL
MODEL 2
REMARK VINA RESULT:      -7.3      0.102      1.731
REMARK SMILES O=C(O)CCc1ccccc1
REMARK SMILES IDX 4 1 2 2 1 3 3 4 5 6 6 7 7 8 11 9 8 10 10 11 9 12
REMARK H PARENT 3 5
REMARK Flexibility Score: inf
ROOT
ATOM      1  C   UNL     1       8.419  -0.630  -2.109  1.00  0.00     0.127 C 
ENDROOT
BRANCH   1   2
ATOM      2  C   UNL     1       8.381  -1.893  -2.883  1.00  0.00     0.303 C 
ATOM      3  O   UNL     1       7.291  -2.414  -3.226  1.00  0.00    -0.252 OA
BRANCH   2   4
ATOM      4  O   UNL     1       9.552  -2.537  -3.249  1.00  0.00    -0.481 OA
ATOM      5  H   UNL     1      10.210  -2.831  -2.522  1.00  0.00     0.296 HD
ENDBRANCH   2   4
ENDBRANCH   1   2
BRANCH   1   6
ATOM      6  C   UNL     1       7.044  -0.036  -2.110  1.00  0.00     0.047 C 
BRANCH   6   7
ATOM      7  C   UNL     1       6.470   0.137  -0.776  1.00  0.00    -0.047 A 
ATOM      8  C   UNL     1       5.797   1.289  -0.444  1.00  0.00     0.004 A 
ATOM      9  C   UNL     1       6.608  -0.872   0.149  1.00  0.00     0.004 A 
ATOM     10  C   UNL     1       5.274   1.385   0.848  1.00  0.00     0.000 A 
ATOM     11  C   UNL     1       6.091  -0.775   1.426  1.00  0.00     0.000 A 
ATOM     12  C   UNL     1       5.416   0.377   1.767  1.00  0.00     0.000 A 
ENDBRANCH   6   7
ENDBRANCH   1   6
TORSDOF 4
ENDMDL
MODEL 3
REMARK VINA RESULT:      -7.1      0.635      1.854
REMARK SMILES O=C(O)CCc1ccccc1
REMARK SMILES IDX 4 1 2 2 1 3 3 4 5 6 6 7 7 8 11 9 8 10 10 11 9 12
REMARK H PARENT 3 5
REMARK Flexibility Score: inf
ROOT
ATOM      1  C   UNL     1       8.326  -0.878  -1.916  1.00  0.00     0.127 C 
ENDROOT
BRANCH   1   2
ATOM      2  C   UNL     1       8.336  -2.005  -2.878  1.00  0.00     0.303 C 
ATOM      3  O   UNL     1       7.268  -2.463  -3.356  1.00  0.00    -0.252 OA
BRANCH   2   4
ATOM      4  O   UNL     1       9.528  -2.587  -3.277  1.00  0.00    -0.481 OA
ATOM      5  H   UNL     1      10.000  -2.238  -4.116  1.00  0.00     0.296 HD
ENDBRANCH   2   4
ENDBRANCH   1   2
BRANCH   1   6
ATOM      6  C   UNL     1       7.585  -1.313  -0.689  1.00  0.00     0.047 C 
BRANCH   6   7
ATOM      7  C   UNL     1       6.687  -0.297  -0.144  1.00  0.00    -0.047 A 
ATOM      8  C   UNL     1       6.321   0.794  -0.898  1.00  0.00     0.004 A 
ATOM      9  C   UNL     1       6.206  -0.442   1.137  1.00  0.00     0.004 A 
ATOM     10  C   UNL     1       5.459   1.726  -0.314  1.00  0.00     0.000 A 
ATOM     11  C   UNL     1       5.355   0.480   1.712  1.00  0.00     0.000 A 
ATOM     12  C   UNL     1       4.983   1.576   0.964  1.00  0.00     0.000 A 
ENDBRANCH   6   7
ENDBRANCH   1   6
TORSDOF 4
ENDMDL
MODEL 4
REMARK VINA RESULT:      -6.8      3.372      5.068
REMARK SMILES O=C(O)CCc1ccccc1
REMARK SMILES IDX 4 1 2 2 1 3 3 4 5 6 6 7 7 8 11 9 8 10 10 11 9 12
REMARK H PARENT 3 5
REMARK Flexibility Score: inf
ROOT
ATOM      1  C   UNL     1       4.990   1.822   0.717  1.00  0.00     0.127 C 
ENDROOT
BRANCH   1   2
ATOM      2  C   UNL     1       4.483   1.127   1.924  1.00  0.00     0.303 C 
ATOM      3  O   UNL     1       5.151   0.223   2.484  1.00  0.00    -0.252 OA
BRANCH   2   4
ATOM      4  O   UNL     1       3.252   1.457   2.468  1.00  0.00    -0.481 OA
ATOM      5  H   UNL     1       2.408   0.999   2.112  1.00  0.00     0.296 HD
ENDBRANCH   2   4
ENDBRANCH   1   2
BRANCH   1   6
ATOM      6  C   UNL     1       6.488   1.803   0.758  1.00  0.00     0.047 C 
BRANCH   6   7
ATOM      7  C   UNL     1       7.104   1.054  -0.336  1.00  0.00    -0.047 A 
ATOM      8  C   UNL     1       6.359   0.186  -1.100  1.00  0.00     0.004 A 
ATOM      9  C   UNL     1       8.443   1.228  -0.598  1.00  0.00     0.004 A 
ATOM     10  C   UNL     1       7.013  -0.495  -2.129  1.00  0.00     0.000 A 
ATOM     11  C   UNL     1       9.087   0.554  -1.616  1.00  0.00     0.000 A 
ATOM     12  C   UNL     1       8.349  -0.319  -2.386  1.00  0.00     0.000 A 
ENDBRANCH   6   7
ENDBRANCH   1   6
TORSDOF 4
ENDMDL
MODEL 5
REMARK VINA RESULT:      -6.7      3.818      4.987
REMARK SMILES O=C(O)CCc1ccccc1
REMARK SMILES IDX 4 1 2 2 1 3 3 4 5 6 6 7 7 8 11 9 8 10 10 11 9 12
REMARK H PARENT 3 5
REMARK Flexibility Score: inf
ROOT
ATOM      1  C   UNL     1       5.437   2.800   0.042  1.00  0.00     0.127 C 
ENDROOT
BRANCH   1   2
ATOM      2  C   UNL     1       6.220   3.766   0.849  1.00  0.00     0.303 C 
ATOM      3  O   UNL     1       6.243   3.698   2.103  1.00  0.00    -0.252 OA
BRANCH   2   4
ATOM      4  O   UNL     1       6.949   4.773   0.239  1.00  0.00    -0.481 OA
ATOM      5  H   UNL     1       7.560   4.543  -0.550  1.00  0.00     0.296 HD
ENDBRANCH   2   4
ENDBRANCH   1   2
BRANCH   1   6
ATOM      6  C   UNL     1       4.940   1.720   0.954  1.00  0.00     0.047 C 
BRANCH   6   7
ATOM      7  C   UNL     1       5.751   0.504   0.933  1.00  0.00    -0.047 A 
ATOM      8  C   UNL     1       6.436   0.135  -0.201  1.00  0.00     0.004 A 
ATOM      9  C   UNL     1       5.826  -0.273   2.066  1.00  0.00     0.004 A 
ATOM     10  C   UNL     1       7.192  -1.039  -0.149  1.00  0.00     0.000 A 
ATOM     11  C   UNL     1       6.574  -1.432   2.116  1.00  0.00     0.000 A 
ATOM     12  C   UNL     1       7.263  -1.810   0.984  1.00  0.00     0.000 A 
ENDBRANCH   6   7
ENDBRANCH   1   6
TORSDOF 4
ENDMDL
