@<TRIPOS>MOLECULE
/home/cewinharhar/GITHUB/reincatalyze/data/processed/docking_pred/2023-Apr-26-1657_maxeplen10_maxtrainstep1000_exh32_gamma099_lrac9e-4_lrcr1e-3/fd751eb3811fc03d22e30b1993ea0072812fb772_ligand_2.pdbqt
 12 12 0 0 0
SMALL
GASTEIGER

@<TRIPOS>ATOM
      1  C          5.4370    2.8000    0.0420 C.3     1  UNL1        0.1270
      2  C          6.2200    3.7660    0.8490 C.2     1  UNL1        0.3030
      3  O          6.2430    3.6980    2.1030 O.2     1  UNL1       -0.2520
      4  O          6.9490    4.7730    0.2390 O.3     1  UNL1       -0.4810
      5  H          7.5600    4.5430   -0.5500 H       1  UNL1        0.2960
      6  C          4.9400    1.7200    0.9540 C.3     1  UNL1        0.0470
      7  C          5.7510    0.5040    0.9330 C.2     1  UNL1       -0.0470
      8  C          6.4360    0.1350   -0.2010 C.2     1  UNL1        0.0040
      9  C          5.8260   -0.2730    2.0660 C.2     1  UNL1        0.0040
     10  C          7.1920   -1.0390   -0.1490 C.2     1  UNL1        0.0000
     11  C          6.5740   -1.4320    2.1160 C.2     1  UNL1        0.0000
     12  C          7.2630   -1.8100    0.9840 C.2     1  UNL1        0.0000
@<TRIPOS>BOND
     1     5     4    1
     2     8    10    1
     3     8     7    2
     4    10    12    2
     5     1     2    1
     6     1     6    1
     7     4     2    1
     8     2     3    2
     9     7     6    1
    10     7     9    1
    11    12    11    1
    12     9    11    2
