@<TRIPOS>MOLECULE
/home/cewinharhar/GITHUB/reincatalyze/data/processed/docking_pred/2023-Apr-26-1657_maxeplen10_maxtrainstep1000_exh32_gamma099_lrac9e-4_lrcr1e-3/fd751eb3811fc03d22e30b1993ea0072812fb772_ligand_2.pdbqt
 12 12 0 0 0
SMALL
GASTEIGER

@<TRIPOS>ATOM
      1  C          8.4190   -0.6300   -2.1090 C.3     1  UNL1        0.1270
      2  C          8.3810   -1.8930   -2.8830 C.2     1  UNL1        0.3030
      3  O          7.2910   -2.4140   -3.2260 O.2     1  UNL1       -0.2520
      4  O          9.5520   -2.5370   -3.2490 O.3     1  UNL1       -0.4810
      5  H         10.2100   -2.8310   -2.5220 H       1  UNL1        0.2960
      6  C          7.0440   -0.0360   -2.1100 C.3     1  UNL1        0.0470
      7  C          6.4700    0.1370   -0.7760 C.2     1  UNL1       -0.0470
      8  C          5.7970    1.2890   -0.4440 C.2     1  UNL1        0.0040
      9  C          6.6080   -0.8720    0.1490 C.2     1  UNL1        0.0040
     10  C          5.2740    1.3850    0.8480 C.2     1  UNL1        0.0000
     11  C          6.0910   -0.7750    1.4260 C.2     1  UNL1        0.0000
     12  C          5.4160    0.3770    1.7670 C.2     1  UNL1        0.0000
@<TRIPOS>BOND
     1     4     2    1
     2     4     5    1
     3     3     2    2
     4     2     1    1
     5     6     1    1
     6     6     7    1
     7     7     8    2
     8     7     9    1
     9     8    10    1
    10     9    11    2
    11    10    12    2
    12    11    12    1
