@<TRIPOS>MOLECULE
/home/cewinharhar/GITHUB/reincatalyze/data/processed/docking_pred/2023-Apr-26-1657_maxeplen10_maxtrainstep1000_exh32_gamma099_lrac9e-4_lrcr1e-3/fd751eb3811fc03d22e30b1993ea0072812fb772_ligand_2.pdbqt
 12 12 0 0 0
SMALL
GASTEIGER

@<TRIPOS>ATOM
      1  C          4.9900    1.8220    0.7170 C.3     1  UNL1        0.1270
      2  C          4.4830    1.1270    1.9240 C.2     1  UNL1        0.3030
      3  O          5.1510    0.2230    2.4840 O.2     1  UNL1       -0.2520
      4  O          3.2520    1.4570    2.4680 O.3     1  UNL1       -0.4810
      5  H          2.4080    0.9990    2.1120 H       1  UNL1        0.2960
      6  C          6.4880    1.8030    0.7580 C.3     1  UNL1        0.0470
      7  C          7.1040    1.0540   -0.3360 C.2     1  UNL1       -0.0470
      8  C          6.3590    0.1860   -1.1000 C.2     1  UNL1        0.0040
      9  C          8.4430    1.2280   -0.5980 C.2     1  UNL1        0.0040
     10  C          7.0130   -0.4950   -2.1290 C.2     1  UNL1        0.0000
     11  C          9.0870    0.5540   -1.6160 C.2     1  UNL1        0.0000
     12  C          8.3490   -0.3190   -2.3860 C.2     1  UNL1        0.0000
@<TRIPOS>BOND
     1    12    10    2
     2    12    11    1
     3    10     8    1
     4    11     9    2
     5     8     7    2
     6     9     7    1
     7     7     6    1
     8     1     6    1
     9     1     2    1
    10     2     4    1
    11     2     3    2
    12     5     4    1
