@<TRIPOS>MOLECULE
/home/cewinharhar/GITHUB/reincatalyze/data/processed/docking_pred/2023-Apr-26-1657_maxeplen10_maxtrainstep1000_exh32_gamma099_lrac9e-4_lrcr1e-3/ff0363d9ee1910d446632d9597fe578fef33cb13_ligand_2.pdbqt
 12 12 0 0 0
SMALL
GASTEIGER

@<TRIPOS>ATOM
      1  C          8.4310   -0.5580   -2.2410 C.3     1  UNL1        0.1270
      2  C          8.4840   -1.8650   -2.9360 C.2     1  UNL1        0.3030
      3  O          9.5700   -2.4760   -3.0920 O.2     1  UNL1       -0.2520
      4  O          7.3310   -2.4500   -3.4360 O.3     1  UNL1       -0.4810
      5  H          7.2780   -2.6810   -4.4320 H       1  UNL1        0.2960
      6  C          7.0000   -0.1210   -2.1660 C.3     1  UNL1        0.0470
      7  C          6.4900    0.0160   -0.8030 C.2     1  UNL1       -0.0470
      8  C          6.6320   -1.0060    0.1070 C.2     1  UNL1        0.0040
      9  C          5.8650    1.1850   -0.4350 C.2     1  UNL1        0.0040
     10  C          6.1220   -0.8050    1.3910 C.2     1  UNL1        0.0000
     11  C          5.3610    1.3820    0.8360 C.2     1  UNL1        0.0000
     12  C          5.4980    0.3630    1.7530 C.2     1  UNL1        0.0000
@<TRIPOS>BOND
     1     5     4    1
     2     4     2    1
     3     3     2    2
     4     2     1    1
     5     1     6    1
     6     6     7    1
     7     7     9    2
     8     7     8    1
     9     9    11    1
    10     8    10    2
    11    11    12    2
    12    10    12    1
