@<TRIPOS>MOLECULE
/home/cewinharhar/GITHUB/reincatalyze/data/processed/docking_pred/2023-Apr-26-1657_maxeplen10_maxtrainstep1000_exh32_gamma099_lrac9e-4_lrcr1e-3/ff0363d9ee1910d446632d9597fe578fef33cb13_ligand_2.pdbqt
 12 12 0 0 0
SMALL
GASTEIGER

@<TRIPOS>ATOM
      1  C          4.9830    1.7820    0.6880 C.3     1  UNL1        0.1270
      2  C          4.4830    1.1120    1.9120 C.2     1  UNL1        0.3030
      3  O          5.1530    0.2160    2.4830 O.2     1  UNL1       -0.2520
      4  O          3.2580    1.4560    2.4600 O.3     1  UNL1       -0.4810
      5  H          3.0820    1.2670    3.4500 H       1  UNL1        0.2960
      6  C          6.4810    1.7900    0.7340 C.3     1  UNL1        0.0470
      7  C          7.1130    1.0370   -0.3470 C.2     1  UNL1       -0.0470
      8  C          6.3870    0.1440   -1.1000 C.2     1  UNL1        0.0040
      9  C          8.4490    1.2320   -0.6100 C.2     1  UNL1        0.0040
     10  C          7.0550   -0.5400   -2.1180 C.2     1  UNL1        0.0000
     11  C          9.1090    0.5540   -1.6160 C.2     1  UNL1        0.0000
     12  C          8.3880   -0.3430   -2.3750 C.2     1  UNL1        0.0000
@<TRIPOS>BOND
     1    12    10    2
     2    12    11    1
     3    10     8    1
     4    11     9    2
     5     8     7    2
     6     9     7    1
     7     7     6    1
     8     1     6    1
     9     1     2    1
    10     2     4    1
    11     2     3    2
    12     4     5    1
