@<TRIPOS>MOLECULE
/home/cewinharhar/GITHUB/reincatalyze/data/processed/docking_pred/2023-Apr-26-1657_maxeplen10_maxtrainstep1000_exh32_gamma099_lrac9e-4_lrcr1e-3/ff0363d9ee1910d446632d9597fe578fef33cb13_ligand_2.pdbqt
 12 12 0 0 0
SMALL
GASTEIGER

@<TRIPOS>ATOM
      1  C          8.4010   -0.6540   -2.0740 C.3     1  UNL1        0.1270
      2  C          8.3700   -1.9000   -2.8750 C.2     1  UNL1        0.3030
      3  O          7.2830   -2.4060   -3.2490 O.2     1  UNL1       -0.2520
      4  O          9.5440   -2.5430   -3.2350 O.3     1  UNL1       -0.4810
      5  H         10.0950   -3.0190   -2.5150 H       1  UNL1        0.2960
      6  C          7.0250   -0.0630   -2.0690 C.3     1  UNL1        0.0470
      7  C          6.4550    0.1060   -0.7340 C.2     1  UNL1       -0.0470
      8  C          5.7960    1.2650   -0.3910 C.2     1  UNL1        0.0040
      9  C          6.5810   -0.9110    0.1840 C.2     1  UNL1        0.0040
     10  C          5.2760    1.3560    0.9020 C.2     1  UNL1        0.0000
     11  C          6.0660   -0.8180    1.4620 C.2     1  UNL1        0.0000
     12  C          5.4060    0.3390    1.8130 C.2     1  UNL1        0.0000
@<TRIPOS>BOND
     1     3     2    2
     2     4     2    1
     3     4     5    1
     4     2     1    1
     5     1     6    1
     6     6     7    1
     7     7     8    2
     8     7     9    1
     9     8    10    1
    10     9    11    2
    11    10    12    2
    12    11    12    1
