MODEL 1
REMARK VINA RESULT:      -7.3      0.000      0.000
REMARK SMILES O=C(O)CCc1ccccc1
REMARK SMILES IDX 4 1 2 2 1 3 3 4 5 6 6 7 7 8 11 9 8 10 10 11 9 12
REMARK H PARENT 3 5
REMARK Flexibility Score: inf
ROOT
ATOM      1  C   UNL     1       8.431  -0.558  -2.241  1.00  0.00     0.127 C 
ENDROOT
BRANCH   1   2
ATOM      2  C   UNL     1       8.484  -1.865  -2.936  1.00  0.00     0.303 C 
ATOM      3  O   UNL     1       9.570  -2.476  -3.092  1.00  0.00    -0.252 OA
BRANCH   2   4
ATOM      4  O   UNL     1       7.331  -2.450  -3.436  1.00  0.00    -0.481 OA
ATOM      5  H   UNL     1       7.278  -2.681  -4.432  1.00  0.00     0.296 HD
ENDBRANCH   2   4
ENDBRANCH   1   2
BRANCH   1   6
ATOM      6  C   UNL     1       7.000  -0.121  -2.166  1.00  0.00     0.047 C 
BRANCH   6   7
ATOM      7  C   UNL     1       6.490   0.016  -0.803  1.00  0.00    -0.047 A 
ATOM      8  C   UNL     1       6.632  -1.006   0.107  1.00  0.00     0.004 A 
ATOM      9  C   UNL     1       5.865   1.185  -0.435  1.00  0.00     0.004 A 
ATOM     10  C   UNL     1       6.122  -0.805   1.391  1.00  0.00     0.000 A 
ATOM     11  C   UNL     1       5.361   1.382   0.836  1.00  0.00     0.000 A 
ATOM     12  C   UNL     1       5.498   0.363   1.753  1.00  0.00     0.000 A 
ENDBRANCH   6   7
ENDBRANCH   1   6
TORSDOF 4
ENDMDL
MODEL 2
REMARK VINA RESULT:      -7.3      0.139      1.733
REMARK SMILES O=C(O)CCc1ccccc1
REMARK SMILES IDX 4 1 2 2 1 3 3 4 5 6 6 7 7 8 11 9 8 10 10 11 9 12
REMARK H PARENT 3 5
REMARK Flexibility Score: inf
ROOT
ATOM      1  C   UNL     1       8.401  -0.654  -2.074  1.00  0.00     0.127 C 
ENDROOT
BRANCH   1   2
ATOM      2  C   UNL     1       8.370  -1.900  -2.875  1.00  0.00     0.303 C 
ATOM      3  O   UNL     1       7.283  -2.406  -3.249  1.00  0.00    -0.252 OA
BRANCH   2   4
ATOM      4  O   UNL     1       9.544  -2.543  -3.235  1.00  0.00    -0.481 OA
ATOM      5  H   UNL     1      10.095  -3.019  -2.515  1.00  0.00     0.296 HD
ENDBRANCH   2   4
ENDBRANCH   1   2
BRANCH   1   6
ATOM      6  C   UNL     1       7.025  -0.063  -2.069  1.00  0.00     0.047 C 
BRANCH   6   7
ATOM      7  C   UNL     1       6.455   0.106  -0.734  1.00  0.00    -0.047 A 
ATOM      8  C   UNL     1       5.796   1.265  -0.391  1.00  0.00     0.004 A 
ATOM      9  C   UNL     1       6.581  -0.911   0.184  1.00  0.00     0.004 A 
ATOM     10  C   UNL     1       5.276   1.356   0.902  1.00  0.00     0.000 A 
ATOM     11  C   UNL     1       6.066  -0.818   1.462  1.00  0.00     0.000 A 
ATOM     12  C   UNL     1       5.406   0.339   1.813  1.00  0.00     0.000 A 
ENDBRANCH   6   7
ENDBRANCH   1   6
TORSDOF 4
ENDMDL
MODEL 3
REMARK VINA RESULT:      -6.8      3.388      5.065
REMARK SMILES O=C(O)CCc1ccccc1
REMARK SMILES IDX 4 1 2 2 1 3 3 4 5 6 6 7 7 8 11 9 8 10 10 11 9 12
REMARK H PARENT 3 5
REMARK Flexibility Score: inf
ROOT
ATOM      1  C   UNL     1       4.983   1.782   0.688  1.00  0.00     0.127 C 
ENDROOT
BRANCH   1   2
ATOM      2  C   UNL     1       4.483   1.112   1.912  1.00  0.00     0.303 C 
ATOM      3  O   UNL     1       5.153   0.216   2.483  1.00  0.00    -0.252 OA
BRANCH   2   4
ATOM      4  O   UNL     1       3.258   1.456   2.460  1.00  0.00    -0.481 OA
ATOM      5  H   UNL     1       3.082   1.267   3.450  1.00  0.00     0.296 HD
ENDBRANCH   2   4
ENDBRANCH   1   2
BRANCH   1   6
ATOM      6  C   UNL     1       6.481   1.790   0.734  1.00  0.00     0.047 C 
BRANCH   6   7
ATOM      7  C   UNL     1       7.113   1.037  -0.347  1.00  0.00    -0.047 A 
ATOM      8  C   UNL     1       6.387   0.144  -1.100  1.00  0.00     0.004 A 
ATOM      9  C   UNL     1       8.449   1.232  -0.610  1.00  0.00     0.004 A 
ATOM     10  C   UNL     1       7.055  -0.540  -2.118  1.00  0.00     0.000 A 
ATOM     11  C   UNL     1       9.109   0.554  -1.616  1.00  0.00     0.000 A 
ATOM     12  C   UNL     1       8.388  -0.343  -2.375  1.00  0.00     0.000 A 
ENDBRANCH   6   7
ENDBRANCH   1   6
TORSDOF 4
ENDMDL
MODEL 4
REMARK VINA RESULT:      -6.7      3.352      5.045
REMARK SMILES O=C(O)CCc1ccccc1
REMARK SMILES IDX 4 1 2 2 1 3 3 4 5 6 6 7 7 8 11 9 8 10 10 11 9 12
REMARK H PARENT 3 5
REMARK Flexibility Score: inf
ROOT
ATOM      1  C   UNL     1       5.065   1.713   0.700  1.00  0.00     0.127 C 
ENDROOT
BRANCH   1   2
ATOM      2  C   UNL     1       4.590   1.028   1.926  1.00  0.00     0.303 C 
ATOM      3  O   UNL     1       5.290   0.155   2.496  1.00  0.00    -0.252 OA
BRANCH   2   4
ATOM      4  O   UNL     1       3.357   1.334   2.477  1.00  0.00    -0.481 OA
ATOM      5  H   UNL     1       2.941   2.252   2.296  1.00  0.00     0.296 HD
ENDBRANCH   2   4
ENDBRANCH   1   2
BRANCH   1   6
ATOM      6  C   UNL     1       6.563   1.744   0.729  1.00  0.00     0.047 C 
BRANCH   6   7
ATOM      7  C   UNL     1       7.194   0.996  -0.356  1.00  0.00    -0.047 A 
ATOM      8  C   UNL     1       8.513   1.210  -0.684  1.00  0.00     0.004 A 
ATOM      9  C   UNL     1       6.454   0.066  -1.050  1.00  0.00     0.004 A 
ATOM     10  C   UNL     1       9.051   0.458  -1.731  1.00  0.00     0.000 A 
ATOM     11  C   UNL     1       6.987  -0.676  -2.085  1.00  0.00     0.000 A 
ATOM     12  C   UNL     1       8.307  -0.467  -2.421  1.00  0.00     0.000 A 
ENDBRANCH   6   7
ENDBRANCH   1   6
TORSDOF 4
ENDMDL
MODEL 5
REMARK VINA RESULT:      -6.7      1.930      2.310
REMARK SMILES O=C(O)CCc1ccccc1
REMARK SMILES IDX 4 1 2 2 1 3 3 4 5 6 6 7 7 8 11 9 8 10 10 11 9 12
REMARK H PARENT 3 5
REMARK Flexibility Score: inf
ROOT
ATOM      1  C   UNL     1       8.227   0.173  -2.177  1.00  0.00     0.127 C 
ENDROOT
BRANCH   1   2
ATOM      2  C   UNL     1       9.350   0.335  -1.224  1.00  0.00     0.303 C 
ATOM      3  O   UNL     1       9.461  -0.407  -0.217  1.00  0.00    -0.252 OA
BRANCH   2   4
ATOM      4  O   UNL     1      10.311   1.314  -1.418  1.00  0.00    -0.481 OA
ATOM      5  H   UNL     1      10.035   2.213  -1.821  1.00  0.00     0.296 HD
ENDBRANCH   2   4
ENDBRANCH   1   2
BRANCH   1   6
ATOM      6  C   UNL     1       7.129  -0.577  -1.488  1.00  0.00     0.047 C 
BRANCH   6   7
ATOM      7  C   UNL     1       6.347   0.235  -0.557  1.00  0.00    -0.047 A 
ATOM      8  C   UNL     1       6.114  -0.197   0.728  1.00  0.00     0.004 A 
ATOM      9  C   UNL     1       5.844   1.444  -0.979  1.00  0.00     0.004 A 
ATOM     10  C   UNL     1       5.360   0.631   1.563  1.00  0.00     0.000 A 
ATOM     11  C   UNL     1       5.099   2.260  -0.153  1.00  0.00     0.000 A 
ATOM     12  C   UNL     1       4.860   1.835   1.136  1.00  0.00     0.000 A 
ENDBRANCH   6   7
ENDBRANCH   1   6
TORSDOF 4
ENDMDL
