@<TRIPOS>MOLECULE
/home/cewinharhar/GITHUB/reincatalyze/data/processed/docking_pred/2023-Apr-26-1657_maxeplen10_maxtrainstep1000_exh32_gamma099_lrac9e-4_lrcr1e-3/ff0363d9ee1910d446632d9597fe578fef33cb13_ligand_2.pdbqt
 12 12 0 0 0
SMALL
GASTEIGER

@<TRIPOS>ATOM
      1  C          8.2270    0.1730   -2.1770 C.3     1  UNL1        0.1270
      2  C          9.3500    0.3350   -1.2240 C.2     1  UNL1        0.3030
      3  O          9.4610   -0.4070   -0.2170 O.2     1  UNL1       -0.2520
      4  O         10.3110    1.3140   -1.4180 O.3     1  UNL1       -0.4810
      5  H         10.0350    2.2130   -1.8210 H       1  UNL1        0.2960
      6  C          7.1290   -0.5770   -1.4880 C.3     1  UNL1        0.0470
      7  C          6.3470    0.2350   -0.5570 C.2     1  UNL1       -0.0470
      8  C          6.1140   -0.1970    0.7280 C.2     1  UNL1        0.0040
      9  C          5.8440    1.4440   -0.9790 C.2     1  UNL1        0.0040
     10  C          5.3600    0.6310    1.5630 C.2     1  UNL1        0.0000
     11  C          5.0990    2.2600   -0.1530 C.2     1  UNL1        0.0000
     12  C          4.8600    1.8350    1.1360 C.2     1  UNL1        0.0000
@<TRIPOS>BOND
     1     1     6    1
     2     1     2    1
     3     5     4    1
     4     6     7    1
     5     4     2    1
     6     2     3    2
     7     9     7    2
     8     9    11    1
     9     7     8    1
    10    11    12    2
    11     8    10    2
    12    12    10    1
