@<TRIPOS>MOLECULE
/home/cewinharhar/GITHUB/reincatalyze/data/processed/docking_pred/2023-Apr-26-1657_maxeplen10_maxtrainstep1000_exh32_gamma099_lrac9e-4_lrcr1e-3/ff0363d9ee1910d446632d9597fe578fef33cb13_ligand_2.pdbqt
 12 12 0 0 0
SMALL
GASTEIGER

@<TRIPOS>ATOM
      1  C          5.0650    1.7130    0.7000 C.3     1  UNL1        0.1270
      2  C          4.5900    1.0280    1.9260 C.2     1  UNL1        0.3030
      3  O          5.2900    0.1550    2.4960 O.2     1  UNL1       -0.2520
      4  O          3.3570    1.3340    2.4770 O.3     1  UNL1       -0.4810
      5  H          2.9410    2.2520    2.2960 H       1  UNL1        0.2960
      6  C          6.5630    1.7440    0.7290 C.3     1  UNL1        0.0470
      7  C          7.1940    0.9960   -0.3560 C.2     1  UNL1       -0.0470
      8  C          8.5130    1.2100   -0.6840 C.2     1  UNL1        0.0040
      9  C          6.4540    0.0660   -1.0500 C.2     1  UNL1        0.0040
     10  C          9.0510    0.4580   -1.7310 C.2     1  UNL1        0.0000
     11  C          6.9870   -0.6760   -2.0850 C.2     1  UNL1        0.0000
     12  C          8.3070   -0.4670   -2.4210 C.2     1  UNL1        0.0000
@<TRIPOS>BOND
     1    12    11    2
     2    12    10    1
     3    11     9    1
     4    10     8    2
     5     9     7    2
     6     8     7    1
     7     7     6    1
     8     1     6    1
     9     1     2    1
    10     2     4    1
    11     2     3    2
    12     5     4    1
