@<TRIPOS>MOLECULE
/home/cewinharhar/GITHUB/reincatalyze/data/processed/docking_pred/2023-May-31-1603_sub9_nm5_bs15_s42_ex16_mel10_mts1000_k50_ec05_g099_lra3e-4_lrc9e-3/00fabcb6e86abbd64330e8a307762c5d347247e8_ligand_9.pdbqt
 14 15 0 0 0
SMALL
GASTEIGER

@<TRIPOS>ATOM
      1  C          6.8320    0.9900    1.1030 C.3     1  UNL1        0.0800
      2  C          5.3880    1.1790    1.3480 C.2     1  UNL1        0.1300
      3  C          4.6390    2.1500    0.5250 C.3     1  UNL1        0.0870
      4  O          4.8500    0.5370    2.2160 O.2     1  UNL1       -0.3000
      5  C          7.1510    1.0500   -0.3760 C.3     1  UNL1        0.0430
      6  C          7.6080   -0.2570   -0.8580 C.2     1  UNL1       -0.0440
      7  C          7.7180   -0.5010   -2.2110 C.2     1  UNL1        0.0080
      8  C          7.9420   -1.2820    0.0100 C.2     1  UNL1        0.0540
      9  C          8.1470   -1.7280   -2.7090 C.2     1  UNL1        0.0510
     10  C          8.3750   -2.5200   -0.4590 C.2     1  UNL1        0.1660
     11  C          8.4740   -2.7330   -1.8180 C.2     1  UNL1        0.1650
     12  O          8.7700   -3.7070    0.1570 O.2     1  UNL1       -0.4540
     13  O          8.9220   -4.0320   -2.0100 O.2     1  UNL1       -0.4540
     14  C          8.8550   -4.7490   -0.7810 C.3     1  UNL1        0.4680
@<TRIPOS>BOND
     1     9     7    1
     2     9    11    2
     3     7     6    2
     4    13    11    1
     5    13    14    1
     6    11    10    1
     7     6     5    1
     8     6     8    1
     9    14    12    1
    10    10     8    2
    11    10    12    1
    12     5     1    1
    13     3     2    1
    14     1     2    1
    15     2     4    2
