@<TRIPOS>MOLECULE
/home/cewinharhar/GITHUB/reincatalyze/data/processed/docking_pred/2023-May-31-1603_sub9_nm5_bs15_s42_ex16_mel10_mts1000_k50_ec05_g099_lra3e-4_lrc9e-3/00fabcb6e86abbd64330e8a307762c5d347247e8_ligand_9.pdbqt
 14 15 0 0 0
SMALL
GASTEIGER

@<TRIPOS>ATOM
      1  C          6.3430    1.2140    0.9840 C.3     1  UNL1        0.0800
      2  C          5.6080    0.4020    1.9740 C.2     1  UNL1        0.1300
      3  C          6.2550   -0.7960    2.5460 C.3     1  UNL1        0.0870
      4  O          4.4940    0.7330    2.2950 O.2     1  UNL1       -0.3000
      5  C          5.8470    0.9470   -0.4220 C.3     1  UNL1        0.0430
      6  C          6.7600    0.0440   -1.1290 C.2     1  UNL1       -0.0440
      7  C          7.3260    0.4240   -2.3280 C.2     1  UNL1        0.0080
      8  C          7.0860   -1.2050   -0.6300 C.2     1  UNL1        0.0540
      9  C          8.1970   -0.4040   -3.0310 C.2     1  UNL1        0.0510
     10  C          7.9550   -2.0550   -1.3100 C.2     1  UNL1        0.1660
     11  C          8.5040   -1.6460   -2.5070 C.2     1  UNL1        0.1650
     12  O          8.4550   -3.3330   -1.0620 O.2     1  UNL1       -0.4540
     13  O          9.3220   -2.6680   -2.9680 O.2     1  UNL1       -0.4540
     14  C          9.0910   -3.8480   -2.2030 C.3     1  UNL1        0.4680
@<TRIPOS>BOND
     1     9    11    2
     2     9     7    1
     3    13    11    1
     4    13    14    1
     5    11    10    1
     6     7     6    2
     7    14    12    1
     8    10    12    1
     9    10     8    2
    10     6     8    1
    11     6     5    1
    12     5     1    1
    13     1     2    1
    14     2     4    2
    15     2     3    1
