MODEL 1
REMARK VINA RESULT:      -7.6      0.000      0.000
REMARK SMILES CC(=O)CCc1ccc2c(c1)OCO2
REMARK SMILES IDX 4 1 2 2 1 3 3 4 5 5 6 6 7 7 11 8 8 9 10 10 9 11 12 12 14 13
REMARK SMILES IDX 13 14
REMARK H PARENT
REMARK Flexibility Score: inf
ROOT
ATOM      1  C   UNL     1       5.548   1.884   1.310  1.00  0.00     0.080 C 
ENDROOT
BRANCH   1   2
ATOM      2  C   UNL     1       5.073   0.684   2.027  1.00  0.00     0.130 C 
ATOM      3  C   UNL     1       5.981  -0.470   2.182  1.00  0.00     0.087 C 
ATOM      4  O   UNL     1       3.952   0.670   2.472  1.00  0.00    -0.300 OA
ENDBRANCH   1   2
BRANCH   1   5
ATOM      5  C   UNL     1       5.379   1.732  -0.187  1.00  0.00     0.043 C 
BRANCH   5   6
ATOM      6  C   UNL     1       6.511   0.997  -0.761  1.00  0.00    -0.044 A 
ATOM      7  C   UNL     1       7.802   1.435  -0.555  1.00  0.00     0.008 A 
ATOM      8  C   UNL     1       6.332  -0.145  -1.522  1.00  0.00     0.054 A 
ATOM      9  C   UNL     1       8.904   0.767  -1.083  1.00  0.00     0.051 A 
ATOM     10  C   UNL     1       7.414  -0.835  -2.063  1.00  0.00     0.166 A 
ATOM     11  C   UNL     1       8.694  -0.371  -1.838  1.00  0.00     0.165 A 
ATOM     12  O   UNL     1       7.541  -1.981  -2.847  1.00  0.00    -0.454 OA
ATOM     13  O   UNL     1       9.573  -1.231  -2.481  1.00  0.00    -0.454 OA
ATOM     14  C   UNL     1       8.848  -2.098  -3.348  1.00  0.00     0.468 C 
ENDBRANCH   5   6
ENDBRANCH   1   5
TORSDOF 3
ENDMDL
MODEL 2
REMARK VINA RESULT:      -7.4      1.999      2.441
REMARK SMILES CC(=O)CCc1ccc2c(c1)OCO2
REMARK SMILES IDX 4 1 2 2 1 3 3 4 5 5 6 6 7 7 11 8 8 9 10 10 9 11 12 12 14 13
REMARK SMILES IDX 13 14
REMARK H PARENT
REMARK Flexibility Score: inf
ROOT
ATOM      1  C   UNL     1       5.611   1.121  -0.289  1.00  0.00     0.080 C 
ENDROOT
BRANCH   1   2
ATOM      2  C   UNL     1       5.073   1.193   1.084  1.00  0.00     0.130 C 
ATOM      3  C   UNL     1       5.367   0.098   2.031  1.00  0.00     0.087 C 
ATOM      4  O   UNL     1       4.405   2.144   1.405  1.00  0.00    -0.300 OA
ENDBRANCH   1   2
BRANCH   1   5
ATOM      5  C   UNL     1       7.123   1.038  -0.283  1.00  0.00     0.043 C 
BRANCH   5   6
ATOM      6  C   UNL     1       7.570  -0.257  -0.805  1.00  0.00    -0.044 A 
ATOM      7  C   UNL     1       7.628  -0.477  -2.166  1.00  0.00     0.008 A 
ATOM      8  C   UNL     1       7.943  -1.295   0.031  1.00  0.00     0.054 A 
ATOM      9  C   UNL     1       8.045  -1.692  -2.702  1.00  0.00     0.051 A 
ATOM     10  C   UNL     1       8.365  -2.521  -0.477  1.00  0.00     0.166 A 
ATOM     11  C   UNL     1       8.412  -2.710  -1.842  1.00  0.00     0.165 A 
ATOM     12  O   UNL     1       8.791  -3.717   0.102  1.00  0.00    -0.454 OA
ATOM     13  O   UNL     1       8.860  -4.002  -2.075  1.00  0.00    -0.454 OA
ATOM     14  C   UNL     1       8.846  -4.741  -0.857  1.00  0.00     0.468 C 
ENDBRANCH   5   6
ENDBRANCH   1   5
TORSDOF 3
ENDMDL
MODEL 3
REMARK VINA RESULT:      -7.2      2.167      2.715
REMARK SMILES CC(=O)CCc1ccc2c(c1)OCO2
REMARK SMILES IDX 4 1 2 2 1 3 3 4 5 5 6 6 7 7 11 8 8 9 10 10 9 11 12 12 14 13
REMARK SMILES IDX 13 14
REMARK H PARENT
REMARK Flexibility Score: inf
ROOT
ATOM      1  C   UNL     1       5.367  -0.106   1.824  1.00  0.00     0.080 C 
ENDROOT
BRANCH   1   2
ATOM      2  C   UNL     1       4.628   1.155   1.614  1.00  0.00     0.130 C 
ATOM      3  C   UNL     1       5.076   2.086   0.558  1.00  0.00     0.087 C 
ATOM      4  O   UNL     1       3.674   1.400   2.309  1.00  0.00    -0.300 OA
ENDBRANCH   1   2
BRANCH   1   5
ATOM      5  C   UNL     1       6.852   0.083   1.592  1.00  0.00     0.043 C 
BRANCH   5   6
ATOM      6  C   UNL     1       7.343  -0.871   0.593  1.00  0.00    -0.044 A 
ATOM      7  C   UNL     1       7.233  -0.588  -0.753  1.00  0.00     0.008 A 
ATOM      8  C   UNL     1       7.926  -2.073   0.953  1.00  0.00     0.054 A 
ATOM      9  C   UNL     1       7.685  -1.467  -1.733  1.00  0.00     0.051 A 
ATOM     10  C   UNL     1       8.388  -2.972  -0.005  1.00  0.00     0.166 A 
ATOM     11  C   UNL     1       8.264  -2.660  -1.343  1.00  0.00     0.165 A 
ATOM     12  O   UNL     1       9.002  -4.223   0.053  1.00  0.00    -0.454 OA
ATOM     13  O   UNL     1       8.796  -3.713  -2.074  1.00  0.00    -0.454 OA
ATOM     14  C   UNL     1       9.021  -4.827  -1.215  1.00  0.00     0.468 C 
ENDBRANCH   5   6
ENDBRANCH   1   5
TORSDOF 3
ENDMDL
MODEL 4
REMARK VINA RESULT:      -7.1      1.331      1.555
REMARK SMILES CC(=O)CCc1ccc2c(c1)OCO2
REMARK SMILES IDX 4 1 2 2 1 3 3 4 5 5 6 6 7 7 11 8 8 9 10 10 9 11 12 12 14 13
REMARK SMILES IDX 13 14
REMARK H PARENT
REMARK Flexibility Score: inf
ROOT
ATOM      1  C   UNL     1       6.343   1.214   0.984  1.00  0.00     0.080 C 
ENDROOT
BRANCH   1   2
ATOM      2  C   UNL     1       5.608   0.402   1.974  1.00  0.00     0.130 C 
ATOM      3  C   UNL     1       6.255  -0.796   2.546  1.00  0.00     0.087 C 
ATOM      4  O   UNL     1       4.494   0.733   2.295  1.00  0.00    -0.300 OA
ENDBRANCH   1   2
BRANCH   1   5
ATOM      5  C   UNL     1       5.847   0.947  -0.422  1.00  0.00     0.043 C 
BRANCH   5   6
ATOM      6  C   UNL     1       6.760   0.044  -1.129  1.00  0.00    -0.044 A 
ATOM      7  C   UNL     1       7.326   0.424  -2.328  1.00  0.00     0.008 A 
ATOM      8  C   UNL     1       7.086  -1.205  -0.630  1.00  0.00     0.054 A 
ATOM      9  C   UNL     1       8.197  -0.404  -3.031  1.00  0.00     0.051 A 
ATOM     10  C   UNL     1       7.955  -2.055  -1.310  1.00  0.00     0.166 A 
ATOM     11  C   UNL     1       8.504  -1.646  -2.507  1.00  0.00     0.165 A 
ATOM     12  O   UNL     1       8.455  -3.333  -1.062  1.00  0.00    -0.454 OA
ATOM     13  O   UNL     1       9.322  -2.668  -2.968  1.00  0.00    -0.454 OA
ATOM     14  C   UNL     1       9.091  -3.848  -2.203  1.00  0.00     0.468 C 
ENDBRANCH   5   6
ENDBRANCH   1   5
TORSDOF 3
ENDMDL
MODEL 5
REMARK VINA RESULT:      -7.0      2.013      2.560
REMARK SMILES CC(=O)CCc1ccc2c(c1)OCO2
REMARK SMILES IDX 4 1 2 2 1 3 3 4 5 5 6 6 7 7 11 8 8 9 10 10 9 11 12 12 14 13
REMARK SMILES IDX 13 14
REMARK H PARENT
REMARK Flexibility Score: inf
ROOT
ATOM      1  C   UNL     1       6.832   0.990   1.103  1.00  0.00     0.080 C 
ENDROOT
BRANCH   1   2
ATOM      2  C   UNL     1       5.388   1.179   1.348  1.00  0.00     0.130 C 
ATOM      3  C   UNL     1       4.639   2.150   0.525  1.00  0.00     0.087 C 
ATOM      4  O   UNL     1       4.850   0.537   2.216  1.00  0.00    -0.300 OA
ENDBRANCH   1   2
BRANCH   1   5
ATOM      5  C   UNL     1       7.151   1.050  -0.376  1.00  0.00     0.043 C 
BRANCH   5   6
ATOM      6  C   UNL     1       7.608  -0.257  -0.858  1.00  0.00    -0.044 A 
ATOM      7  C   UNL     1       7.718  -0.501  -2.211  1.00  0.00     0.008 A 
ATOM      8  C   UNL     1       7.942  -1.282   0.010  1.00  0.00     0.054 A 
ATOM      9  C   UNL     1       8.147  -1.728  -2.709  1.00  0.00     0.051 A 
ATOM     10  C   UNL     1       8.375  -2.520  -0.459  1.00  0.00     0.166 A 
ATOM     11  C   UNL     1       8.474  -2.733  -1.818  1.00  0.00     0.165 A 
ATOM     12  O   UNL     1       8.770  -3.707   0.157  1.00  0.00    -0.454 OA
ATOM     13  O   UNL     1       8.922  -4.032  -2.010  1.00  0.00    -0.454 OA
ATOM     14  C   UNL     1       8.855  -4.749  -0.781  1.00  0.00     0.468 C 
ENDBRANCH   5   6
ENDBRANCH   1   5
TORSDOF 3
ENDMDL
