@<TRIPOS>MOLECULE
/home/cewinharhar/GITHUB/reincatalyze/data/processed/docking_pred/2023-May-31-1603_sub9_nm5_bs15_s42_ex16_mel10_mts1000_k50_ec05_g099_lra3e-4_lrc9e-3/01b08930ea9107c3adfd00eac21895e0e3e1f2d7_ligand_9.pdbqt
 14 15 0 0 0
SMALL
GASTEIGER

@<TRIPOS>ATOM
      1  C          8.2680    0.2040   -2.5690 C.3     1  UNL1        0.0800
      2  C          7.9630   -1.2350   -2.7020 C.2     1  UNL1        0.1300
      3  C          9.0530   -2.1760   -3.0280 C.3     1  UNL1        0.0870
      4  O          6.8280   -1.6120   -2.5430 O.2     1  UNL1       -0.3000
      5  C          8.8150    0.5230   -1.1930 C.3     1  UNL1        0.0430
      6  C          7.7530    0.4500   -0.1860 C.2     1  UNL1       -0.0440
      7  C          7.7550   -0.5560    0.7580 C.2     1  UNL1        0.0080
      8  C          6.7200    1.3710   -0.1430 C.2     1  UNL1        0.0540
      9  C          6.7640   -0.6610    1.7300 C.2     1  UNL1        0.0510
     10  C          5.7150    1.2910    0.8180 C.2     1  UNL1        0.1660
     11  C          5.7460    0.2730    1.7480 C.2     1  UNL1        0.1650
     12  O          4.5810    2.0520    1.1020 O.2     1  UNL1       -0.4540
     13  O          4.6430    0.4240    2.5770 O.2     1  UNL1       -0.4540
     14  C          3.7500    1.3830    2.0160 C.3     1  UNL1        0.4680
@<TRIPOS>BOND
     1     3     2    1
     2     2     1    1
     3     2     4    2
     4     1     5    1
     5     5     6    1
     6     6     8    2
     7     6     7    1
     8     8    10    1
     9     7     9    2
    10    10    12    1
    11    10    11    2
    12    12    14    1
    13     9    11    1
    14    11    13    1
    15    14    13    1
