@<TRIPOS>MOLECULE
/home/cewinharhar/GITHUB/reincatalyze/data/processed/docking_pred/2023-May-31-1603_sub9_nm5_bs15_s42_ex16_mel10_mts1000_k50_ec05_g099_lra3e-4_lrc9e-3/02381cbfeedb5f98de7c9f38a4017f955763d16c_ligand_9.pdbqt
 14 15 0 0 0
SMALL
GASTEIGER

@<TRIPOS>ATOM
      1  C          6.5020    1.3670    0.3850 C.3     1  UNL1        0.0800
      2  C          5.4060    1.1640    1.3520 C.2     1  UNL1        0.1300
      3  C          5.3680   -0.0780    2.1490 C.3     1  UNL1        0.0870
      4  O          4.5620    2.0180    1.4720 O.2     1  UNL1       -0.3000
      5  C          6.1040    0.9060   -1.0020 C.3     1  UNL1        0.0430
      6  C          6.9210   -0.2370   -1.4190 C.2     1  UNL1       -0.0440
      7  C          7.3970   -0.3190   -2.7110 C.2     1  UNL1        0.0080
      8  C          7.2430   -1.2640   -0.5490 C.2     1  UNL1        0.0540
      9  C          8.1750   -1.3870   -3.1470 C.2     1  UNL1        0.0510
     10  C          8.0200   -2.3450   -0.9560 C.2     1  UNL1        0.1660
     11  C          8.4810   -2.3980   -2.2550 C.2     1  UNL1        0.1650
     12  O          8.4930   -3.4940   -0.3220 O.2     1  UNL1       -0.4540
     13  O          9.2190   -3.5640   -2.3950 O.2     1  UNL1       -0.4540
     14  C          9.0110   -4.4020   -1.2610 C.3     1  UNL1        0.4680
@<TRIPOS>BOND
     1     9     7    1
     2     9    11    2
     3     7     6    2
     4    13    11    1
     5    13    14    1
     6    11    10    1
     7     6     5    1
     8     6     8    1
     9    14    12    1
    10     5     1    1
    11    10     8    2
    12    10    12    1
    13     1     2    1
    14     2     4    2
    15     2     3    1
