@<TRIPOS>MOLECULE
/home/cewinharhar/GITHUB/reincatalyze/data/processed/docking_pred/2023-May-31-1603_sub9_nm5_bs15_s42_ex16_mel10_mts1000_k50_ec05_g099_lra3e-4_lrc9e-3/0310d41f91ab2de901a6698b161cc991790b6b4b_ligand_9.pdbqt
 14 15 0 0 0
SMALL
GASTEIGER

@<TRIPOS>ATOM
      1  C          6.7140    0.9090    1.3810 C.3     1  UNL1        0.0800
      2  C          5.2690    1.2130    1.4280 C.2     1  UNL1        0.1300
      3  C          4.6970    2.1490    0.4400 C.3     1  UNL1        0.0870
      4  O          4.5860    0.6890    2.2730 O.2     1  UNL1       -0.3000
      5  C          7.2710    1.1080   -0.0140 C.3     1  UNL1        0.0430
      6  C          7.6600   -0.1780   -0.6000 C.2     1  UNL1       -0.0440
      7  C          7.6680   -0.3450   -1.9700 C.2     1  UNL1        0.0080
      8  C          8.0290   -1.2580    0.1820 C.2     1  UNL1        0.0540
      9  C          8.0300   -1.5490   -2.5660 C.2     1  UNL1        0.0510
     10  C          8.3960   -2.4760   -0.3860 C.2     1  UNL1        0.1660
     11  C          8.3940   -2.6110   -1.7590 C.2     1  UNL1        0.1650
     12  O          8.8040   -3.7050    0.1310 O.2     1  UNL1       -0.4540
     13  O          8.7940   -3.9050   -2.0570 O.2     1  UNL1       -0.4540
     14  C          8.7960   -4.6920   -0.8680 C.3     1  UNL1        0.4680
@<TRIPOS>BOND
     1     9     7    1
     2     9    11    2
     3    13    11    1
     4    13    14    1
     5     7     6    2
     6    11    10    1
     7    14    12    1
     8     6     5    1
     9     6     8    1
    10    10    12    1
    11    10     8    2
    12     5     1    1
    13     3     2    1
    14     1     2    1
    15     2     4    2
