MODEL 1
REMARK VINA RESULT:      -7.5      0.000      0.000
REMARK SMILES CC(=O)CCc1ccc2c(c1)OCO2
REMARK SMILES IDX 4 1 2 2 1 3 3 4 5 5 6 6 7 7 11 8 8 9 10 10 9 11 12 12 14 13
REMARK SMILES IDX 13 14
REMARK H PARENT
REMARK Flexibility Score: inf
ROOT
ATOM      1  C   UNL     1       5.610   1.845   1.325  1.00  0.00     0.080 C 
ENDROOT
BRANCH   1   2
ATOM      2  C   UNL     1       5.134   0.650   2.050  1.00  0.00     0.130 C 
ATOM      3  C   UNL     1       6.050  -0.494   2.234  1.00  0.00     0.087 C 
ATOM      4  O   UNL     1       4.007   0.633   2.478  1.00  0.00    -0.300 OA
ENDBRANCH   1   2
BRANCH   1   5
ATOM      5  C   UNL     1       5.424   1.690  -0.170  1.00  0.00     0.043 C 
BRANCH   5   6
ATOM      6  C   UNL     1       6.553   0.964  -0.758  1.00  0.00    -0.044 A 
ATOM      7  C   UNL     1       7.842   1.424  -0.586  1.00  0.00     0.008 A 
ATOM      8  C   UNL     1       6.376  -0.192  -1.497  1.00  0.00     0.054 A 
ATOM      9  C   UNL     1       8.942   0.765  -1.128  1.00  0.00     0.051 A 
ATOM     10  C   UNL     1       7.457  -0.874  -2.051  1.00  0.00     0.166 A 
ATOM     11  C   UNL     1       8.734  -0.388  -1.861  1.00  0.00     0.165 A 
ATOM     12  O   UNL     1       7.585  -2.030  -2.820  1.00  0.00    -0.454 OA
ATOM     13  O   UNL     1       9.612  -1.244  -2.510  1.00  0.00    -0.454 OA
ATOM     14  C   UNL     1       8.882  -2.136  -3.348  1.00  0.00     0.468 C 
ENDBRANCH   5   6
ENDBRANCH   1   5
TORSDOF 3
ENDMDL
MODEL 2
REMARK VINA RESULT:      -7.3      1.877      2.322
REMARK SMILES CC(=O)CCc1ccc2c(c1)OCO2
REMARK SMILES IDX 4 1 2 2 1 3 3 4 5 5 6 6 7 7 11 8 8 9 10 10 9 11 12 12 14 13
REMARK SMILES IDX 13 14
REMARK H PARENT
REMARK Flexibility Score: inf
ROOT
ATOM      1  C   UNL     1       5.638   1.353  -0.252  1.00  0.00     0.080 C 
ENDROOT
BRANCH   1   2
ATOM      2  C   UNL     1       5.024   1.255   1.087  1.00  0.00     0.130 C 
ATOM      3  C   UNL     1       5.386   0.123   1.964  1.00  0.00     0.087 C 
ATOM      4  O   UNL     1       4.239   2.101   1.438  1.00  0.00    -0.300 OA
ENDBRANCH   1   2
BRANCH   1   5
ATOM      5  C   UNL     1       7.140   1.172  -0.182  1.00  0.00     0.043 C 
BRANCH   5   6
ATOM      6  C   UNL     1       7.531  -0.116  -0.763  1.00  0.00    -0.044 A 
ATOM      7  C   UNL     1       7.438  -0.323  -2.124  1.00  0.00     0.008 A 
ATOM      8  C   UNL     1       8.001  -1.158   0.016  1.00  0.00     0.054 A 
ATOM      9  C   UNL     1       7.798  -1.532  -2.714  1.00  0.00     0.051 A 
ATOM     10  C   UNL     1       8.369  -2.378  -0.546  1.00  0.00     0.166 A 
ATOM     11  C   UNL     1       8.264  -2.555  -1.910  1.00  0.00     0.165 A 
ATOM     12  O   UNL     1       8.862  -3.576  -0.030  1.00  0.00    -0.454 OA
ATOM     13  O   UNL     1       8.689  -3.842  -2.203  1.00  0.00    -0.454 OA
ATOM     14  C   UNL     1       8.814  -4.592  -0.998  1.00  0.00     0.468 C 
ENDBRANCH   5   6
ENDBRANCH   1   5
TORSDOF 3
ENDMDL
MODEL 3
REMARK VINA RESULT:      -7.2      2.073      2.639
REMARK SMILES CC(=O)CCc1ccc2c(c1)OCO2
REMARK SMILES IDX 4 1 2 2 1 3 3 4 5 5 6 6 7 7 11 8 8 9 10 10 9 11 12 12 14 13
REMARK SMILES IDX 13 14
REMARK H PARENT
REMARK Flexibility Score: inf
ROOT
ATOM      1  C   UNL     1       5.402  -0.014   1.958  1.00  0.00     0.080 C 
ENDROOT
BRANCH   1   2
ATOM      2  C   UNL     1       4.561   1.181   1.744  1.00  0.00     0.130 C 
ATOM      3  C   UNL     1       4.932   2.144   0.687  1.00  0.00     0.087 C 
ATOM      4  O   UNL     1       3.587   1.346   2.436  1.00  0.00    -0.300 OA
ENDBRANCH   1   2
BRANCH   1   5
ATOM      5  C   UNL     1       6.840   0.250   1.566  1.00  0.00     0.043 C 
BRANCH   5   6
ATOM      6  C   UNL     1       7.292  -0.729   0.574  1.00  0.00    -0.044 A 
ATOM      7  C   UNL     1       7.107  -0.494  -0.773  1.00  0.00     0.008 A 
ATOM      8  C   UNL     1       7.911  -1.911   0.941  1.00  0.00     0.054 A 
ATOM      9  C   UNL     1       7.520  -1.399  -1.746  1.00  0.00     0.051 A 
ATOM     10  C   UNL     1       8.336  -2.836  -0.010  1.00  0.00     0.166 A 
ATOM     11  C   UNL     1       8.136  -2.571  -1.349  1.00  0.00     0.165 A 
ATOM     12  O   UNL     1       8.970  -4.076   0.056  1.00  0.00    -0.454 OA
ATOM     13  O   UNL     1       8.645  -3.640  -2.072  1.00  0.00    -0.454 OA
ATOM     14  C   UNL     1       8.931  -4.722  -1.190  1.00  0.00     0.468 C 
ENDBRANCH   5   6
ENDBRANCH   1   5
TORSDOF 3
ENDMDL
MODEL 4
REMARK VINA RESULT:      -7.1      1.214      1.361
REMARK SMILES CC(=O)CCc1ccc2c(c1)OCO2
REMARK SMILES IDX 4 1 2 2 1 3 3 4 5 5 6 6 7 7 11 8 8 9 10 10 9 11 12 12 14 13
REMARK SMILES IDX 13 14
REMARK H PARENT
REMARK Flexibility Score: inf
ROOT
ATOM      1  C   UNL     1       6.247   1.335   0.956  1.00  0.00     0.080 C 
ENDROOT
BRANCH   1   2
ATOM      2  C   UNL     1       5.588   0.463   1.949  1.00  0.00     0.130 C 
ATOM      3  C   UNL     1       6.330  -0.688   2.502  1.00  0.00     0.087 C 
ATOM      4  O   UNL     1       4.457   0.709   2.289  1.00  0.00    -0.300 OA
ENDBRANCH   1   2
BRANCH   1   5
ATOM      5  C   UNL     1       5.756   1.038  -0.446  1.00  0.00     0.043 C 
BRANCH   5   6
ATOM      6  C   UNL     1       6.705   0.170  -1.150  1.00  0.00    -0.044 A 
ATOM      7  C   UNL     1       7.383   0.633  -2.259  1.00  0.00     0.008 A 
ATOM      8  C   UNL     1       6.954  -1.128  -0.740  1.00  0.00     0.054 A 
ATOM      9  C   UNL     1       8.291  -0.159  -2.956  1.00  0.00     0.051 A 
ATOM     10  C   UNL     1       7.857  -1.944  -1.417  1.00  0.00     0.166 A 
ATOM     11  C   UNL     1       8.519  -1.451  -2.522  1.00  0.00     0.165 A 
ATOM     12  O   UNL     1       8.300  -3.255  -1.243  1.00  0.00    -0.454 OA
ATOM     13  O   UNL     1       9.347  -2.456  -3.001  1.00  0.00    -0.454 OA
ATOM     14  C   UNL     1       9.020  -3.690  -2.368  1.00  0.00     0.468 C 
ENDBRANCH   5   6
ENDBRANCH   1   5
TORSDOF 3
ENDMDL
MODEL 5
REMARK VINA RESULT:      -7.0      1.975      2.486
REMARK SMILES CC(=O)CCc1ccc2c(c1)OCO2
REMARK SMILES IDX 4 1 2 2 1 3 3 4 5 5 6 6 7 7 11 8 8 9 10 10 9 11 12 12 14 13
REMARK SMILES IDX 13 14
REMARK H PARENT
REMARK Flexibility Score: inf
ROOT
ATOM      1  C   UNL     1       6.714   0.909   1.381  1.00  0.00     0.080 C 
ENDROOT
BRANCH   1   2
ATOM      2  C   UNL     1       5.269   1.213   1.428  1.00  0.00     0.130 C 
ATOM      3  C   UNL     1       4.697   2.149   0.440  1.00  0.00     0.087 C 
ATOM      4  O   UNL     1       4.586   0.689   2.273  1.00  0.00    -0.300 OA
ENDBRANCH   1   2
BRANCH   1   5
ATOM      5  C   UNL     1       7.271   1.108  -0.014  1.00  0.00     0.043 C 
BRANCH   5   6
ATOM      6  C   UNL     1       7.660  -0.178  -0.600  1.00  0.00    -0.044 A 
ATOM      7  C   UNL     1       7.668  -0.345  -1.970  1.00  0.00     0.008 A 
ATOM      8  C   UNL     1       8.029  -1.258   0.182  1.00  0.00     0.054 A 
ATOM      9  C   UNL     1       8.030  -1.549  -2.566  1.00  0.00     0.051 A 
ATOM     10  C   UNL     1       8.396  -2.476  -0.386  1.00  0.00     0.166 A 
ATOM     11  C   UNL     1       8.394  -2.611  -1.759  1.00  0.00     0.165 A 
ATOM     12  O   UNL     1       8.804  -3.705   0.131  1.00  0.00    -0.454 OA
ATOM     13  O   UNL     1       8.794  -3.905  -2.057  1.00  0.00    -0.454 OA
ATOM     14  C   UNL     1       8.796  -4.692  -0.868  1.00  0.00     0.468 C 
ENDBRANCH   5   6
ENDBRANCH   1   5
TORSDOF 3
ENDMDL
