@<TRIPOS>MOLECULE
/home/cewinharhar/GITHUB/reincatalyze/data/processed/docking_pred/2023-May-31-1603_sub9_nm5_bs15_s42_ex16_mel10_mts1000_k50_ec05_g099_lra3e-4_lrc9e-3/0310d41f91ab2de901a6698b161cc991790b6b4b_ligand_9.pdbqt
 14 15 0 0 0
SMALL
GASTEIGER

@<TRIPOS>ATOM
      1  C          5.4020   -0.0140    1.9580 C.3     1  UNL1        0.0800
      2  C          4.5610    1.1810    1.7440 C.2     1  UNL1        0.1300
      3  C          4.9320    2.1440    0.6870 C.3     1  UNL1        0.0870
      4  O          3.5870    1.3460    2.4360 O.2     1  UNL1       -0.3000
      5  C          6.8400    0.2500    1.5660 C.3     1  UNL1        0.0430
      6  C          7.2920   -0.7290    0.5740 C.2     1  UNL1       -0.0440
      7  C          7.1070   -0.4940   -0.7730 C.2     1  UNL1        0.0080
      8  C          7.9110   -1.9110    0.9410 C.2     1  UNL1        0.0540
      9  C          7.5200   -1.3990   -1.7460 C.2     1  UNL1        0.0510
     10  C          8.3360   -2.8360   -0.0100 C.2     1  UNL1        0.1660
     11  C          8.1360   -2.5710   -1.3490 C.2     1  UNL1        0.1650
     12  O          8.9700   -4.0760    0.0560 O.2     1  UNL1       -0.4540
     13  O          8.6450   -3.6400   -2.0720 O.2     1  UNL1       -0.4540
     14  C          8.9310   -4.7220   -1.1900 C.3     1  UNL1        0.4680
@<TRIPOS>BOND
     1    13    11    1
     2    13    14    1
     3     9    11    2
     4     9     7    1
     5    11    10    1
     6    14    12    1
     7     7     6    2
     8    10    12    1
     9    10     8    2
    10     6     8    1
    11     6     5    1
    12     3     2    1
    13     5     1    1
    14     2     1    1
    15     2     4    2
