@<TRIPOS>MOLECULE
/home/cewinharhar/GITHUB/reincatalyze/data/processed/docking_pred/2023-May-31-1603_sub9_nm5_bs15_s42_ex16_mel10_mts1000_k50_ec05_g099_lra3e-4_lrc9e-3/0310d41f91ab2de901a6698b161cc991790b6b4b_ligand_9.pdbqt
 14 15 0 0 0
SMALL
GASTEIGER

@<TRIPOS>ATOM
      1  C          5.6380    1.3530   -0.2520 C.3     1  UNL1        0.0800
      2  C          5.0240    1.2550    1.0870 C.2     1  UNL1        0.1300
      3  C          5.3860    0.1230    1.9640 C.3     1  UNL1        0.0870
      4  O          4.2390    2.1010    1.4380 O.2     1  UNL1       -0.3000
      5  C          7.1400    1.1720   -0.1820 C.3     1  UNL1        0.0430
      6  C          7.5310   -0.1160   -0.7630 C.2     1  UNL1       -0.0440
      7  C          7.4380   -0.3230   -2.1240 C.2     1  UNL1        0.0080
      8  C          8.0010   -1.1580    0.0160 C.2     1  UNL1        0.0540
      9  C          7.7980   -1.5320   -2.7140 C.2     1  UNL1        0.0510
     10  C          8.3690   -2.3780   -0.5460 C.2     1  UNL1        0.1660
     11  C          8.2640   -2.5550   -1.9100 C.2     1  UNL1        0.1650
     12  O          8.8620   -3.5760   -0.0300 O.2     1  UNL1       -0.4540
     13  O          8.6890   -3.8420   -2.2030 O.2     1  UNL1       -0.4540
     14  C          8.8140   -4.5920   -0.9980 C.3     1  UNL1        0.4680
@<TRIPOS>BOND
     1     9     7    1
     2     9    11    2
     3    13    11    1
     4    13    14    1
     5     7     6    2
     6    11    10    1
     7    14    12    1
     8     6     5    1
     9     6     8    1
    10    10    12    1
    11    10     8    2
    12     1     5    1
    13     1     2    1
    14     2     4    2
    15     2     3    1
