@<TRIPOS>MOLECULE
/home/cewinharhar/GITHUB/reincatalyze/data/processed/docking_pred/2023-May-31-1603_sub9_nm5_bs15_s42_ex16_mel10_mts1000_k50_ec05_g099_lra3e-4_lrc9e-3/0310d41f91ab2de901a6698b161cc991790b6b4b_ligand_9.pdbqt
 14 15 0 0 0
SMALL
GASTEIGER

@<TRIPOS>ATOM
      1  C          5.6100    1.8450    1.3250 C.3     1  UNL1        0.0800
      2  C          5.1340    0.6500    2.0500 C.2     1  UNL1        0.1300
      3  C          6.0500   -0.4940    2.2340 C.3     1  UNL1        0.0870
      4  O          4.0070    0.6330    2.4780 O.2     1  UNL1       -0.3000
      5  C          5.4240    1.6900   -0.1700 C.3     1  UNL1        0.0430
      6  C          6.5530    0.9640   -0.7580 C.2     1  UNL1       -0.0440
      7  C          7.8420    1.4240   -0.5860 C.2     1  UNL1        0.0080
      8  C          6.3760   -0.1920   -1.4970 C.2     1  UNL1        0.0540
      9  C          8.9420    0.7650   -1.1280 C.2     1  UNL1        0.0510
     10  C          7.4570   -0.8740   -2.0510 C.2     1  UNL1        0.1660
     11  C          8.7340   -0.3880   -1.8610 C.2     1  UNL1        0.1650
     12  O          7.5850   -2.0300   -2.8200 O.2     1  UNL1       -0.4540
     13  O          9.6120   -1.2440   -2.5100 O.2     1  UNL1       -0.4540
     14  C          8.8820   -2.1360   -3.3480 C.3     1  UNL1        0.4680
@<TRIPOS>BOND
     1    14    12    1
     2    14    13    1
     3    12    10    1
     4    13    11    1
     5    10    11    2
     6    10     8    1
     7    11     9    1
     8     8     6    2
     9     9     7    2
    10     6     7    1
    11     6     5    1
    12     5     1    1
    13     1     2    1
    14     2     3    1
    15     2     4    2
