@<TRIPOS>MOLECULE
/home/cewinharhar/GITHUB/reincatalyze/data/processed/docking_pred/2023-May-31-1603_sub9_nm5_bs15_s42_ex16_mel10_mts1000_k50_ec05_g099_lra3e-4_lrc9e-3/034cecc51265c6b10d0b2cc1c9f67b1ec6b5e3be_ligand_9.pdbqt
 14 15 0 0 0
SMALL
GASTEIGER

@<TRIPOS>ATOM
      1  C          6.5650    1.4060    0.3680 C.3     1  UNL1        0.0800
      2  C          5.4540    1.2420    1.3270 C.2     1  UNL1        0.1300
      3  C          5.3740    0.0080    2.1340 C.3     1  UNL1        0.0870
      4  O          4.6340    2.1210    1.4320 O.2     1  UNL1       -0.3000
      5  C          6.1690    0.9350   -1.0160 C.3     1  UNL1        0.0430
      6  C          6.9600   -0.2360   -1.4070 C.2     1  UNL1       -0.0440
      7  C          7.4120   -0.3700   -2.7030 C.2     1  UNL1        0.0080
      8  C          7.2790   -1.2380   -0.5070 C.2     1  UNL1        0.0540
      9  C          8.1640   -1.4670   -3.1150 C.2     1  UNL1        0.0510
     10  C          8.0300   -2.3470   -0.8900 C.2     1  UNL1        0.1660
     11  C          8.4670   -2.4520   -2.1940 C.2     1  UNL1        0.1650
     12  O          8.4940   -3.4810   -0.2250 O.2     1  UNL1       -0.4540
     13  O          9.1830   -3.6350   -2.3050 O.2     1  UNL1       -0.4540
     14  C          8.9800   -4.4300   -1.1400 C.3     1  UNL1        0.4680
@<TRIPOS>BOND
     1     9     7    1
     2     9    11    2
     3     7     6    2
     4    13    11    1
     5    13    14    1
     6    11    10    1
     7     6     5    1
     8     6     8    1
     9    14    12    1
    10     5     1    1
    11    10     8    2
    12    10    12    1
    13     1     2    1
    14     2     4    2
    15     2     3    1
