@<TRIPOS>MOLECULE
/home/cewinharhar/GITHUB/reincatalyze/data/processed/docking_pred/2023-May-31-1603_sub9_nm5_bs15_s42_ex16_mel10_mts1000_k50_ec05_g099_lra3e-4_lrc9e-3/034cecc51265c6b10d0b2cc1c9f67b1ec6b5e3be_ligand_9.pdbqt
 14 15 0 0 0
SMALL
GASTEIGER

@<TRIPOS>ATOM
      1  C          5.4800    0.0330    1.8950 C.3     1  UNL1        0.0800
      2  C          4.6230    1.2020    1.6160 C.2     1  UNL1        0.1300
      3  C          4.9810    2.1110    0.5090 C.3     1  UNL1        0.0870
      4  O          3.6460    1.3910    2.2990 O.2     1  UNL1       -0.3000
      5  C          6.9130    0.2920    1.4770 C.3     1  UNL1        0.0430
      6  C          7.3550   -0.7130    0.5060 C.2     1  UNL1       -0.0440
      7  C          7.1950   -0.4930   -0.8460 C.2     1  UNL1        0.0080
      8  C          7.9410   -1.9040    0.8990 C.2     1  UNL1        0.0540
      9  C          7.6000   -1.4220   -1.8010 C.2     1  UNL1        0.0510
     10  C          8.3570   -2.8520   -0.0320 C.2     1  UNL1        0.1660
     11  C          8.1830   -2.6020   -1.3770 C.2     1  UNL1        0.1650
     12  O          8.9610   -4.1060    0.0620 O.2     1  UNL1       -0.4540
     13  O          8.6760   -3.6940   -2.0770 O.2     1  UNL1       -0.4540
     14  C          8.9240   -4.7690   -1.1750 C.3     1  UNL1        0.4680
@<TRIPOS>BOND
     1    13    11    1
     2    13    14    1
     3     9    11    2
     4     9     7    1
     5    11    10    1
     6    14    12    1
     7     7     6    2
     8    10    12    1
     9    10     8    2
    10     6     8    1
    11     6     5    1
    12     3     2    1
    13     5     1    1
    14     2     1    1
    15     2     4    2
