@<TRIPOS>MOLECULE
/home/cewinharhar/GITHUB/reincatalyze/data/processed/docking_pred/2023-May-31-1603_sub9_nm5_bs15_s42_ex16_mel10_mts1000_k50_ec05_g099_lra3e-4_lrc9e-3/035d1107efb5fe3e99d2a33353f0da4e413613a6_ligand_9.pdbqt
 14 15 0 0 0
SMALL
GASTEIGER

@<TRIPOS>ATOM
      1  C          5.9190    0.7410    1.9620 C.3     1  UNL1        0.0800
      2  C          4.6410    1.3740    1.5810 C.2     1  UNL1        0.1300
      3  C          3.4180    1.0420    2.3390 C.3     1  UNL1        0.0870
      4  O          4.6220    2.1500    0.6570 O.2     1  UNL1       -0.3000
      5  C          5.8120   -0.7700    1.9390 C.3     1  UNL1        0.0430
      6  C          6.6370   -1.3290    0.8640 C.2     1  UNL1       -0.0440
      7  C          7.5200   -2.3560    1.1270 C.2     1  UNL1        0.0080
      8  C          6.5650   -0.8580   -0.4350 C.2     1  UNL1        0.0540
      9  C          8.3220   -2.9140    0.1350 C.2     1  UNL1        0.0510
     10  C          7.3540   -1.3960   -1.4480 C.2     1  UNL1        0.1660
     11  C          8.2280   -2.4220   -1.1540 C.2     1  UNL1        0.1650
     12  O          7.4960   -1.1350   -2.8110 O.2     1  UNL1       -0.4540
     13  O          8.8830   -2.7680   -2.3270 O.2     1  UNL1       -0.4540
     14  C          8.6300   -1.7840   -3.3260 C.3     1  UNL1        0.4680
@<TRIPOS>BOND
     1    14    12    1
     2    14    13    1
     3    12    10    1
     4    13    11    1
     5    10    11    2
     6    10     8    1
     7    11     9    1
     8     8     6    2
     9     9     7    2
    10     4     2    2
    11     6     7    1
    12     6     5    1
    13     2     1    1
    14     2     3    1
    15     5     1    1
