@<TRIPOS>MOLECULE
/home/cewinharhar/GITHUB/reincatalyze/data/processed/docking_pred/2023-May-31-1603_sub9_nm5_bs15_s42_ex16_mel10_mts1000_k50_ec05_g099_lra3e-4_lrc9e-3/035d1107efb5fe3e99d2a33353f0da4e413613a6_ligand_9.pdbqt
 14 15 0 0 0
SMALL
GASTEIGER

@<TRIPOS>ATOM
      1  C          7.9090   -1.6840   -2.4310 C.3     1  UNL1        0.0800
      2  C          8.7220   -0.4590   -2.5670 C.2     1  UNL1        0.1300
      3  C          8.1990    0.6680   -3.3660 C.3     1  UNL1        0.0870
      4  O          9.7980   -0.4030   -2.0240 O.2     1  UNL1       -0.3000
      5  C          8.0900   -2.3130   -1.0650 C.3     1  UNL1        0.0430
      6  C          7.2880   -1.6060   -0.0620 C.2     1  UNL1       -0.0440
      7  C          7.2380   -2.0630    1.2390 C.2     1  UNL1        0.0080
      8  C          6.5590   -0.4720   -0.3740 C.2     1  UNL1        0.0540
      9  C          6.4880   -1.4220    2.2200 C.2     1  UNL1        0.0510
     10  C          5.8000    0.1920    0.5870 C.2     1  UNL1        0.1660
     11  C          5.7710   -0.2900    1.8790 C.2     1  UNL1        0.1650
     12  O          4.9870    1.3250    0.5700 O.2     1  UNL1       -0.4540
     13  O          4.9500    0.5450    2.6230 O.2     1  UNL1       -0.4540
     14  C          4.2320    1.4130    1.7500 C.3     1  UNL1        0.4680
@<TRIPOS>BOND
     1     3     2    1
     2     2     1    1
     3     2     4    2
     4     1     5    1
     5     5     6    1
     6     8     6    2
     7     8    10    1
     8     6     7    1
     9    12    10    1
    10    12    14    1
    11    10    11    2
    12     7     9    2
    13    14    13    1
    14    11     9    1
    15    11    13    1
