MODEL 1
REMARK VINA RESULT:      -6.7      0.000      0.000
REMARK SMILES CC(=O)CCc1ccc2c(c1)OCO2
REMARK SMILES IDX 4 1 2 2 1 3 3 4 5 5 6 6 7 7 11 8 8 9 10 10 9 11 12 12 14 13
REMARK SMILES IDX 13 14
REMARK H PARENT
REMARK Flexibility Score: inf
ROOT
ATOM      1  C   UNL     1       5.364  -0.318   2.063  1.00  0.00     0.080 C 
ENDROOT
BRANCH   1   2
ATOM      2  C   UNL     1       4.460   0.842   1.932  1.00  0.00     0.130 C 
ATOM      3  C   UNL     1       4.711   1.835   0.868  1.00  0.00     0.087 C 
ATOM      4  O   UNL     1       3.535   0.955   2.697  1.00  0.00    -0.300 OA
ENDBRANCH   1   2
BRANCH   1   5
ATOM      5  C   UNL     1       6.775   0.035   1.640  1.00  0.00     0.043 C 
BRANCH   5   6
ATOM      6  C   UNL     1       7.257  -0.902   0.621  1.00  0.00    -0.044 A 
ATOM      7  C   UNL     1       7.078  -0.627  -0.719  1.00  0.00     0.008 A 
ATOM      8  C   UNL     1       7.899  -2.081   0.956  1.00  0.00     0.054 A 
ATOM      9  C   UNL     1       7.520  -1.491  -1.717  1.00  0.00     0.051 A 
ATOM     10  C   UNL     1       8.353  -2.965  -0.021  1.00  0.00     0.166 A 
ATOM     11  C   UNL     1       8.159  -2.661  -1.352  1.00  0.00     0.165 A 
ATOM     12  O   UNL     1       9.014  -4.192   0.012  1.00  0.00    -0.454 OA
ATOM     13  O   UNL     1       8.698  -3.695  -2.104  1.00  0.00    -0.454 OA
ATOM     14  C   UNL     1       9.001  -4.799  -1.254  1.00  0.00     0.468 C 
ENDBRANCH   5   6
ENDBRANCH   1   5
TORSDOF 3
ENDMDL
MODEL 2
REMARK VINA RESULT:      -6.0      1.031      1.984
REMARK SMILES CC(=O)CCc1ccc2c(c1)OCO2
REMARK SMILES IDX 4 1 2 2 1 3 3 4 5 5 6 6 7 7 11 8 8 9 10 10 9 11 12 12 14 13
REMARK SMILES IDX 13 14
REMARK H PARENT
REMARK Flexibility Score: inf
ROOT
ATOM      1  C   UNL     1       5.072  -0.202   2.143  1.00  0.00     0.080 C 
ENDROOT
BRANCH   1   2
ATOM      2  C   UNL     1       4.249   1.008   1.943  1.00  0.00     0.130 C 
ATOM      3  C   UNL     1       4.611   1.957   0.871  1.00  0.00     0.087 C 
ATOM      4  O   UNL     1       3.297   1.197   2.660  1.00  0.00    -0.300 OA
ENDBRANCH   1   2
BRANCH   1   5
ATOM      5  C   UNL     1       6.545   0.100   1.959  1.00  0.00     0.043 C 
BRANCH   5   6
ATOM      6  C   UNL     1       7.117  -0.749   0.911  1.00  0.00    -0.044 A 
ATOM      7  C   UNL     1       7.631  -1.991   1.223  1.00  0.00     0.008 A 
ATOM      8  C   UNL     1       7.165  -0.347  -0.413  1.00  0.00     0.054 A 
ATOM      9  C   UNL     1       8.184  -2.827   0.257  1.00  0.00     0.051 A 
ATOM     10  C   UNL     1       7.712  -1.162  -1.401  1.00  0.00     0.166 A 
ATOM     11  C   UNL     1       8.218  -2.398  -1.056  1.00  0.00     0.165 A 
ATOM     12  O   UNL     1       7.893  -1.031  -2.777  1.00  0.00    -0.454 OA
ATOM     13  O   UNL     1       8.696  -2.996  -2.214  1.00  0.00    -0.454 OA
ATOM     14  C   UNL     1       8.744  -2.036  -3.265  1.00  0.00     0.468 C 
ENDBRANCH   5   6
ENDBRANCH   1   5
TORSDOF 3
ENDMDL
MODEL 3
REMARK VINA RESULT:      -5.8      1.352      2.283
REMARK SMILES CC(=O)CCc1ccc2c(c1)OCO2
REMARK SMILES IDX 4 1 2 2 1 3 3 4 5 5 6 6 7 7 11 8 8 9 10 10 9 11 12 12 14 13
REMARK SMILES IDX 13 14
REMARK H PARENT
REMARK Flexibility Score: inf
ROOT
ATOM      1  C   UNL     1       5.919   0.741   1.962  1.00  0.00     0.080 C 
ENDROOT
BRANCH   1   2
ATOM      2  C   UNL     1       4.641   1.374   1.581  1.00  0.00     0.130 C 
ATOM      3  C   UNL     1       3.418   1.042   2.339  1.00  0.00     0.087 C 
ATOM      4  O   UNL     1       4.622   2.150   0.657  1.00  0.00    -0.300 OA
ENDBRANCH   1   2
BRANCH   1   5
ATOM      5  C   UNL     1       5.812  -0.770   1.939  1.00  0.00     0.043 C 
BRANCH   5   6
ATOM      6  C   UNL     1       6.637  -1.329   0.864  1.00  0.00    -0.044 A 
ATOM      7  C   UNL     1       7.520  -2.356   1.127  1.00  0.00     0.008 A 
ATOM      8  C   UNL     1       6.565  -0.858  -0.435  1.00  0.00     0.054 A 
ATOM      9  C   UNL     1       8.322  -2.914   0.135  1.00  0.00     0.051 A 
ATOM     10  C   UNL     1       7.354  -1.396  -1.448  1.00  0.00     0.166 A 
ATOM     11  C   UNL     1       8.228  -2.422  -1.154  1.00  0.00     0.165 A 
ATOM     12  O   UNL     1       7.496  -1.135  -2.811  1.00  0.00    -0.454 OA
ATOM     13  O   UNL     1       8.883  -2.768  -2.327  1.00  0.00    -0.454 OA
ATOM     14  C   UNL     1       8.630  -1.784  -3.326  1.00  0.00     0.468 C 
ENDBRANCH   5   6
ENDBRANCH   1   5
TORSDOF 3
ENDMDL
MODEL 4
REMARK VINA RESULT:      -5.7      1.847      5.464
REMARK SMILES CC(=O)CCc1ccc2c(c1)OCO2
REMARK SMILES IDX 4 1 2 2 1 3 3 4 5 5 6 6 7 7 11 8 8 9 10 10 9 11 12 12 14 13
REMARK SMILES IDX 13 14
REMARK H PARENT
REMARK Flexibility Score: inf
ROOT
ATOM      1  C   UNL     1       7.909  -1.684  -2.431  1.00  0.00     0.080 C 
ENDROOT
BRANCH   1   2
ATOM      2  C   UNL     1       8.722  -0.459  -2.567  1.00  0.00     0.130 C 
ATOM      3  C   UNL     1       8.199   0.668  -3.366  1.00  0.00     0.087 C 
ATOM      4  O   UNL     1       9.798  -0.403  -2.024  1.00  0.00    -0.300 OA
ENDBRANCH   1   2
BRANCH   1   5
ATOM      5  C   UNL     1       8.090  -2.313  -1.065  1.00  0.00     0.043 C 
BRANCH   5   6
ATOM      6  C   UNL     1       7.288  -1.606  -0.062  1.00  0.00    -0.044 A 
ATOM      7  C   UNL     1       7.238  -2.063   1.239  1.00  0.00     0.008 A 
ATOM      8  C   UNL     1       6.559  -0.472  -0.374  1.00  0.00     0.054 A 
ATOM      9  C   UNL     1       6.488  -1.422   2.220  1.00  0.00     0.051 A 
ATOM     10  C   UNL     1       5.800   0.192   0.587  1.00  0.00     0.166 A 
ATOM     11  C   UNL     1       5.771  -0.290   1.879  1.00  0.00     0.165 A 
ATOM     12  O   UNL     1       4.987   1.325   0.570  1.00  0.00    -0.454 OA
ATOM     13  O   UNL     1       4.950   0.545   2.623  1.00  0.00    -0.454 OA
ATOM     14  C   UNL     1       4.232   1.413   1.750  1.00  0.00     0.468 C 
ENDBRANCH   5   6
ENDBRANCH   1   5
TORSDOF 3
ENDMDL
MODEL 5
REMARK VINA RESULT:      -5.7      1.883      2.198
REMARK SMILES CC(=O)CCc1ccc2c(c1)OCO2
REMARK SMILES IDX 4 1 2 2 1 3 3 4 5 5 6 6 7 7 11 8 8 9 10 10 9 11 12 12 14 13
REMARK SMILES IDX 13 14
REMARK H PARENT
REMARK Flexibility Score: inf
ROOT
ATOM      1  C   UNL     1       5.666   0.389   2.442  1.00  0.00     0.080 C 
ENDROOT
BRANCH   1   2
ATOM      2  C   UNL     1       4.495   1.140   1.946  1.00  0.00     0.130 C 
ATOM      3  C   UNL     1       4.608   1.900   0.685  1.00  0.00     0.087 C 
ATOM      4  O   UNL     1       3.470   1.118   2.582  1.00  0.00    -0.300 OA
ENDBRANCH   1   2
BRANCH   1   5
ATOM      5  C   UNL     1       5.764  -0.971   1.784  1.00  0.00     0.043 C 
BRANCH   5   6
ATOM      6  C   UNL     1       6.751  -0.950   0.701  1.00  0.00    -0.044 A 
ATOM      7  C   UNL     1       7.994  -0.385   0.902  1.00  0.00     0.008 A 
ATOM      8  C   UNL     1       6.481  -1.484  -0.547  1.00  0.00     0.054 A 
ATOM      9  C   UNL     1       8.959  -0.344  -0.101  1.00  0.00     0.051 A 
ATOM     10  C   UNL     1       7.426  -1.458  -1.569  1.00  0.00     0.166 A 
ATOM     11  C   UNL     1       8.660  -0.886  -1.336  1.00  0.00     0.165 A 
ATOM     12  O   UNL     1       7.441  -1.905  -2.890  1.00  0.00    -0.454 OA
ATOM     13  O   UNL     1       9.401  -0.991  -2.505  1.00  0.00    -0.454 OA
ATOM     14  C   UNL     1       8.551  -1.388  -3.577  1.00  0.00     0.468 C 
ENDBRANCH   5   6
ENDBRANCH   1   5
TORSDOF 3
ENDMDL
