@<TRIPOS>MOLECULE
/home/cewinharhar/GITHUB/reincatalyze/data/processed/docking_pred/2023-May-31-1603_sub9_nm5_bs15_s42_ex16_mel10_mts1000_k50_ec05_g099_lra3e-4_lrc9e-3/035d1107efb5fe3e99d2a33353f0da4e413613a6_ligand_9.pdbqt
 14 15 0 0 0
SMALL
GASTEIGER

@<TRIPOS>ATOM
      1  C          5.6660    0.3890    2.4420 C.3     1  UNL1        0.0800
      2  C          4.4950    1.1400    1.9460 C.2     1  UNL1        0.1300
      3  C          4.6080    1.9000    0.6850 C.3     1  UNL1        0.0870
      4  O          3.4700    1.1180    2.5820 O.2     1  UNL1       -0.3000
      5  C          5.7640   -0.9710    1.7840 C.3     1  UNL1        0.0430
      6  C          6.7510   -0.9500    0.7010 C.2     1  UNL1       -0.0440
      7  C          7.9940   -0.3850    0.9020 C.2     1  UNL1        0.0080
      8  C          6.4810   -1.4840   -0.5470 C.2     1  UNL1        0.0540
      9  C          8.9590   -0.3440   -0.1010 C.2     1  UNL1        0.0510
     10  C          7.4260   -1.4580   -1.5690 C.2     1  UNL1        0.1660
     11  C          8.6600   -0.8860   -1.3360 C.2     1  UNL1        0.1650
     12  O          7.4410   -1.9050   -2.8900 O.2     1  UNL1       -0.4540
     13  O          9.4010   -0.9910   -2.5050 O.2     1  UNL1       -0.4540
     14  C          8.5510   -1.3880   -3.5770 C.3     1  UNL1        0.4680
@<TRIPOS>BOND
     1    14    12    1
     2    14    13    1
     3    12    10    1
     4    13    11    1
     5    10    11    2
     6    10     8    1
     7    11     9    1
     8     8     6    2
     9     9     7    2
    10     3     2    1
    11     6     7    1
    12     6     5    1
    13     5     1    1
    14     2     1    1
    15     2     4    2
