@<TRIPOS>MOLECULE
/home/cewinharhar/GITHUB/reincatalyze/data/processed/docking_pred/2023-May-31-1603_sub9_nm5_bs15_s42_ex16_mel10_mts1000_k50_ec05_g099_lra3e-4_lrc9e-3/035d1107efb5fe3e99d2a33353f0da4e413613a6_ligand_9.pdbqt
 14 15 0 0 0
SMALL
GASTEIGER

@<TRIPOS>ATOM
      1  C          5.3640   -0.3180    2.0630 C.3     1  UNL1        0.0800
      2  C          4.4600    0.8420    1.9320 C.2     1  UNL1        0.1300
      3  C          4.7110    1.8350    0.8680 C.3     1  UNL1        0.0870
      4  O          3.5350    0.9550    2.6970 O.2     1  UNL1       -0.3000
      5  C          6.7750    0.0350    1.6400 C.3     1  UNL1        0.0430
      6  C          7.2570   -0.9020    0.6210 C.2     1  UNL1       -0.0440
      7  C          7.0780   -0.6270   -0.7190 C.2     1  UNL1        0.0080
      8  C          7.8990   -2.0810    0.9560 C.2     1  UNL1        0.0540
      9  C          7.5200   -1.4910   -1.7170 C.2     1  UNL1        0.0510
     10  C          8.3530   -2.9650   -0.0210 C.2     1  UNL1        0.1660
     11  C          8.1590   -2.6610   -1.3520 C.2     1  UNL1        0.1650
     12  O          9.0140   -4.1920    0.0120 O.2     1  UNL1       -0.4540
     13  O          8.6980   -3.6950   -2.1040 O.2     1  UNL1       -0.4540
     14  C          9.0010   -4.7990   -1.2540 C.3     1  UNL1        0.4680
@<TRIPOS>BOND
     1    13    11    1
     2    13    14    1
     3     9    11    2
     4     9     7    1
     5    11    10    1
     6    14    12    1
     7     7     6    2
     8    10    12    1
     9    10     8    2
    10     6     8    1
    11     6     5    1
    12     3     2    1
    13     5     1    1
    14     2     1    1
    15     2     4    2
