@<TRIPOS>MOLECULE
/home/cewinharhar/GITHUB/reincatalyze/data/processed/docking_pred/2023-May-31-1603_sub9_nm5_bs15_s42_ex16_mel10_mts1000_k50_ec05_g099_lra3e-4_lrc9e-3/035d1107efb5fe3e99d2a33353f0da4e413613a6_ligand_9.pdbqt
 14 15 0 0 0
SMALL
GASTEIGER

@<TRIPOS>ATOM
      1  C          5.0720   -0.2020    2.1430 C.3     1  UNL1        0.0800
      2  C          4.2490    1.0080    1.9430 C.2     1  UNL1        0.1300
      3  C          4.6110    1.9570    0.8710 C.3     1  UNL1        0.0870
      4  O          3.2970    1.1970    2.6600 O.2     1  UNL1       -0.3000
      5  C          6.5450    0.1000    1.9590 C.3     1  UNL1        0.0430
      6  C          7.1170   -0.7490    0.9110 C.2     1  UNL1       -0.0440
      7  C          7.6310   -1.9910    1.2230 C.2     1  UNL1        0.0080
      8  C          7.1650   -0.3470   -0.4130 C.2     1  UNL1        0.0540
      9  C          8.1840   -2.8270    0.2570 C.2     1  UNL1        0.0510
     10  C          7.7120   -1.1620   -1.4010 C.2     1  UNL1        0.1660
     11  C          8.2180   -2.3980   -1.0560 C.2     1  UNL1        0.1650
     12  O          7.8930   -1.0310   -2.7770 O.2     1  UNL1       -0.4540
     13  O          8.6960   -2.9960   -2.2140 O.2     1  UNL1       -0.4540
     14  C          8.7440   -2.0360   -3.2650 C.3     1  UNL1        0.4680
@<TRIPOS>BOND
     1    14    12    1
     2    14    13    1
     3    12    10    1
     4    13    11    1
     5    10    11    2
     6    10     8    1
     7    11     9    1
     8     8     6    2
     9     9     7    2
    10     3     2    1
    11     6     7    1
    12     6     5    1
    13     2     1    1
    14     2     4    2
    15     5     1    1
