@<TRIPOS>MOLECULE
/home/cewinharhar/GITHUB/reincatalyze/data/processed/docking_pred/2023-May-31-1603_sub9_nm5_bs15_s42_ex16_mel10_mts1000_k50_ec05_g099_lra3e-4_lrc9e-3/04093ca98f76925b46d8e425639cb467aa73d951_ligand_9.pdbqt
 14 15 0 0 0
SMALL
GASTEIGER

@<TRIPOS>ATOM
      1  C          6.8620    0.8400    0.9840 C.3     1  UNL1        0.0800
      2  C          5.4680    1.1100    1.3890 C.2     1  UNL1        0.1300
      3  C          4.6980    2.1480    0.6760 C.3     1  UNL1        0.0870
      4  O          4.9870    0.4760    2.2950 O.2     1  UNL1       -0.3000
      5  C          7.0110    0.8690   -0.5230 C.3     1  UNL1        0.0430
      6  C          7.5360   -0.4090   -1.0130 C.2     1  UNL1       -0.0440
      7  C          7.7550   -0.6010   -2.3620 C.2     1  UNL1        0.0080
      8  C          7.8260   -1.4580   -0.1580 C.2     1  UNL1        0.0540
      9  C          8.2520   -1.8000   -2.8680 C.2     1  UNL1        0.0510
     10  C          8.3240   -2.6680   -0.6350 C.2     1  UNL1        0.1660
     11  C          8.5330   -2.8290   -1.9890 C.2     1  UNL1        0.1650
     12  O          8.6990   -3.8690   -0.0330 O.2     1  UNL1       -0.4540
     13  O          9.0260   -4.1100   -2.1910 O.2     1  UNL1       -0.4540
     14  C          8.8810   -4.8730   -0.9970 C.3     1  UNL1        0.4680
@<TRIPOS>BOND
     1     9     7    1
     2     9    11    2
     3     7     6    2
     4    13    11    1
     5    13    14    1
     6    11    10    1
     7     6     5    1
     8     6     8    1
     9    14    12    1
    10    10     8    2
    11    10    12    1
    12     5     1    1
    13     3     2    1
    14     1     2    1
    15     2     4    2
