@<TRIPOS>MOLECULE
/home/cewinharhar/GITHUB/reincatalyze/data/processed/docking_pred/2023-May-31-1603_sub9_nm5_bs15_s42_ex16_mel10_mts1000_k50_ec05_g099_lra3e-4_lrc9e-3/0493ae4577fb245076a56c9e7bbbfc493763ce5a_ligand_9.pdbqt
 14 15 0 0 0
SMALL
GASTEIGER

@<TRIPOS>ATOM
      1  C          5.6270    1.3290   -0.2140 C.3     1  UNL1        0.0800
      2  C          4.9790    1.2120    1.1080 C.2     1  UNL1        0.1300
      3  C          5.3000    0.0560    1.9680 C.3     1  UNL1        0.0870
      4  O          4.2010    2.0650    1.4580 O.2     1  UNL1       -0.3000
      5  C          7.1290    1.1630   -0.1060 C.3     1  UNL1        0.0430
      6  C          7.5550   -0.0890   -0.7380 C.2     1  UNL1       -0.0440
      7  C          7.5700   -0.2060   -2.1130 C.2     1  UNL1        0.0080
      8  C          7.9510   -1.1870    0.0050 C.2     1  UNL1        0.0540
      9  C          7.9670   -1.3770   -2.7520 C.2     1  UNL1        0.0510
     10  C          8.3540   -2.3720   -0.6060 C.2     1  UNL1        0.1660
     11  C          8.3590   -2.4570   -1.9820 C.2     1  UNL1        0.1650
     12  O          8.7940   -3.6080   -0.1320 O.2     1  UNL1       -0.4540
     13  O          8.7960   -3.7280   -2.3260 O.2     1  UNL1       -0.4540
     14  C          8.8170   -4.5570   -1.1670 C.3     1  UNL1        0.4680
@<TRIPOS>BOND
     1     9     7    1
     2     9    11    2
     3    13    11    1
     4    13    14    1
     5     7     6    2
     6    11    10    1
     7    14    12    1
     8     6     5    1
     9     6     8    1
    10    10    12    1
    11    10     8    2
    12     1     5    1
    13     1     2    1
    14     2     4    2
    15     2     3    1
