@<TRIPOS>MOLECULE
/home/cewinharhar/GITHUB/reincatalyze/data/processed/docking_pred/2023-May-31-1603_sub9_nm5_bs15_s42_ex16_mel10_mts1000_k50_ec05_g099_lra3e-4_lrc9e-3/0493ae4577fb245076a56c9e7bbbfc493763ce5a_ligand_9.pdbqt
 14 15 0 0 0
SMALL
GASTEIGER

@<TRIPOS>ATOM
      1  C          5.5150    1.9070    1.3290 C.3     1  UNL1        0.0800
      2  C          5.0180    0.7030    2.0240 C.2     1  UNL1        0.1300
      3  C          5.9080   -0.4670    2.1630 C.3     1  UNL1        0.0870
      4  O          3.8960    0.7000    2.4650 O.2     1  UNL1       -0.3000
      5  C          5.3610    1.7770   -0.1720 C.3     1  UNL1        0.0430
      6  C          6.4900    1.0380   -0.7440 C.2     1  UNL1       -0.0440
      7  C          7.7840    1.4650   -0.5260 C.2     1  UNL1        0.0080
      8  C          6.3090   -0.0980   -1.5130 C.2     1  UNL1        0.0540
      9  C          8.8840    0.7930   -1.0510 C.2     1  UNL1        0.0510
     10  C          7.3900   -0.7910   -2.0520 C.2     1  UNL1        0.1660
     11  C          8.6710   -0.3390   -1.8150 C.2     1  UNL1        0.1650
     12  O          7.5140   -1.9330   -2.8430 O.2     1  UNL1       -0.4540
     13  O          9.5490   -1.2000   -2.4580 O.2     1  UNL1       -0.4540
     14  C          8.8230   -2.0570   -3.3360 C.3     1  UNL1        0.4680
@<TRIPOS>BOND
     1    14    12    1
     2    14    13    1
     3    12    10    1
     4    13    11    1
     5    10    11    2
     6    10     8    1
     7    11     9    1
     8     8     6    2
     9     9     7    2
    10     6     7    1
    11     6     5    1
    12     5     1    1
    13     1     2    1
    14     2     3    1
    15     2     4    2
