@<TRIPOS>MOLECULE
/home/cewinharhar/GITHUB/reincatalyze/data/processed/docking_pred/2023-May-31-1603_sub9_nm5_bs15_s42_ex16_mel10_mts1000_k50_ec05_g099_lra3e-4_lrc9e-3/051d9442833557c4466992e4bdada3c2de553c76_ligand_9.pdbqt
 14 15 0 0 0
SMALL
GASTEIGER

@<TRIPOS>ATOM
      1  C          8.3140    0.1750   -2.5880 C.3     1  UNL1        0.0800
      2  C          8.0190   -1.2640   -2.7400 C.2     1  UNL1        0.1300
      3  C          9.1270   -2.2010   -3.0190 C.3     1  UNL1        0.0870
      4  O          6.8800   -1.6460   -2.6330 O.2     1  UNL1       -0.3000
      5  C          8.8700    0.4790   -1.2130 C.3     1  UNL1        0.0430
      6  C          7.8110    0.4100   -0.2020 C.2     1  UNL1       -0.0440
      7  C          7.8190   -0.5890    0.7490 C.2     1  UNL1        0.0080
      8  C          6.7770    1.3290   -0.1610 C.2     1  UNL1        0.0540
      9  C          6.8310   -0.6900    1.7250 C.2     1  UNL1        0.0510
     10  C          5.7750    1.2540    0.8040 C.2     1  UNL1        0.1660
     11  C          5.8110    0.2430    1.7410 C.2     1  UNL1        0.1650
     12  O          4.6410    2.0150    1.0870 O.2     1  UNL1       -0.4540
     13  O          4.7110    0.3980    2.5720 O.2     1  UNL1       -0.4540
     14  C          3.8150    1.3510    2.0080 C.3     1  UNL1        0.4680
@<TRIPOS>BOND
     1     3     2    1
     2     2     4    2
     3     2     1    1
     4     1     5    1
     5     5     6    1
     6     6     8    2
     7     6     7    1
     8     8    10    1
     9     7     9    2
    10    10    12    1
    11    10    11    2
    12    12    14    1
    13     9    11    1
    14    11    13    1
    15    14    13    1
