@<TRIPOS>MOLECULE
/home/cewinharhar/GITHUB/reincatalyze/data/processed/docking_pred/2023-May-31-1603_sub9_nm5_bs15_s42_ex16_mel10_mts1000_k50_ec05_g099_lra3e-4_lrc9e-3/05fc2472135fbee8f2c0d268145bdd055e68f396_ligand_9.pdbqt
 14 15 0 0 0
SMALL
GASTEIGER

@<TRIPOS>ATOM
      1  C          6.2730    0.1830    0.9970 C.3     1  UNL1        0.0800
      2  C          5.1320    1.0380    1.3820 C.2     1  UNL1        0.1300
      3  C          4.7310    2.1470    0.4930 C.3     1  UNL1        0.0870
      4  O          4.5520    0.8140    2.4150 O.2     1  UNL1       -0.3000
      5  C          6.6540    0.3960   -0.4530 C.3     1  UNL1        0.0430
      6  C          7.3450   -0.7830   -0.9820 C.2     1  UNL1       -0.0440
      7  C          7.6810   -0.8520   -2.3190 C.2     1  UNL1        0.0080
      8  C          7.6830   -1.8570   -0.1780 C.2     1  UNL1        0.0540
      9  C          8.3370   -1.9540   -2.8610 C.2     1  UNL1        0.0510
     10  C          8.3390   -2.9730   -0.6910 C.2     1  UNL1        0.1660
     11  C          8.6610   -3.0120   -2.0320 C.2     1  UNL1        0.1650
     12  O          8.7940   -4.1700   -0.1410 O.2     1  UNL1       -0.4540
     13  O          9.3000   -4.2180   -2.2780 O.2     1  UNL1       -0.4540
     14  C          9.1510   -5.0780   -1.1510 C.3     1  UNL1        0.4680
@<TRIPOS>BOND
     1     9     7    1
     2     9    11    2
     3     7     6    2
     4    13    11    1
     5    13    14    1
     6    11    10    1
     7    14    12    1
     8     6     5    1
     9     6     8    1
    10    10     8    2
    11    10    12    1
    12     5     1    1
    13     3     2    1
    14     1     2    1
    15     2     4    2
