MODEL 1
REMARK VINA RESULT:      -7.6      0.000      0.000
REMARK SMILES CC(=O)CCc1ccc2c(c1)OCO2
REMARK SMILES IDX 4 1 2 2 1 3 3 4 5 5 6 6 7 7 11 8 8 9 10 10 9 11 12 12 14 13
REMARK SMILES IDX 13 14
REMARK H PARENT
REMARK Flexibility Score: inf
ROOT
ATOM      1  C   UNL     1       5.590   1.862   1.304  1.00  0.00     0.080 C 
ENDROOT
BRANCH   1   2
ATOM      2  C   UNL     1       5.124   0.674   2.046  1.00  0.00     0.130 C 
ATOM      3  C   UNL     1       6.046  -0.464   2.237  1.00  0.00     0.087 C 
ATOM      4  O   UNL     1       4.000   0.657   2.482  1.00  0.00    -0.300 OA
ENDBRANCH   1   2
BRANCH   1   5
ATOM      5  C   UNL     1       5.410   1.683  -0.189  1.00  0.00     0.043 C 
BRANCH   5   6
ATOM      6  C   UNL     1       6.550   0.960  -0.761  1.00  0.00    -0.044 A 
ATOM      7  C   UNL     1       7.834   1.431  -0.584  1.00  0.00     0.008 A 
ATOM      8  C   UNL     1       6.386  -0.204  -1.492  1.00  0.00     0.054 A 
ATOM      9  C   UNL     1       8.943   0.775  -1.112  1.00  0.00     0.051 A 
ATOM     10  C   UNL     1       7.476  -0.882  -2.032  1.00  0.00     0.166 A 
ATOM     11  C   UNL     1       8.748  -0.386  -1.837  1.00  0.00     0.165 A 
ATOM     12  O   UNL     1       7.618  -2.044  -2.790  1.00  0.00    -0.454 OA
ATOM     13  O   UNL     1       9.637  -1.241  -2.471  1.00  0.00    -0.454 OA
ATOM     14  C   UNL     1       8.920  -2.145  -3.307  1.00  0.00     0.468 C 
ENDBRANCH   5   6
ENDBRANCH   1   5
TORSDOF 3
ENDMDL
MODEL 2
REMARK VINA RESULT:      -7.4      1.937      2.362
REMARK SMILES CC(=O)CCc1ccc2c(c1)OCO2
REMARK SMILES IDX 4 1 2 2 1 3 3 4 5 5 6 6 7 7 11 8 8 9 10 10 9 11 12 12 14 13
REMARK SMILES IDX 13 14
REMARK H PARENT
REMARK Flexibility Score: inf
ROOT
ATOM      1  C   UNL     1       5.673   1.236  -0.233  1.00  0.00     0.080 C 
ENDROOT
BRANCH   1   2
ATOM      2  C   UNL     1       5.046   1.231   1.104  1.00  0.00     0.130 C 
ATOM      3  C   UNL     1       5.308   0.102   2.019  1.00  0.00     0.087 C 
ATOM      4  O   UNL     1       4.331   2.149   1.421  1.00  0.00    -0.300 OA
ENDBRANCH   1   2
BRANCH   1   5
ATOM      5  C   UNL     1       7.177   1.080  -0.134  1.00  0.00     0.043 C 
BRANCH   5   6
ATOM      6  C   UNL     1       7.600  -0.202  -0.705  1.00  0.00    -0.044 A 
ATOM      7  C   UNL     1       7.642  -0.375  -2.073  1.00  0.00     0.008 A 
ATOM      8  C   UNL     1       7.968  -1.272   0.091  1.00  0.00     0.054 A 
ATOM      9  C   UNL     1       8.037  -1.577  -2.655  1.00  0.00     0.051 A 
ATOM     10  C   UNL     1       8.368  -2.486  -0.462  1.00  0.00     0.166 A 
ATOM     11  C   UNL     1       8.399  -2.628  -1.834  1.00  0.00     0.165 A 
ATOM     12  O   UNL     1       8.784  -3.706   0.071  1.00  0.00    -0.454 OA
ATOM     13  O   UNL     1       8.828  -3.917  -2.115  1.00  0.00    -0.454 OA
ATOM     14  C   UNL     1       8.815  -4.698  -0.923  1.00  0.00     0.468 C 
ENDBRANCH   5   6
ENDBRANCH   1   5
TORSDOF 3
ENDMDL
MODEL 3
REMARK VINA RESULT:      -7.3      2.085      2.638
REMARK SMILES CC(=O)CCc1ccc2c(c1)OCO2
REMARK SMILES IDX 4 1 2 2 1 3 3 4 5 5 6 6 7 7 11 8 8 9 10 10 9 11 12 12 14 13
REMARK SMILES IDX 13 14
REMARK H PARENT
REMARK Flexibility Score: inf
ROOT
ATOM      1  C   UNL     1       5.454   0.007   1.885  1.00  0.00     0.080 C 
ENDROOT
BRANCH   1   2
ATOM      2  C   UNL     1       4.617   1.197   1.636  1.00  0.00     0.130 C 
ATOM      3  C   UNL     1       5.013   2.148   0.578  1.00  0.00     0.087 C 
ATOM      4  O   UNL     1       3.626   1.369   2.302  1.00  0.00    -0.300 OA
ENDBRANCH   1   2
BRANCH   1   5
ATOM      5  C   UNL     1       6.895   0.256   1.490  1.00  0.00     0.043 C 
BRANCH   5   6
ATOM      6  C   UNL     1       7.340  -0.741   0.512  1.00  0.00    -0.044 A 
ATOM      7  C   UNL     1       7.169  -0.516  -0.839  1.00  0.00     0.008 A 
ATOM      8  C   UNL     1       7.939  -1.928   0.896  1.00  0.00     0.054 A 
ATOM      9  C   UNL     1       7.578  -1.437  -1.800  1.00  0.00     0.051 A 
ATOM     10  C   UNL     1       8.358  -2.868  -0.042  1.00  0.00     0.166 A 
ATOM     11  C   UNL     1       8.173  -2.613  -1.385  1.00  0.00     0.165 A 
ATOM     12  O   UNL     1       8.973  -4.116   0.042  1.00  0.00    -0.454 OA
ATOM     13  O   UNL     1       8.672  -3.697  -2.093  1.00  0.00    -0.454 OA
ATOM     14  C   UNL     1       8.935  -4.774  -1.198  1.00  0.00     0.468 C 
ENDBRANCH   5   6
ENDBRANCH   1   5
TORSDOF 3
ENDMDL
MODEL 4
REMARK VINA RESULT:      -7.1      1.195      1.345
REMARK SMILES CC(=O)CCc1ccc2c(c1)OCO2
REMARK SMILES IDX 4 1 2 2 1 3 3 4 5 5 6 6 7 7 11 8 8 9 10 10 9 11 12 12 14 13
REMARK SMILES IDX 13 14
REMARK H PARENT
REMARK Flexibility Score: inf
ROOT
ATOM      1  C   UNL     1       6.231   1.340   0.937  1.00  0.00     0.080 C 
ENDROOT
BRANCH   1   2
ATOM      2  C   UNL     1       5.554   0.496   1.942  1.00  0.00     0.130 C 
ATOM      3  C   UNL     1       6.271  -0.662   2.512  1.00  0.00     0.087 C 
ATOM      4  O   UNL     1       4.428   0.770   2.278  1.00  0.00    -0.300 OA
ENDBRANCH   1   2
BRANCH   1   5
ATOM      5  C   UNL     1       5.738   1.031  -0.461  1.00  0.00     0.043 C 
BRANCH   5   6
ATOM      6  C   UNL     1       6.695   0.174  -1.167  1.00  0.00    -0.044 A 
ATOM      7  C   UNL     1       7.369   0.647  -2.274  1.00  0.00     0.008 A 
ATOM      8  C   UNL     1       6.956  -1.123  -0.760  1.00  0.00     0.054 A 
ATOM      9  C   UNL     1       8.285  -0.134  -2.972  1.00  0.00     0.051 A 
ATOM     10  C   UNL     1       7.868  -1.928  -1.439  1.00  0.00     0.166 A 
ATOM     11  C   UNL     1       8.526  -1.425  -2.542  1.00  0.00     0.165 A 
ATOM     12  O   UNL     1       8.324  -3.235  -1.268  1.00  0.00    -0.454 OA
ATOM     13  O   UNL     1       9.364  -2.421  -3.023  1.00  0.00    -0.454 OA
ATOM     14  C   UNL     1       9.048  -3.659  -2.394  1.00  0.00     0.468 C 
ENDBRANCH   5   6
ENDBRANCH   1   5
TORSDOF 3
ENDMDL
MODEL 5
REMARK VINA RESULT:      -7.1      1.934      2.566
REMARK SMILES CC(=O)CCc1ccc2c(c1)OCO2
REMARK SMILES IDX 4 1 2 2 1 3 3 4 5 5 6 6 7 7 11 8 8 9 10 10 9 11 12 12 14 13
REMARK SMILES IDX 13 14
REMARK H PARENT
REMARK Flexibility Score: inf
ROOT
ATOM      1  C   UNL     1       6.771   0.786   0.877  1.00  0.00     0.080 C 
ENDROOT
BRANCH   1   2
ATOM      2  C   UNL     1       5.419   1.094   1.384  1.00  0.00     0.130 C 
ATOM      3  C   UNL     1       4.625   2.150   0.724  1.00  0.00     0.087 C 
ATOM      4  O   UNL     1       4.990   0.476   2.327  1.00  0.00    -0.300 OA
ENDBRANCH   1   2
BRANCH   1   5
ATOM      5  C   UNL     1       6.789   0.725  -0.636  1.00  0.00     0.043 C 
BRANCH   5   6
ATOM      6  C   UNL     1       7.402  -0.526  -1.093  1.00  0.00    -0.044 A 
ATOM      7  C   UNL     1       7.684  -0.716  -2.430  1.00  0.00     0.008 A 
ATOM      8  C   UNL     1       7.716  -1.551  -0.217  1.00  0.00     0.054 A 
ATOM      9  C   UNL     1       8.264  -1.889  -2.905  1.00  0.00     0.051 A 
ATOM     10  C   UNL     1       8.297  -2.735  -0.662  1.00  0.00     0.166 A 
ATOM     11  C   UNL     1       8.567  -2.895  -2.006  1.00  0.00     0.165 A 
ATOM     12  O   UNL     1       8.714  -3.909  -0.034  1.00  0.00    -0.454 OA
ATOM     13  O   UNL     1       9.137  -4.148  -2.176  1.00  0.00    -0.454 OA
ATOM     14  C   UNL     1       8.988  -4.909  -0.981  1.00  0.00     0.468 C 
ENDBRANCH   5   6
ENDBRANCH   1   5
TORSDOF 3
ENDMDL
