@<TRIPOS>MOLECULE
/home/cewinharhar/GITHUB/reincatalyze/data/processed/docking_pred/2023-May-31-1603_sub9_nm5_bs15_s42_ex16_mel10_mts1000_k50_ec05_g099_lra3e-4_lrc9e-3/074f71e156faecc69724e62cc987f5104d3c940c_ligand_9.pdbqt
 14 15 0 0 0
SMALL
GASTEIGER

@<TRIPOS>ATOM
      1  C          6.7710    0.7860    0.8770 C.3     1  UNL1        0.0800
      2  C          5.4190    1.0940    1.3840 C.2     1  UNL1        0.1300
      3  C          4.6250    2.1500    0.7240 C.3     1  UNL1        0.0870
      4  O          4.9900    0.4760    2.3270 O.2     1  UNL1       -0.3000
      5  C          6.7890    0.7250   -0.6360 C.3     1  UNL1        0.0430
      6  C          7.4020   -0.5260   -1.0930 C.2     1  UNL1       -0.0440
      7  C          7.6840   -0.7160   -2.4300 C.2     1  UNL1        0.0080
      8  C          7.7160   -1.5510   -0.2170 C.2     1  UNL1        0.0540
      9  C          8.2640   -1.8890   -2.9050 C.2     1  UNL1        0.0510
     10  C          8.2970   -2.7350   -0.6620 C.2     1  UNL1        0.1660
     11  C          8.5670   -2.8950   -2.0060 C.2     1  UNL1        0.1650
     12  O          8.7140   -3.9090   -0.0340 O.2     1  UNL1       -0.4540
     13  O          9.1370   -4.1480   -2.1760 O.2     1  UNL1       -0.4540
     14  C          8.9880   -4.9090   -0.9810 C.3     1  UNL1        0.4680
@<TRIPOS>BOND
     1     9     7    1
     2     9    11    2
     3     7     6    2
     4    13    11    1
     5    13    14    1
     6    11    10    1
     7     6     5    1
     8     6     8    1
     9    14    12    1
    10    10     8    2
    11    10    12    1
    12     5     1    1
    13     3     2    1
    14     1     2    1
    15     2     4    2
