@<TRIPOS>MOLECULE
/home/cewinharhar/GITHUB/reincatalyze/data/processed/docking_pred/2023-May-31-1603_sub9_nm5_bs15_s42_ex16_mel10_mts1000_k50_ec05_g099_lra3e-4_lrc9e-3/08a74a7e320cd1ecb560e86b752820c061dfae11_ligand_9.pdbqt
 14 15 0 0 0
SMALL
GASTEIGER

@<TRIPOS>ATOM
      1  C          6.2420    1.3410    0.9050 C.3     1  UNL1        0.0800
      2  C          5.5660    0.5180    1.9280 C.2     1  UNL1        0.1300
      3  C          6.2710   -0.6480    2.4960 C.3     1  UNL1        0.0870
      4  O          4.4510    0.8170    2.2800 O.2     1  UNL1       -0.3000
      5  C          5.7410    1.0070   -0.4860 C.3     1  UNL1        0.0430
      6  C          6.6990    0.1470   -1.1850 C.2     1  UNL1       -0.0440
      7  C          7.3710    0.6120   -2.2970 C.2     1  UNL1        0.0080
      8  C          6.9640   -1.1460   -0.7670 C.2     1  UNL1        0.0540
      9  C          8.2880   -0.1740   -2.9900 C.2     1  UNL1        0.0510
     10  C          7.8760   -1.9550   -1.4400 C.2     1  UNL1        0.1660
     11  C          8.5320   -1.4610   -2.5480 C.2     1  UNL1        0.1650
     12  O          8.3350   -3.2590   -1.2580 O.2     1  UNL1       -0.4540
     13  O          9.3720   -2.4590   -3.0220 O.2     1  UNL1       -0.4540
     14  C          9.0590   -3.6920   -2.3810 C.3     1  UNL1        0.4680
@<TRIPOS>BOND
     1    13    11    1
     2    13    14    1
     3     9    11    2
     4     9     7    1
     5    11    10    1
     6    14    12    1
     7     7     6    2
     8    10    12    1
     9    10     8    2
    10     6     8    1
    11     6     5    1
    12     5     1    1
    13     1     2    1
    14     2     4    2
    15     2     3    1
