MODEL 1
REMARK VINA RESULT:      -7.5      0.000      0.000
REMARK SMILES CC(=O)CCc1ccc2c(c1)OCO2
REMARK SMILES IDX 4 1 2 2 1 3 3 4 5 5 6 6 7 7 11 8 8 9 10 10 9 11 12 12 14 13
REMARK SMILES IDX 13 14
REMARK H PARENT
REMARK Flexibility Score: inf
ROOT
ATOM      1  C   UNL     1       5.624   1.821   1.348  1.00  0.00     0.080 C 
ENDROOT
BRANCH   1   2
ATOM      2  C   UNL     1       5.138   0.626   2.067  1.00  0.00     0.130 C 
ATOM      3  C   UNL     1       6.047  -0.522   2.254  1.00  0.00     0.087 C 
ATOM      4  O   UNL     1       4.007   0.612   2.486  1.00  0.00    -0.300 OA
ENDBRANCH   1   2
BRANCH   1   5
ATOM      5  C   UNL     1       5.434   1.678  -0.147  1.00  0.00     0.043 C 
BRANCH   5   6
ATOM      6  C   UNL     1       6.560   0.953  -0.743  1.00  0.00    -0.044 A 
ATOM      7  C   UNL     1       7.850   1.411  -0.575  1.00  0.00     0.008 A 
ATOM      8  C   UNL     1       6.378  -0.200  -1.486  1.00  0.00     0.054 A 
ATOM      9  C   UNL     1       8.947   0.753  -1.124  1.00  0.00     0.051 A 
ATOM     10  C   UNL     1       7.456  -0.880  -2.048  1.00  0.00     0.166 A 
ATOM     11  C   UNL     1       8.734  -0.397  -1.861  1.00  0.00     0.165 A 
ATOM     12  O   UNL     1       7.579  -2.034  -2.822  1.00  0.00    -0.454 OA
ATOM     13  O   UNL     1       9.609  -1.251  -2.517  1.00  0.00    -0.454 OA
ATOM     14  C   UNL     1       8.874  -2.138  -3.356  1.00  0.00     0.468 C 
ENDBRANCH   5   6
ENDBRANCH   1   5
TORSDOF 3
ENDMDL
MODEL 2
REMARK VINA RESULT:      -7.4      1.944      2.363
REMARK SMILES CC(=O)CCc1ccc2c(c1)OCO2
REMARK SMILES IDX 4 1 2 2 1 3 3 4 5 5 6 6 7 7 11 8 8 9 10 10 9 11 12 12 14 13
REMARK SMILES IDX 13 14
REMARK H PARENT
REMARK Flexibility Score: inf
ROOT
ATOM      1  C   UNL     1       5.681   1.210  -0.292  1.00  0.00     0.080 C 
ENDROOT
BRANCH   1   2
ATOM      2  C   UNL     1       5.090   1.207   1.061  1.00  0.00     0.130 C 
ATOM      3  C   UNL     1       5.327   0.050   1.948  1.00  0.00     0.087 C 
ATOM      4  O   UNL     1       4.424   2.149   1.413  1.00  0.00    -0.300 OA
ENDBRANCH   1   2
BRANCH   1   5
ATOM      5  C   UNL     1       7.190   1.093  -0.232  1.00  0.00     0.043 C 
BRANCH   5   6
ATOM      6  C   UNL     1       7.630  -0.191  -0.784  1.00  0.00    -0.044 A 
ATOM      7  C   UNL     1       7.743  -0.361  -2.148  1.00  0.00     0.008 A 
ATOM      8  C   UNL     1       7.943  -1.268   0.027  1.00  0.00     0.054 A 
ATOM      9  C   UNL     1       8.156  -1.565  -2.713  1.00  0.00     0.051 A 
ATOM     10  C   UNL     1       8.359  -2.485  -0.509  1.00  0.00     0.166 A 
ATOM     11  C   UNL     1       8.462  -2.623  -1.877  1.00  0.00     0.165 A 
ATOM     12  O   UNL     1       8.732  -3.711   0.041  1.00  0.00    -0.454 OA
ATOM     13  O   UNL     1       8.891  -3.916  -2.140  1.00  0.00    -0.454 OA
ATOM     14  C   UNL     1       8.806  -4.700  -0.954  1.00  0.00     0.468 C 
ENDBRANCH   5   6
ENDBRANCH   1   5
TORSDOF 3
ENDMDL
MODEL 3
REMARK VINA RESULT:      -7.3      2.066      2.640
REMARK SMILES CC(=O)CCc1ccc2c(c1)OCO2
REMARK SMILES IDX 4 1 2 2 1 3 3 4 5 5 6 6 7 7 11 8 8 9 10 10 9 11 12 12 14 13
REMARK SMILES IDX 13 14
REMARK H PARENT
REMARK Flexibility Score: inf
ROOT
ATOM      1  C   UNL     1       5.362  -0.027   2.008  1.00  0.00     0.080 C 
ENDROOT
BRANCH   1   2
ATOM      2  C   UNL     1       4.520   1.162   1.765  1.00  0.00     0.130 C 
ATOM      3  C   UNL     1       4.912   2.121   0.712  1.00  0.00     0.087 C 
ATOM      4  O   UNL     1       3.527   1.324   2.431  1.00  0.00    -0.300 OA
ENDBRANCH   1   2
BRANCH   1   5
ATOM      5  C   UNL     1       6.806   0.238   1.633  1.00  0.00     0.043 C 
BRANCH   5   6
ATOM      6  C   UNL     1       7.263  -0.730   0.632  1.00  0.00    -0.044 A 
ATOM      7  C   UNL     1       7.079  -0.482  -0.713  1.00  0.00     0.008 A 
ATOM      8  C   UNL     1       7.888  -1.912   0.988  1.00  0.00     0.054 A 
ATOM      9  C   UNL     1       7.498  -1.375  -1.695  1.00  0.00     0.051 A 
ATOM     10  C   UNL     1       8.318  -2.825   0.029  1.00  0.00     0.166 A 
ATOM     11  C   UNL     1       8.119  -2.548  -1.308  1.00  0.00     0.165 A 
ATOM     12  O   UNL     1       8.959  -4.063   0.084  1.00  0.00    -0.454 OA
ATOM     13  O   UNL     1       8.635  -3.608  -2.040  1.00  0.00    -0.454 OA
ATOM     14  C   UNL     1       8.925  -4.697  -1.168  1.00  0.00     0.468 C 
ENDBRANCH   5   6
ENDBRANCH   1   5
TORSDOF 3
ENDMDL
MODEL 4
REMARK VINA RESULT:      -7.1      1.213      1.372
REMARK SMILES CC(=O)CCc1ccc2c(c1)OCO2
REMARK SMILES IDX 4 1 2 2 1 3 3 4 5 5 6 6 7 7 11 8 8 9 10 10 9 11 12 12 14 13
REMARK SMILES IDX 13 14
REMARK H PARENT
REMARK Flexibility Score: inf
ROOT
ATOM      1  C   UNL     1       6.242   1.341   0.905  1.00  0.00     0.080 C 
ENDROOT
BRANCH   1   2
ATOM      2  C   UNL     1       5.566   0.518   1.928  1.00  0.00     0.130 C 
ATOM      3  C   UNL     1       6.271  -0.648   2.496  1.00  0.00     0.087 C 
ATOM      4  O   UNL     1       4.451   0.817   2.280  1.00  0.00    -0.300 OA
ENDBRANCH   1   2
BRANCH   1   5
ATOM      5  C   UNL     1       5.741   1.007  -0.486  1.00  0.00     0.043 C 
BRANCH   5   6
ATOM      6  C   UNL     1       6.699   0.147  -1.185  1.00  0.00    -0.044 A 
ATOM      7  C   UNL     1       7.371   0.612  -2.297  1.00  0.00     0.008 A 
ATOM      8  C   UNL     1       6.964  -1.146  -0.767  1.00  0.00     0.054 A 
ATOM      9  C   UNL     1       8.288  -0.174  -2.990  1.00  0.00     0.051 A 
ATOM     10  C   UNL     1       7.876  -1.955  -1.440  1.00  0.00     0.166 A 
ATOM     11  C   UNL     1       8.532  -1.461  -2.548  1.00  0.00     0.165 A 
ATOM     12  O   UNL     1       8.335  -3.259  -1.258  1.00  0.00    -0.454 OA
ATOM     13  O   UNL     1       9.372  -2.459  -3.022  1.00  0.00    -0.454 OA
ATOM     14  C   UNL     1       9.059  -3.692  -2.381  1.00  0.00     0.468 C 
ENDBRANCH   5   6
ENDBRANCH   1   5
TORSDOF 3
ENDMDL
MODEL 5
REMARK VINA RESULT:      -7.0      2.043      2.551
REMARK SMILES CC(=O)CCc1ccc2c(c1)OCO2
REMARK SMILES IDX 4 1 2 2 1 3 3 4 5 5 6 6 7 7 11 8 8 9 10 10 9 11 12 12 14 13
REMARK SMILES IDX 13 14
REMARK H PARENT
REMARK Flexibility Score: inf
ROOT
ATOM      1  C   UNL     1       6.765   0.832   1.363  1.00  0.00     0.080 C 
ENDROOT
BRANCH   1   2
ATOM      2  C   UNL     1       5.324   1.106   1.529  1.00  0.00     0.130 C 
ATOM      3  C   UNL     1       4.673   2.101   0.654  1.00  0.00     0.087 C 
ATOM      4  O   UNL     1       4.707   0.510   2.377  1.00  0.00    -0.300 OA
ENDBRANCH   1   2
BRANCH   1   5
ATOM      5  C   UNL     1       7.190   0.984  -0.083  1.00  0.00     0.043 C 
BRANCH   5   6
ATOM      6  C   UNL     1       7.611  -0.307  -0.634  1.00  0.00    -0.044 A 
ATOM      7  C   UNL     1       7.612  -0.515  -1.998  1.00  0.00     0.008 A 
ATOM      8  C   UNL     1       8.017  -1.353   0.177  1.00  0.00     0.054 A 
ATOM      9  C   UNL     1       8.003  -1.727  -2.561  1.00  0.00     0.051 A 
ATOM     10  C   UNL     1       8.414  -2.576  -0.358  1.00  0.00     0.166 A 
ATOM     11  C   UNL     1       8.404  -2.752  -1.726  1.00  0.00     0.165 A 
ATOM     12  O   UNL     1       8.861  -3.777   0.192  1.00  0.00    -0.454 OA
ATOM     13  O   UNL     1       8.839  -4.043  -1.988  1.00  0.00    -0.454 OA
ATOM     14  C   UNL     1       8.873  -4.793  -0.777  1.00  0.00     0.468 C 
ENDBRANCH   5   6
ENDBRANCH   1   5
TORSDOF 3
ENDMDL
