MODEL 1
REMARK VINA RESULT:      -7.6      0.000      0.000
REMARK SMILES CC(=O)CCc1ccc2c(c1)OCO2
REMARK SMILES IDX 4 1 2 2 1 3 3 4 5 5 6 6 7 7 11 8 8 9 10 10 9 11 12 12 14 13
REMARK SMILES IDX 13 14
REMARK H PARENT
REMARK Flexibility Score: inf
ROOT
ATOM      1  C   UNL     1       5.648   1.786   1.398  1.00  0.00     0.080 C 
ENDROOT
BRANCH   1   2
ATOM      2  C   UNL     1       5.140   0.573   2.070  1.00  0.00     0.130 C 
ATOM      3  C   UNL     1       6.030  -0.595   2.219  1.00  0.00     0.087 C 
ATOM      4  O   UNL     1       4.007   0.562   2.485  1.00  0.00    -0.300 OA
ENDBRANCH   1   2
BRANCH   1   5
ATOM      5  C   UNL     1       5.467   1.697  -0.103  1.00  0.00     0.043 C 
BRANCH   5   6
ATOM      6  C   UNL     1       6.580   0.966  -0.714  1.00  0.00    -0.044 A 
ATOM      7  C   UNL     1       7.876   1.411  -0.555  1.00  0.00     0.008 A 
ATOM      8  C   UNL     1       6.380  -0.180  -1.463  1.00  0.00     0.054 A 
ATOM      9  C   UNL     1       8.961   0.746  -1.120  1.00  0.00     0.051 A 
ATOM     10  C   UNL     1       7.446  -0.867  -2.040  1.00  0.00     0.166 A 
ATOM     11  C   UNL     1       8.730  -0.397  -1.863  1.00  0.00     0.165 A 
ATOM     12  O   UNL     1       7.550  -2.017  -2.823  1.00  0.00    -0.454 OA
ATOM     13  O   UNL     1       9.590  -1.255  -2.532  1.00  0.00    -0.454 OA
ATOM     14  C   UNL     1       8.839  -2.130  -3.370  1.00  0.00     0.468 C 
ENDBRANCH   5   6
ENDBRANCH   1   5
TORSDOF 3
ENDMDL
MODEL 2
REMARK VINA RESULT:      -7.5      1.848      2.277
REMARK SMILES CC(=O)CCc1ccc2c(c1)OCO2
REMARK SMILES IDX 4 1 2 2 1 3 3 4 5 5 6 6 7 7 11 8 8 9 10 10 9 11 12 12 14 13
REMARK SMILES IDX 13 14
REMARK H PARENT
REMARK Flexibility Score: inf
ROOT
ATOM      1  C   UNL     1       5.639   1.239  -0.272  1.00  0.00     0.080 C 
ENDROOT
BRANCH   1   2
ATOM      2  C   UNL     1       5.094   1.205   1.100  1.00  0.00     0.130 C 
ATOM      3  C   UNL     1       5.334   0.014   1.941  1.00  0.00     0.087 C 
ATOM      4  O   UNL     1       4.464   2.150   1.506  1.00  0.00    -0.300 OA
ENDBRANCH   1   2
BRANCH   1   5
ATOM      5  C   UNL     1       7.151   1.148  -0.264  1.00  0.00     0.043 C 
BRANCH   5   6
ATOM      6  C   UNL     1       7.594  -0.115  -0.861  1.00  0.00    -0.044 A 
ATOM      7  C   UNL     1       7.670  -0.249  -2.232  1.00  0.00     0.008 A 
ATOM      8  C   UNL     1       7.948  -1.207  -0.088  1.00  0.00     0.054 A 
ATOM      9  C   UNL     1       8.085  -1.431  -2.839  1.00  0.00     0.051 A 
ATOM     10  C   UNL     1       8.367  -2.402  -0.666  1.00  0.00     0.166 A 
ATOM     11  C   UNL     1       8.432  -2.504  -2.040  1.00  0.00     0.165 A 
ATOM     12  O   UNL     1       8.775  -3.636  -0.158  1.00  0.00    -0.454 OA
ATOM     13  O   UNL     1       8.873  -3.783  -2.348  1.00  0.00    -0.454 OA
ATOM     14  C   UNL     1       8.835  -4.598  -1.179  1.00  0.00     0.468 C 
ENDBRANCH   5   6
ENDBRANCH   1   5
TORSDOF 3
ENDMDL
MODEL 3
REMARK VINA RESULT:      -7.4      2.086      2.650
REMARK SMILES CC(=O)CCc1ccc2c(c1)OCO2
REMARK SMILES IDX 4 1 2 2 1 3 3 4 5 5 6 6 7 7 11 8 8 9 10 10 9 11 12 12 14 13
REMARK SMILES IDX 13 14
REMARK H PARENT
REMARK Flexibility Score: inf
ROOT
ATOM      1  C   UNL     1       5.396  -0.031   1.932  1.00  0.00     0.080 C 
ENDROOT
BRANCH   1   2
ATOM      2  C   UNL     1       4.571   1.169   1.685  1.00  0.00     0.130 C 
ATOM      3  C   UNL     1       4.996   2.135   0.653  1.00  0.00     0.087 C 
ATOM      4  O   UNL     1       3.567   1.335   2.333  1.00  0.00    -0.300 OA
ENDBRANCH   1   2
BRANCH   1   5
ATOM      5  C   UNL     1       6.844   0.213   1.562  1.00  0.00     0.043 C 
BRANCH   5   6
ATOM      6  C   UNL     1       7.292  -0.764   0.565  1.00  0.00    -0.044 A 
ATOM      7  C   UNL     1       7.096  -0.526  -0.780  1.00  0.00     0.008 A 
ATOM      8  C   UNL     1       7.919  -1.943   0.925  1.00  0.00     0.054 A 
ATOM      9  C   UNL     1       7.506  -1.428  -1.758  1.00  0.00     0.051 A 
ATOM     10  C   UNL     1       8.341  -2.865  -0.031  1.00  0.00     0.166 A 
ATOM     11  C   UNL     1       8.130  -2.598  -1.367  1.00  0.00     0.165 A 
ATOM     12  O   UNL     1       8.981  -4.102   0.029  1.00  0.00    -0.454 OA
ATOM     13  O   UNL     1       8.638  -3.664  -2.096  1.00  0.00    -0.454 OA
ATOM     14  C   UNL     1       8.935  -4.746  -1.218  1.00  0.00     0.468 C 
ENDBRANCH   5   6
ENDBRANCH   1   5
TORSDOF 3
ENDMDL
MODEL 4
REMARK VINA RESULT:      -7.2      1.999      2.542
REMARK SMILES CC(=O)CCc1ccc2c(c1)OCO2
REMARK SMILES IDX 4 1 2 2 1 3 3 4 5 5 6 6 7 7 11 8 8 9 10 10 9 11 12 12 14 13
REMARK SMILES IDX 13 14
REMARK H PARENT
REMARK Flexibility Score: inf
ROOT
ATOM      1  C   UNL     1       6.659   0.607   1.344  1.00  0.00     0.080 C 
ENDROOT
BRANCH   1   2
ATOM      2  C   UNL     1       5.276   1.108   1.479  1.00  0.00     0.130 C 
ATOM      3  C   UNL     1       4.794   2.150   0.550  1.00  0.00     0.087 C 
ATOM      4  O   UNL     1       4.569   0.655   2.345  1.00  0.00    -0.300 OA
ENDBRANCH   1   2
BRANCH   1   5
ATOM      5  C   UNL     1       7.200   0.857  -0.048  1.00  0.00     0.043 C 
BRANCH   5   6
ATOM      6  C   UNL     1       7.637  -0.400  -0.664  1.00  0.00    -0.044 A 
ATOM      7  C   UNL     1       7.713  -0.513  -2.037  1.00  0.00     0.008 A 
ATOM      8  C   UNL     1       7.984  -1.505   0.093  1.00  0.00     0.054 A 
ATOM      9  C   UNL     1       8.122  -1.689  -2.661  1.00  0.00     0.051 A 
ATOM     10  C   UNL     1       8.397  -2.694  -0.503  1.00  0.00     0.166 A 
ATOM     11  C   UNL     1       8.462  -2.776  -1.878  1.00  0.00     0.165 A 
ATOM     12  O   UNL     1       8.798  -3.937  -0.014  1.00  0.00    -0.454 OA
ATOM     13  O   UNL     1       8.897  -4.052  -2.205  1.00  0.00    -0.454 OA
ATOM     14  C   UNL     1       8.854  -4.884  -1.049  1.00  0.00     0.468 C 
ENDBRANCH   5   6
ENDBRANCH   1   5
TORSDOF 3
ENDMDL
MODEL 5
REMARK VINA RESULT:      -7.2      1.221      1.387
REMARK SMILES CC(=O)CCc1ccc2c(c1)OCO2
REMARK SMILES IDX 4 1 2 2 1 3 3 4 5 5 6 6 7 7 11 8 8 9 10 10 9 11 12 12 14 13
REMARK SMILES IDX 13 14
REMARK H PARENT
REMARK Flexibility Score: inf
ROOT
ATOM      1  C   UNL     1       6.268   1.292   0.937  1.00  0.00     0.080 C 
ENDROOT
BRANCH   1   2
ATOM      2  C   UNL     1       5.583   0.458   1.944  1.00  0.00     0.130 C 
ATOM      3  C   UNL     1       6.279  -0.720   2.499  1.00  0.00     0.087 C 
ATOM      4  O   UNL     1       4.467   0.756   2.294  1.00  0.00    -0.300 OA
ENDBRANCH   1   2
BRANCH   1   5
ATOM      5  C   UNL     1       5.768   0.988  -0.460  1.00  0.00     0.043 C 
BRANCH   5   6
ATOM      6  C   UNL     1       6.720   0.131  -1.173  1.00  0.00    -0.044 A 
ATOM      7  C   UNL     1       7.384   0.602  -2.286  1.00  0.00     0.008 A 
ATOM      8  C   UNL     1       6.985  -1.165  -0.765  1.00  0.00     0.054 A 
ATOM      9  C   UNL     1       8.295  -0.180  -2.991  1.00  0.00     0.051 A 
ATOM     10  C   UNL     1       7.891  -1.971  -1.450  1.00  0.00     0.166 A 
ATOM     11  C   UNL     1       8.539  -1.471  -2.560  1.00  0.00     0.165 A 
ATOM     12  O   UNL     1       8.349  -3.278  -1.281  1.00  0.00    -0.454 OA
ATOM     13  O   UNL     1       9.374  -2.467  -3.046  1.00  0.00    -0.454 OA
ATOM     14  C   UNL     1       9.064  -3.704  -2.412  1.00  0.00     0.468 C 
ENDBRANCH   5   6
ENDBRANCH   1   5
TORSDOF 3
ENDMDL
