@<TRIPOS>MOLECULE
/home/cewinharhar/GITHUB/reincatalyze/data/processed/docking_pred/2023-May-31-1603_sub9_nm5_bs15_s42_ex16_mel10_mts1000_k50_ec05_g099_lra3e-4_lrc9e-3/08d2e2d4a7c660d60546aaed77652d308bf13ce5_ligand_9.pdbqt
 14 15 0 0 0
SMALL
GASTEIGER

@<TRIPOS>ATOM
      1  C          6.2680    1.2920    0.9370 C.3     1  UNL1        0.0800
      2  C          5.5830    0.4580    1.9440 C.2     1  UNL1        0.1300
      3  C          6.2790   -0.7200    2.4990 C.3     1  UNL1        0.0870
      4  O          4.4670    0.7560    2.2940 O.2     1  UNL1       -0.3000
      5  C          5.7680    0.9880   -0.4600 C.3     1  UNL1        0.0430
      6  C          6.7200    0.1310   -1.1730 C.2     1  UNL1       -0.0440
      7  C          7.3840    0.6020   -2.2860 C.2     1  UNL1        0.0080
      8  C          6.9850   -1.1650   -0.7650 C.2     1  UNL1        0.0540
      9  C          8.2950   -0.1800   -2.9910 C.2     1  UNL1        0.0510
     10  C          7.8910   -1.9710   -1.4500 C.2     1  UNL1        0.1660
     11  C          8.5390   -1.4710   -2.5600 C.2     1  UNL1        0.1650
     12  O          8.3490   -3.2780   -1.2810 O.2     1  UNL1       -0.4540
     13  O          9.3740   -2.4670   -3.0460 O.2     1  UNL1       -0.4540
     14  C          9.0640   -3.7040   -2.4120 C.3     1  UNL1        0.4680
@<TRIPOS>BOND
     1    13    11    1
     2    13    14    1
     3     9    11    2
     4     9     7    1
     5    11    10    1
     6    14    12    1
     7     7     6    2
     8    10    12    1
     9    10     8    2
    10     6     8    1
    11     6     5    1
    12     5     1    1
    13     1     2    1
    14     2     4    2
    15     2     3    1
