@<TRIPOS>MOLECULE
/home/cewinharhar/GITHUB/reincatalyze/data/processed/docking_pred/2023-May-31-1603_sub9_nm5_bs15_s42_ex16_mel10_mts1000_k50_ec05_g099_lra3e-4_lrc9e-3/08e84468c81f1cd513554bb3b422d21af10d92b8_ligand_9.pdbqt
 14 15 0 0 0
SMALL
GASTEIGER

@<TRIPOS>ATOM
      1  C          5.4690   -0.0010    1.8400 C.3     1  UNL1        0.0800
      2  C          4.6190    1.1830    1.6020 C.2     1  UNL1        0.1300
      3  C          4.9710    2.1160    0.5130 C.3     1  UNL1        0.0870
      4  O          3.6530    1.3630    2.3020 O.2     1  UNL1       -0.3000
      5  C          6.9040    0.2630    1.4350 C.3     1  UNL1        0.0430
      6  C          7.3590   -0.7400    0.4680 C.2     1  UNL1       -0.0440
      7  C          7.2120   -0.5180   -0.8860 C.2     1  UNL1        0.0080
      8  C          7.9420   -1.9300    0.8660 C.2     1  UNL1        0.0540
      9  C          7.6300   -1.4460   -1.8370 C.2     1  UNL1        0.0510
     10  C          8.3700   -2.8760   -0.0620 C.2     1  UNL1        0.1660
     11  C          8.2100   -2.6250   -1.4090 C.2     1  UNL1        0.1650
     12  O          8.9760   -4.1280    0.0370 O.2     1  UNL1       -0.4540
     13  O          8.7140   -3.7150   -2.1040 O.2     1  UNL1       -0.4540
     14  C          8.9540   -4.7900   -1.2010 C.3     1  UNL1        0.4680
@<TRIPOS>BOND
     1    13    11    1
     2    13    14    1
     3     9    11    2
     4     9     7    1
     5    11    10    1
     6    14    12    1
     7     7     6    2
     8    10    12    1
     9    10     8    2
    10     6     8    1
    11     6     5    1
    12     3     2    1
    13     5     1    1
    14     2     1    1
    15     2     4    2
