@<TRIPOS>MOLECULE
/home/cewinharhar/GITHUB/reincatalyze/data/processed/docking_pred/2023-May-31-1603_sub9_nm5_bs15_s42_ex16_mel10_mts1000_k50_ec05_g099_lra3e-4_lrc9e-3/08e84468c81f1cd513554bb3b422d21af10d92b8_ligand_9.pdbqt
 14 15 0 0 0
SMALL
GASTEIGER

@<TRIPOS>ATOM
      1  C          6.5700    1.3290    0.3740 C.3     1  UNL1        0.0800
      2  C          5.4240    1.2280    1.3000 C.2     1  UNL1        0.1300
      3  C          5.3020    0.0400    2.1690 C.3     1  UNL1        0.0870
      4  O          4.6100    2.1180    1.3270 O.2     1  UNL1       -0.3000
      5  C          6.1970    0.8550   -1.0150 C.3     1  UNL1        0.0430
      6  C          6.9720   -0.3340   -1.3790 C.2     1  UNL1       -0.0440
      7  C          7.3750   -0.5300   -2.6840 C.2     1  UNL1        0.0080
      8  C          7.3240   -1.2930   -0.4460 C.2     1  UNL1        0.0540
      9  C          8.1110   -1.6470   -3.0710 C.2     1  UNL1        0.0510
     10  C          8.0600   -2.4200   -0.8030 C.2     1  UNL1        0.1660
     11  C          8.4490   -2.5870   -2.1160 C.2     1  UNL1        0.1650
     12  O          8.5490   -3.5230   -0.1030 O.2     1  UNL1       -0.4540
     13  O          9.1600   -3.7760   -2.1980 O.2     1  UNL1       -0.4540
     14  C          9.0000   -4.5140   -0.9890 C.3     1  UNL1        0.4680
@<TRIPOS>BOND
     1     9     7    1
     2     9    11    2
     3     7     6    2
     4    13    11    1
     5    13    14    1
     6    11    10    1
     7     6     5    1
     8     6     8    1
     9     5     1    1
    10    14    12    1
    11    10     8    2
    12    10    12    1
    13     1     2    1
    14     2     4    2
    15     2     3    1
