@<TRIPOS>MOLECULE
/home/cewinharhar/GITHUB/reincatalyze/data/processed/docking_pred/2023-May-31-1603_sub9_nm5_bs15_s42_ex16_mel10_mts1000_k50_ec05_g099_lra3e-4_lrc9e-3/090474ec6ad34f6c7e6271970b3dfdf762d08d64_ligand_9.pdbqt
 14 15 0 0 0
SMALL
GASTEIGER

@<TRIPOS>ATOM
      1  C          5.9250    0.0350    1.6940 C.3     1  UNL1        0.0800
      2  C          4.9290    1.1040    1.4790 C.2     1  UNL1        0.1300
      3  C          5.1070    2.0400    0.3510 C.3     1  UNL1        0.0870
      4  O          3.9890    1.1910    2.2300 O.2     1  UNL1       -0.3000
      5  C          7.0700    0.1470    0.7080 C.3     1  UNL1        0.0430
      6  C          8.3110    0.5080    1.4000 C.2     1  UNL1       -0.0440
      7  C          8.3470    1.5990    2.2430 C.2     1  UNL1        0.0080
      8  C          9.4780   -0.2190    1.2370 C.2     1  UNL1        0.0540
      9  C          9.5050    1.9760    2.9170 C.2     1  UNL1        0.0510
     10  C         10.6520    0.1340    1.8990 C.2     1  UNL1        0.1660
     11  C         10.6550    1.2310    2.7350 C.2     1  UNL1        0.1650
     12  O         11.9430   -0.3920    1.9310 O.2     1  UNL1       -0.4540
     13  O         11.9330    1.3580    3.2600 O.2     1  UNL1       -0.4540
     14  C         12.8280    0.5030    2.5530 C.3     1  UNL1        0.4680
@<TRIPOS>BOND
     1     3     2    1
     2     5     6    1
     3     5     1    1
     4     8     6    2
     5     8    10    1
     6     6     7    1
     7     2     1    1
     8     2     4    2
     9    10    12    1
    10    10    11    2
    11    12    14    1
    12     7     9    2
    13    14    13    1
    14    11     9    1
    15    11    13    1
