@<TRIPOS>MOLECULE
/home/cewinharhar/GITHUB/reincatalyze/data/processed/docking_pred/2023-May-31-1603_sub9_nm5_bs15_s42_ex16_mel10_mts1000_k50_ec05_g099_lra3e-4_lrc9e-3/090474ec6ad34f6c7e6271970b3dfdf762d08d64_ligand_9.pdbqt
 14 15 0 0 0
SMALL
GASTEIGER

@<TRIPOS>ATOM
      1  C          6.5140    1.3150    0.4180 C.3     1  UNL1        0.0800
      2  C          5.3780    1.1330    1.3440 C.2     1  UNL1        0.1300
      3  C          5.2650   -0.1270    2.1080 C.3     1  UNL1        0.0870
      4  O          4.5660    2.0170    1.4590 O.2     1  UNL1       -0.3000
      5  C          6.1460    0.8970   -0.9900 C.3     1  UNL1        0.0430
      6  C          6.9460   -0.2580   -1.4100 C.2     1  UNL1       -0.0440
      7  C          7.3950   -0.3580   -2.7110 C.2     1  UNL1        0.0080
      8  C          7.2770   -1.2770   -0.5350 C.2     1  UNL1        0.0540
      9  C          8.1560   -1.4380   -3.1500 C.2     1  UNL1        0.0510
     10  C          8.0370   -2.3700   -0.9450 C.2     1  UNL1        0.1660
     11  C          8.4710   -2.4410   -2.2530 C.2     1  UNL1        0.1650
     12  O          8.5130   -3.5150   -0.3080 O.2     1  UNL1       -0.4540
     13  O          9.1970   -3.6150   -2.3930 O.2     1  UNL1       -0.4540
     14  C          9.0050   -4.4380   -1.2460 C.3     1  UNL1        0.4680
@<TRIPOS>BOND
     1     9     7    1
     2     9    11    2
     3     7     6    2
     4    13    11    1
     5    13    14    1
     6    11    10    1
     7     6     5    1
     8     6     8    1
     9    14    12    1
    10     5     1    1
    11    10     8    2
    12    10    12    1
    13     1     2    1
    14     2     4    2
    15     2     3    1
