MODEL 1
REMARK VINA RESULT:      -7.9      0.000      0.000
REMARK SMILES CC(=O)CCc1ccc2c(c1)OCO2
REMARK SMILES IDX 4 1 2 2 1 3 3 4 5 5 6 6 7 7 11 8 8 9 10 10 9 11 12 12 14 13
REMARK SMILES IDX 13 14
REMARK H PARENT
REMARK Flexibility Score: inf
ROOT
ATOM      1  C   UNL     1       5.927   1.808   0.731  1.00  0.00     0.080 C 
ENDROOT
BRANCH   1   2
ATOM      2  C   UNL     1       5.610   0.869   1.827  1.00  0.00     0.130 C 
ATOM      3  C   UNL     1       6.667  -0.028   2.335  1.00  0.00     0.087 C 
ATOM      4  O   UNL     1       4.494   0.855   2.283  1.00  0.00    -0.300 OA
ENDBRANCH   1   2
BRANCH   1   5
ATOM      5  C   UNL     1       5.764   1.147  -0.622  1.00  0.00     0.043 C 
BRANCH   5   6
ATOM      6  C   UNL     1       6.985   0.426  -0.993  1.00  0.00    -0.044 A 
ATOM      7  C   UNL     1       8.220   1.023  -0.841  1.00  0.00     0.008 A 
ATOM      8  C   UNL     1       6.950  -0.859  -1.504  1.00  0.00     0.054 A 
ATOM      9  C   UNL     1       9.403   0.373  -1.182  1.00  0.00     0.051 A 
ATOM     10  C   UNL     1       8.116  -1.535  -1.855  1.00  0.00     0.166 A 
ATOM     11  C   UNL     1       9.336  -0.911  -1.690  1.00  0.00     0.165 A 
ATOM     12  O   UNL     1       8.386  -2.799  -2.378  1.00  0.00    -0.454 OA
ATOM     13  O   UNL     1      10.321  -1.793  -2.111  1.00  0.00    -0.454 OA
ATOM     14  C   UNL     1       9.723  -2.887  -2.801  1.00  0.00     0.468 C 
ENDBRANCH   5   6
ENDBRANCH   1   5
TORSDOF 3
ENDMDL
MODEL 2
REMARK VINA RESULT:      -7.8      1.154      2.027
REMARK SMILES CC(=O)CCc1ccc2c(c1)OCO2
REMARK SMILES IDX 4 1 2 2 1 3 3 4 5 5 6 6 7 7 11 8 8 9 10 10 9 11 12 12 14 13
REMARK SMILES IDX 13 14
REMARK H PARENT
REMARK Flexibility Score: inf
ROOT
ATOM      1  C   UNL     1       6.810   0.539   0.964  1.00  0.00     0.080 C 
ENDROOT
BRANCH   1   2
ATOM      2  C   UNL     1       5.492   1.161   1.198  1.00  0.00     0.130 C 
ATOM      3  C   UNL     1       4.979   2.149   0.229  1.00  0.00     0.087 C 
ATOM      4  O   UNL     1       4.860   0.848   2.177  1.00  0.00    -0.300 OA
ENDBRANCH   1   2
BRANCH   1   5
ATOM      5  C   UNL     1       7.481   1.120  -0.264  1.00  0.00     0.043 C 
BRANCH   5   6
ATOM      6  C   UNL     1       8.126   0.063  -1.047  1.00  0.00    -0.044 A 
ATOM      7  C   UNL     1       7.548  -0.391  -2.214  1.00  0.00     0.008 A 
ATOM      8  C   UNL     1       9.322  -0.514  -0.655  1.00  0.00     0.054 A 
ATOM      9  C   UNL     1       8.128  -1.394  -2.987  1.00  0.00     0.051 A 
ATOM     10  C   UNL     1       9.926  -1.518  -1.407  1.00  0.00     0.166 A 
ATOM     11  C   UNL     1       9.322  -1.951  -2.569  1.00  0.00     0.165 A 
ATOM     12  O   UNL     1      11.095  -2.265  -1.268  1.00  0.00    -0.454 OA
ATOM     13  O   UNL     1      10.122  -2.944  -3.116  1.00  0.00    -0.454 OA
ATOM     14  C   UNL     1      11.106  -3.344  -2.167  1.00  0.00     0.468 C 
ENDBRANCH   5   6
ENDBRANCH   1   5
TORSDOF 3
ENDMDL
MODEL 3
REMARK VINA RESULT:      -7.7      0.847      1.664
REMARK SMILES CC(=O)CCc1ccc2c(c1)OCO2
REMARK SMILES IDX 4 1 2 2 1 3 3 4 5 5 6 6 7 7 11 8 8 9 10 10 9 11 12 12 14 13
REMARK SMILES IDX 13 14
REMARK H PARENT
REMARK Flexibility Score: inf
ROOT
ATOM      1  C   UNL     1       5.677   1.496  -0.048  1.00  0.00     0.080 C 
ENDROOT
BRANCH   1   2
ATOM      2  C   UNL     1       5.355   1.207   1.364  1.00  0.00     0.130 C 
ATOM      3  C   UNL     1       6.302   0.411   2.170  1.00  0.00     0.087 C 
ATOM      4  O   UNL     1       4.325   1.627   1.830  1.00  0.00    -0.300 OA
ENDBRANCH   1   2
BRANCH   1   5
ATOM      5  C   UNL     1       7.171   1.631  -0.254  1.00  0.00     0.043 C 
BRANCH   5   6
ATOM      6  C   UNL     1       7.694   0.481  -0.999  1.00  0.00    -0.044 A 
ATOM      7  C   UNL     1       6.884  -0.203  -1.882  1.00  0.00     0.008 A 
ATOM      8  C   UNL     1       8.998   0.043  -0.849  1.00  0.00     0.054 A 
ATOM      9  C   UNL     1       7.342  -1.300  -2.608  1.00  0.00     0.051 A 
ATOM     10  C   UNL     1       9.484  -1.050  -1.562  1.00  0.00     0.166 A 
ATOM     11  C   UNL     1       8.649  -1.714  -2.437  1.00  0.00     0.165 A 
ATOM     12  O   UNL     1      10.715  -1.703  -1.618  1.00  0.00    -0.454 OA
ATOM     13  O   UNL     1       9.374  -2.750  -3.008  1.00  0.00    -0.454 OA
ATOM     14  C   UNL     1      10.599  -2.925  -2.302  1.00  0.00     0.468 C 
ENDBRANCH   5   6
ENDBRANCH   1   5
TORSDOF 3
ENDMDL
MODEL 4
REMARK VINA RESULT:      -7.2      1.087      1.906
REMARK SMILES CC(=O)CCc1ccc2c(c1)OCO2
REMARK SMILES IDX 4 1 2 2 1 3 3 4 5 5 6 6 7 7 11 8 8 9 10 10 9 11 12 12 14 13
REMARK SMILES IDX 13 14
REMARK H PARENT
REMARK Flexibility Score: inf
ROOT
ATOM      1  C   UNL     1       6.374   1.848   0.104  1.00  0.00     0.080 C 
ENDROOT
BRANCH   1   2
ATOM      2  C   UNL     1       5.633   1.358   1.284  1.00  0.00     0.130 C 
ATOM      3  C   UNL     1       6.252   0.335   2.150  1.00  0.00     0.087 C 
ATOM      4  O   UNL     1       4.537   1.805   1.516  1.00  0.00    -0.300 OA
ENDBRANCH   1   2
BRANCH   1   5
ATOM      5  C   UNL     1       6.119   0.973  -1.106  1.00  0.00     0.043 C 
BRANCH   5   6
ATOM      6  C   UNL     1       7.251   0.071  -1.337  1.00  0.00    -0.044 A 
ATOM      7  C   UNL     1       7.075  -1.100  -2.045  1.00  0.00     0.008 A 
ATOM      8  C   UNL     1       8.520   0.351  -0.862  1.00  0.00     0.054 A 
ATOM      9  C   UNL     1       8.124  -1.984  -2.286  1.00  0.00     0.051 A 
ATOM     10  C   UNL     1       9.588  -0.514  -1.087  1.00  0.00     0.166 A 
ATOM     11  C   UNL     1       9.380  -1.677  -1.798  1.00  0.00     0.165 A 
ATOM     12  O   UNL     1      10.939  -0.498  -0.742  1.00  0.00    -0.454 OA
ATOM     13  O   UNL     1      10.592  -2.347  -1.876  1.00  0.00    -0.454 OA
ATOM     14  C   UNL     1      11.528  -1.750  -0.983  1.00  0.00     0.468 C 
ENDBRANCH   5   6
ENDBRANCH   1   5
TORSDOF 3
ENDMDL
MODEL 5
REMARK VINA RESULT:      -7.1      1.527      2.313
REMARK SMILES CC(=O)CCc1ccc2c(c1)OCO2
REMARK SMILES IDX 4 1 2 2 1 3 3 4 5 5 6 6 7 7 11 8 8 9 10 10 9 11 12 12 14 13
REMARK SMILES IDX 13 14
REMARK H PARENT
REMARK Flexibility Score: inf
ROOT
ATOM      1  C   UNL     1       7.085   0.747   0.511  1.00  0.00     0.080 C 
ENDROOT
BRANCH   1   2
ATOM      2  C   UNL     1       5.713   1.243   0.284  1.00  0.00     0.130 C 
ATOM      3  C   UNL     1       4.784   1.343   1.428  1.00  0.00     0.087 C 
ATOM      4  O   UNL     1       5.378   1.557  -0.832  1.00  0.00    -0.300 OA
ENDBRANCH   1   2
BRANCH   1   5
ATOM      5  C   UNL     1       8.021   1.199  -0.591  1.00  0.00     0.043 C 
BRANCH   5   6
ATOM      6  C   UNL     1       8.588   0.043  -1.292  1.00  0.00    -0.044 A 
ATOM      7  C   UNL     1       8.014  -0.412  -2.461  1.00  0.00     0.008 A 
ATOM      8  C   UNL     1       9.701  -0.627  -0.818  1.00  0.00     0.054 A 
ATOM      9  C   UNL     1       8.520  -1.507  -3.156  1.00  0.00     0.051 A 
ATOM     10  C   UNL     1      10.231  -1.725  -1.492  1.00  0.00     0.166 A 
ATOM     11  C   UNL     1       9.634  -2.156  -2.658  1.00  0.00     0.165 A 
ATOM     12  O   UNL     1      11.312  -2.576  -1.263  1.00  0.00    -0.454 OA
ATOM     13  O   UNL     1      10.350  -3.252  -3.119  1.00  0.00    -0.454 OA
ATOM     14  C   UNL     1      11.249  -3.697  -2.107  1.00  0.00     0.468 C 
ENDBRANCH   5   6
ENDBRANCH   1   5
TORSDOF 3
ENDMDL
