@<TRIPOS>MOLECULE
/home/cewinharhar/GITHUB/reincatalyze/data/processed/docking_pred/2023-May-31-1603_sub9_nm5_bs15_s42_ex16_mel10_mts1000_k50_ec05_g099_lra3e-4_lrc9e-3/09c0e00cbaa22f287e1ef7d21129eabb08ea3244_ligand_9.pdbqt
 14 15 0 0 0
SMALL
GASTEIGER

@<TRIPOS>ATOM
      1  C          6.8100    0.5390    0.9640 C.3     1  UNL1        0.0800
      2  C          5.4920    1.1610    1.1980 C.2     1  UNL1        0.1300
      3  C          4.9790    2.1490    0.2290 C.3     1  UNL1        0.0870
      4  O          4.8600    0.8480    2.1770 O.2     1  UNL1       -0.3000
      5  C          7.4810    1.1200   -0.2640 C.3     1  UNL1        0.0430
      6  C          8.1260    0.0630   -1.0470 C.2     1  UNL1       -0.0440
      7  C          7.5480   -0.3910   -2.2140 C.2     1  UNL1        0.0080
      8  C          9.3220   -0.5140   -0.6550 C.2     1  UNL1        0.0540
      9  C          8.1280   -1.3940   -2.9870 C.2     1  UNL1        0.0510
     10  C          9.9260   -1.5180   -1.4070 C.2     1  UNL1        0.1660
     11  C          9.3220   -1.9510   -2.5690 C.2     1  UNL1        0.1650
     12  O         11.0950   -2.2650   -1.2680 O.2     1  UNL1       -0.4540
     13  O         10.1220   -2.9440   -3.1160 O.2     1  UNL1       -0.4540
     14  C         11.1060   -3.3440   -2.1670 C.3     1  UNL1        0.4680
@<TRIPOS>BOND
     1    13    11    1
     2    13    14    1
     3     9    11    2
     4     9     7    1
     5    11    10    1
     6     7     6    2
     7    14    12    1
     8    10    12    1
     9    10     8    2
    10     6     8    1
    11     6     5    1
    12     5     1    1
    13     3     2    1
    14     1     2    1
    15     2     4    2
