@<TRIPOS>MOLECULE
/home/cewinharhar/GITHUB/reincatalyze/data/processed/docking_pred/2023-May-31-1603_sub9_nm5_bs15_s42_ex16_mel10_mts1000_k50_ec05_g099_lra3e-4_lrc9e-3/09c0e00cbaa22f287e1ef7d21129eabb08ea3244_ligand_9.pdbqt
 14 15 0 0 0
SMALL
GASTEIGER

@<TRIPOS>ATOM
      1  C          6.3740    1.8480    0.1040 C.3     1  UNL1        0.0800
      2  C          5.6330    1.3580    1.2840 C.2     1  UNL1        0.1300
      3  C          6.2520    0.3350    2.1500 C.3     1  UNL1        0.0870
      4  O          4.5370    1.8050    1.5160 O.2     1  UNL1       -0.3000
      5  C          6.1190    0.9730   -1.1060 C.3     1  UNL1        0.0430
      6  C          7.2510    0.0710   -1.3370 C.2     1  UNL1       -0.0440
      7  C          7.0750   -1.1000   -2.0450 C.2     1  UNL1        0.0080
      8  C          8.5200    0.3510   -0.8620 C.2     1  UNL1        0.0540
      9  C          8.1240   -1.9840   -2.2860 C.2     1  UNL1        0.0510
     10  C          9.5880   -0.5140   -1.0870 C.2     1  UNL1        0.1660
     11  C          9.3800   -1.6770   -1.7980 C.2     1  UNL1        0.1650
     12  O         10.9390   -0.4980   -0.7420 O.2     1  UNL1       -0.4540
     13  O         10.5920   -2.3470   -1.8760 O.2     1  UNL1       -0.4540
     14  C         11.5280   -1.7500   -0.9830 C.3     1  UNL1        0.4680
@<TRIPOS>BOND
     1     9     7    1
     2     9    11    2
     3     7     6    2
     4    13    11    1
     5    13    14    1
     6    11    10    1
     7     6     5    1
     8     6     8    1
     9     5     1    1
    10    10     8    2
    11    10    12    1
    12    14    12    1
    13     1     2    1
    14     2     4    2
    15     2     3    1
