@<TRIPOS>MOLECULE
/home/cewinharhar/GITHUB/reincatalyze/data/processed/docking_pred/2023-May-31-1603_sub9_nm5_bs15_s42_ex16_mel10_mts1000_k50_ec05_g099_lra3e-4_lrc9e-3/09c0e00cbaa22f287e1ef7d21129eabb08ea3244_ligand_9.pdbqt
 14 15 0 0 0
SMALL
GASTEIGER

@<TRIPOS>ATOM
      1  C          5.9270    1.8080    0.7310 C.3     1  UNL1        0.0800
      2  C          5.6100    0.8690    1.8270 C.2     1  UNL1        0.1300
      3  C          6.6670   -0.0280    2.3350 C.3     1  UNL1        0.0870
      4  O          4.4940    0.8550    2.2830 O.2     1  UNL1       -0.3000
      5  C          5.7640    1.1470   -0.6220 C.3     1  UNL1        0.0430
      6  C          6.9850    0.4260   -0.9930 C.2     1  UNL1       -0.0440
      7  C          8.2200    1.0230   -0.8410 C.2     1  UNL1        0.0080
      8  C          6.9500   -0.8590   -1.5040 C.2     1  UNL1        0.0540
      9  C          9.4030    0.3730   -1.1820 C.2     1  UNL1        0.0510
     10  C          8.1160   -1.5350   -1.8550 C.2     1  UNL1        0.1660
     11  C          9.3360   -0.9110   -1.6900 C.2     1  UNL1        0.1650
     12  O          8.3860   -2.7990   -2.3780 O.2     1  UNL1       -0.4540
     13  O         10.3210   -1.7930   -2.1110 O.2     1  UNL1       -0.4540
     14  C          9.7230   -2.8870   -2.8010 C.3     1  UNL1        0.4680
@<TRIPOS>BOND
     1    14    12    1
     2    14    13    1
     3    12    10    1
     4    13    11    1
     5    10    11    2
     6    10     8    1
     7    11     9    1
     8     8     6    2
     9     9     7    2
    10     6     7    1
    11     6     5    1
    12     5     1    1
    13     1     2    1
    14     2     4    2
    15     2     3    1
