@<TRIPOS>MOLECULE
/home/cewinharhar/GITHUB/reincatalyze/data/processed/docking_pred/2023-May-31-1603_sub9_nm5_bs15_s42_ex16_mel10_mts1000_k50_ec05_g099_lra3e-4_lrc9e-3/09c0e00cbaa22f287e1ef7d21129eabb08ea3244_ligand_9.pdbqt
 14 15 0 0 0
SMALL
GASTEIGER

@<TRIPOS>ATOM
      1  C          7.0850    0.7470    0.5110 C.3     1  UNL1        0.0800
      2  C          5.7130    1.2430    0.2840 C.2     1  UNL1        0.1300
      3  C          4.7840    1.3430    1.4280 C.3     1  UNL1        0.0870
      4  O          5.3780    1.5570   -0.8320 O.2     1  UNL1       -0.3000
      5  C          8.0210    1.1990   -0.5910 C.3     1  UNL1        0.0430
      6  C          8.5880    0.0430   -1.2920 C.2     1  UNL1       -0.0440
      7  C          8.0140   -0.4120   -2.4610 C.2     1  UNL1        0.0080
      8  C          9.7010   -0.6270   -0.8180 C.2     1  UNL1        0.0540
      9  C          8.5200   -1.5070   -3.1560 C.2     1  UNL1        0.0510
     10  C         10.2310   -1.7250   -1.4920 C.2     1  UNL1        0.1660
     11  C          9.6340   -2.1560   -2.6580 C.2     1  UNL1        0.1650
     12  O         11.3120   -2.5760   -1.2630 O.2     1  UNL1       -0.4540
     13  O         10.3500   -3.2520   -3.1190 O.2     1  UNL1       -0.4540
     14  C         11.2490   -3.6970   -2.1070 C.3     1  UNL1        0.4680
@<TRIPOS>BOND
     1     9    11    2
     2     9     7    1
     3    13    11    1
     4    13    14    1
     5    11    10    1
     6     7     6    2
     7    14    12    1
     8    10    12    1
     9    10     8    2
    10     6     8    1
    11     6     5    1
    12     4     2    2
    13     5     1    1
    14     2     1    1
    15     2     3    1
