@<TRIPOS>MOLECULE
/home/cewinharhar/GITHUB/reincatalyze/data/processed/docking_pred/2023-May-31-1603_sub9_nm5_bs15_s42_ex16_mel10_mts1000_k50_ec05_g099_lra3e-4_lrc9e-3/09c0e00cbaa22f287e1ef7d21129eabb08ea3244_ligand_9.pdbqt
 14 15 0 0 0
SMALL
GASTEIGER

@<TRIPOS>ATOM
      1  C          5.6770    1.4960   -0.0480 C.3     1  UNL1        0.0800
      2  C          5.3550    1.2070    1.3640 C.2     1  UNL1        0.1300
      3  C          6.3020    0.4110    2.1700 C.3     1  UNL1        0.0870
      4  O          4.3250    1.6270    1.8300 O.2     1  UNL1       -0.3000
      5  C          7.1710    1.6310   -0.2540 C.3     1  UNL1        0.0430
      6  C          7.6940    0.4810   -0.9990 C.2     1  UNL1       -0.0440
      7  C          6.8840   -0.2030   -1.8820 C.2     1  UNL1        0.0080
      8  C          8.9980    0.0430   -0.8490 C.2     1  UNL1        0.0540
      9  C          7.3420   -1.3000   -2.6080 C.2     1  UNL1        0.0510
     10  C          9.4840   -1.0500   -1.5620 C.2     1  UNL1        0.1660
     11  C          8.6490   -1.7140   -2.4370 C.2     1  UNL1        0.1650
     12  O         10.7150   -1.7030   -1.6180 O.2     1  UNL1       -0.4540
     13  O          9.3740   -2.7500   -3.0080 O.2     1  UNL1       -0.4540
     14  C         10.5990   -2.9250   -2.3020 C.3     1  UNL1        0.4680
@<TRIPOS>BOND
     1    13    11    1
     2    13    14    1
     3     9    11    2
     4     9     7    1
     5    11    10    1
     6    14    12    1
     7     7     6    2
     8    12    10    1
     9    10     8    2
    10     6     8    1
    11     6     5    1
    12     5     1    1
    13     1     2    1
    14     2     4    2
    15     2     3    1
