@<TRIPOS>MOLECULE
/home/cewinharhar/GITHUB/reincatalyze/data/processed/docking_pred/2023-May-31-1603_sub9_nm5_bs15_s42_ex16_mel10_mts1000_k50_ec05_g099_lra3e-4_lrc9e-3/0bc78f1071f374665515956646110ea4a2a90639_ligand_9.pdbqt
 14 15 0 0 0
SMALL
GASTEIGER

@<TRIPOS>ATOM
      1  C          5.6760    1.1390   -0.2800 C.3     1  UNL1        0.0800
      2  C          5.1350    1.1970    1.0930 C.2     1  UNL1        0.1300
      3  C          5.4180    0.0870    2.0260 C.3     1  UNL1        0.0870
      4  O          4.4740    2.1490    1.4250 O.2     1  UNL1       -0.3000
      5  C          7.1880    1.0480   -0.2700 C.3     1  UNL1        0.0430
      6  C          7.6300   -0.2340   -0.8260 C.2     1  UNL1       -0.0440
      7  C          7.7310   -0.4040   -2.1920 C.2     1  UNL1        0.0080
      8  C          7.9570   -1.3090   -0.0180 C.2     1  UNL1        0.0540
      9  C          8.1460   -1.6050   -2.7590 C.2     1  UNL1        0.0510
     10  C          8.3760   -2.5230   -0.5570 C.2     1  UNL1        0.1660
     11  C          8.4660   -2.6610   -1.9270 C.2     1  UNL1        0.1650
     12  O          8.7610   -3.7470   -0.0110 O.2     1  UNL1       -0.4540
     13  O          8.9010   -3.9520   -2.1930 O.2     1  UNL1       -0.4540
     14  C          8.8320   -4.7360   -1.0060 C.3     1  UNL1        0.4680
@<TRIPOS>BOND
     1     9     7    1
     2     9    11    2
     3    13    11    1
     4    13    14    1
     5     7     6    2
     6    11    10    1
     7    14    12    1
     8     6     5    1
     9     6     8    1
    10    10     8    2
    11    10    12    1
    12     1     5    1
    13     1     2    1
    14     2     4    2
    15     2     3    1
