@<TRIPOS>MOLECULE
/home/cewinharhar/GITHUB/reincatalyze/data/processed/docking_pred/2023-May-31-1603_sub9_nm5_bs15_s42_ex16_mel10_mts1000_k50_ec05_g099_lra3e-4_lrc9e-3/0df60b8790b800bbceb9ee276e91b409308b6f54_ligand_9.pdbqt
 14 15 0 0 0
SMALL
GASTEIGER

@<TRIPOS>ATOM
      1  C          5.7400    0.8960    0.3480 C.3     1  UNL1        0.0800
      2  C          5.4650    0.1920    1.6170 C.2     1  UNL1        0.1300
      3  C          6.2480   -1.0130    1.9570 C.3     1  UNL1        0.0870
      4  O          4.6060    0.6170    2.3500 O.2     1  UNL1       -0.3000
      5  C          6.5580    2.1500    0.5810 C.3     1  UNL1        0.0430
      6  C          7.9700    1.8130    0.7820 C.2     1  UNL1       -0.0440
      7  C          8.6810    1.1710   -0.2110 C.2     1  UNL1        0.0080
      8  C          8.6370    2.1210    1.9550 C.2     1  UNL1        0.0540
      9  C         10.0230    0.8330   -0.0600 C.2     1  UNL1        0.0510
     10  C          9.9790    1.7960    2.1350 C.2     1  UNL1        0.1660
     11  C         10.6620    1.1540    1.1230 C.2     1  UNL1        0.1650
     12  O         10.8900    1.9740    3.1760 O.2     1  UNL1       -0.4540
     13  O         11.9650    0.9500    1.5560 O.2     1  UNL1       -0.4540
     14  C         12.0530    1.2190    2.9520 C.3     1  UNL1        0.4680
@<TRIPOS>BOND
     1     7     9    1
     2     7     6    2
     3     9    11    2
     4     1     5    1
     5     1     2    1
     6     5     6    1
     7     6     8    1
     8    11    13    1
     9    11    10    1
    10    13    14    1
    11     2     3    1
    12     2     4    2
    13     8    10    2
    14    10    12    1
    15    14    12    1
