@<TRIPOS>MOLECULE
/home/cewinharhar/GITHUB/reincatalyze/data/processed/docking_pred/2023-May-31-1603_sub9_nm5_bs15_s42_ex16_mel10_mts1000_k50_ec05_g099_lra3e-4_lrc9e-3/0df60b8790b800bbceb9ee276e91b409308b6f54_ligand_9.pdbqt
 14 15 0 0 0
SMALL
GASTEIGER

@<TRIPOS>ATOM
      1  C          6.5180    1.2960    0.4120 C.3     1  UNL1        0.0800
      2  C          5.3370    1.1830    1.2900 C.2     1  UNL1        0.1300
      3  C          5.1830   -0.0140    2.1410 C.3     1  UNL1        0.0870
      4  O          4.5200    2.0710    1.2930 O.2     1  UNL1       -0.3000
      5  C          6.1950    0.8600   -1.0020 C.3     1  UNL1        0.0430
      6  C          6.9570   -0.3410   -1.3580 C.2     1  UNL1       -0.0440
      7  C          7.3410   -0.5610   -2.6650 C.2     1  UNL1        0.0080
      8  C          7.3140   -1.2870   -0.4140 C.2     1  UNL1        0.0540
      9  C          8.0630   -1.6890   -3.0440 C.2     1  UNL1        0.0510
     10  C          8.0370   -2.4250   -0.7640 C.2     1  UNL1        0.1660
     11  C          8.4060   -2.6160   -2.0790 C.2     1  UNL1        0.1650
     12  O          8.5270   -3.5210   -0.0530 O.2     1  UNL1       -0.4540
     13  O          9.1070   -3.8120   -2.1510 O.2     1  UNL1       -0.4540
     14  C          8.9590   -4.5290   -0.9300 C.3     1  UNL1        0.4680
@<TRIPOS>BOND
     1     9     7    1
     2     9    11    2
     3     7     6    2
     4    13    11    1
     5    13    14    1
     6    11    10    1
     7     6     5    1
     8     6     8    1
     9     5     1    1
    10    14    12    1
    11    10     8    2
    12    10    12    1
    13     1     2    1
    14     2     4    2
    15     2     3    1
