MODEL 1
REMARK VINA RESULT:      -7.1      0.000      0.000
REMARK SMILES CC(=O)CCc1ccc2c(c1)OCO2
REMARK SMILES IDX 4 1 2 2 1 3 3 4 5 5 6 6 7 7 11 8 8 9 10 10 9 11 12 12 14 13
REMARK SMILES IDX 13 14
REMARK H PARENT
REMARK Flexibility Score: inf
ROOT
ATOM      1  C   UNL     1       9.716   1.310   2.621  1.00  0.00     0.080 C 
ENDROOT
BRANCH   1   2
ATOM      2  C   UNL     1      11.151   0.963   2.660  1.00  0.00     0.130 C 
ATOM      3  C   UNL     1      12.056   1.735   3.535  1.00  0.00     0.087 C 
ATOM      4  O   UNL     1      11.555   0.055   1.976  1.00  0.00    -0.300 OA
ENDBRANCH   1   2
BRANCH   1   5
ATOM      5  C   UNL     1       9.366   2.053   1.349  1.00  0.00     0.043 C 
BRANCH   5   6
ATOM      6  C   UNL     1       8.644   1.175   0.422  1.00  0.00    -0.044 A 
ATOM      7  C   UNL     1       7.282   0.996   0.550  1.00  0.00     0.008 A 
ATOM      8  C   UNL     1       9.289   0.501  -0.600  1.00  0.00     0.054 A 
ATOM      9  C   UNL     1       6.561   0.171  -0.308  1.00  0.00     0.051 A 
ATOM     10  C   UNL     1       8.594  -0.331  -1.474  1.00  0.00     0.166 A 
ATOM     11  C   UNL     1       7.232  -0.489  -1.320  1.00  0.00     0.165 A 
ATOM     12  O   UNL     1       8.961  -1.116  -2.567  1.00  0.00    -0.454 OA
ATOM     13  O   UNL     1       6.793  -1.358  -2.309  1.00  0.00    -0.454 OA
ATOM     14  C   UNL     1       7.914  -1.975  -2.936  1.00  0.00     0.468 C 
ENDBRANCH   5   6
ENDBRANCH   1   5
TORSDOF 3
ENDMDL
MODEL 2
REMARK VINA RESULT:      -7.0      2.701      3.950
REMARK SMILES CC(=O)CCc1ccc2c(c1)OCO2
REMARK SMILES IDX 4 1 2 2 1 3 3 4 5 5 6 6 7 7 11 8 8 9 10 10 9 11 12 12 14 13
REMARK SMILES IDX 13 14
REMARK H PARENT
REMARK Flexibility Score: inf
ROOT
ATOM      1  C   UNL     1       5.561   1.877   1.413  1.00  0.00     0.080 C 
ENDROOT
BRANCH   1   2
ATOM      2  C   UNL     1       5.026   0.662   2.060  1.00  0.00     0.130 C 
ATOM      3  C   UNL     1       5.883  -0.536   2.163  1.00  0.00     0.087 C 
ATOM      4  O   UNL     1       3.899   0.673   2.491  1.00  0.00    -0.300 OA
ENDBRANCH   1   2
BRANCH   1   5
ATOM      5  C   UNL     1       5.412   1.808  -0.092  1.00  0.00     0.043 C 
BRANCH   5   6
ATOM      6  C   UNL     1       6.526   1.064  -0.687  1.00  0.00    -0.044 A 
ATOM      7  C   UNL     1       7.827   1.466  -0.469  1.00  0.00     0.008 A 
ATOM      8  C   UNL     1       6.321  -0.052  -1.479  1.00  0.00     0.054 A 
ATOM      9  C   UNL     1       8.913   0.787  -1.016  1.00  0.00     0.051 A 
ATOM     10  C   UNL     1       7.386  -0.751  -2.040  1.00  0.00     0.166 A 
ATOM     11  C   UNL     1       8.676  -0.324  -1.803  1.00  0.00     0.165 A 
ATOM     12  O   UNL     1       7.487  -1.878  -2.856  1.00  0.00    -0.454 OA
ATOM     13  O   UNL     1       9.536  -1.186  -2.470  1.00  0.00    -0.454 OA
ATOM     14  C   UNL     1       8.791  -2.011  -3.361  1.00  0.00     0.468 C 
ENDBRANCH   5   6
ENDBRANCH   1   5
TORSDOF 3
ENDMDL
MODEL 3
REMARK VINA RESULT:      -7.0      3.303      4.330
REMARK SMILES CC(=O)CCc1ccc2c(c1)OCO2
REMARK SMILES IDX 4 1 2 2 1 3 3 4 5 5 6 6 7 7 11 8 8 9 10 10 9 11 12 12 14 13
REMARK SMILES IDX 13 14
REMARK H PARENT
REMARK Flexibility Score: inf
ROOT
ATOM      1  C   UNL     1       6.518   1.296   0.412  1.00  0.00     0.080 C 
ENDROOT
BRANCH   1   2
ATOM      2  C   UNL     1       5.337   1.183   1.290  1.00  0.00     0.130 C 
ATOM      3  C   UNL     1       5.183  -0.014   2.141  1.00  0.00     0.087 C 
ATOM      4  O   UNL     1       4.520   2.071   1.293  1.00  0.00    -0.300 OA
ENDBRANCH   1   2
BRANCH   1   5
ATOM      5  C   UNL     1       6.195   0.860  -1.002  1.00  0.00     0.043 C 
BRANCH   5   6
ATOM      6  C   UNL     1       6.957  -0.341  -1.358  1.00  0.00    -0.044 A 
ATOM      7  C   UNL     1       7.341  -0.561  -2.665  1.00  0.00     0.008 A 
ATOM      8  C   UNL     1       7.314  -1.287  -0.414  1.00  0.00     0.054 A 
ATOM      9  C   UNL     1       8.063  -1.689  -3.044  1.00  0.00     0.051 A 
ATOM     10  C   UNL     1       8.037  -2.425  -0.764  1.00  0.00     0.166 A 
ATOM     11  C   UNL     1       8.406  -2.616  -2.079  1.00  0.00     0.165 A 
ATOM     12  O   UNL     1       8.527  -3.521  -0.053  1.00  0.00    -0.454 OA
ATOM     13  O   UNL     1       9.107  -3.812  -2.151  1.00  0.00    -0.454 OA
ATOM     14  C   UNL     1       8.959  -4.529  -0.930  1.00  0.00     0.468 C 
ENDBRANCH   5   6
ENDBRANCH   1   5
TORSDOF 3
ENDMDL
MODEL 4
REMARK VINA RESULT:      -6.8      3.012      4.363
REMARK SMILES CC(=O)CCc1ccc2c(c1)OCO2
REMARK SMILES IDX 4 1 2 2 1 3 3 4 5 5 6 6 7 7 11 8 8 9 10 10 9 11 12 12 14 13
REMARK SMILES IDX 13 14
REMARK H PARENT
REMARK Flexibility Score: inf
ROOT
ATOM      1  C   UNL     1       5.653   0.157   1.913  1.00  0.00     0.080 C 
ENDROOT
BRANCH   1   2
ATOM      2  C   UNL     1       4.694   1.233   1.592  1.00  0.00     0.130 C 
ATOM      3  C   UNL     1       4.988   2.150   0.473  1.00  0.00     0.087 C 
ATOM      4  O   UNL     1       3.689   1.340   2.251  1.00  0.00    -0.300 OA
ENDBRANCH   1   2
BRANCH   1   5
ATOM      5  C   UNL     1       7.023   0.453   1.337  1.00  0.00     0.043 C 
BRANCH   5   6
ATOM      6  C   UNL     1       7.428  -0.602   0.404  1.00  0.00    -0.044 A 
ATOM      7  C   UNL     1       7.250  -0.437  -0.954  1.00  0.00     0.008 A 
ATOM      8  C   UNL     1       7.994  -1.788   0.839  1.00  0.00     0.054 A 
ATOM      9  C   UNL     1       7.620  -1.415  -1.873  1.00  0.00     0.051 A 
ATOM     10  C   UNL     1       8.375  -2.784  -0.056  1.00  0.00     0.166 A 
ATOM     11  C   UNL     1       8.184  -2.588  -1.408  1.00  0.00     0.165 A 
ATOM     12  O   UNL     1       8.953  -4.045   0.082  1.00  0.00    -0.454 OA
ATOM     13  O   UNL     1       8.643  -3.719  -2.068  1.00  0.00    -0.454 OA
ATOM     14  C   UNL     1       8.882  -4.760  -1.124  1.00  0.00     0.468 C 
ENDBRANCH   5   6
ENDBRANCH   1   5
TORSDOF 3
ENDMDL
MODEL 5
REMARK VINA RESULT:      -6.8      2.630      5.189
REMARK SMILES CC(=O)CCc1ccc2c(c1)OCO2
REMARK SMILES IDX 4 1 2 2 1 3 3 4 5 5 6 6 7 7 11 8 8 9 10 10 9 11 12 12 14 13
REMARK SMILES IDX 13 14
REMARK H PARENT
REMARK Flexibility Score: inf
ROOT
ATOM      1  C   UNL     1       5.740   0.896   0.348  1.00  0.00     0.080 C 
ENDROOT
BRANCH   1   2
ATOM      2  C   UNL     1       5.465   0.192   1.617  1.00  0.00     0.130 C 
ATOM      3  C   UNL     1       6.248  -1.013   1.957  1.00  0.00     0.087 C 
ATOM      4  O   UNL     1       4.606   0.617   2.350  1.00  0.00    -0.300 OA
ENDBRANCH   1   2
BRANCH   1   5
ATOM      5  C   UNL     1       6.558   2.150   0.581  1.00  0.00     0.043 C 
BRANCH   5   6
ATOM      6  C   UNL     1       7.970   1.813   0.782  1.00  0.00    -0.044 A 
ATOM      7  C   UNL     1       8.681   1.171  -0.211  1.00  0.00     0.008 A 
ATOM      8  C   UNL     1       8.637   2.121   1.955  1.00  0.00     0.054 A 
ATOM      9  C   UNL     1      10.023   0.833  -0.060  1.00  0.00     0.051 A 
ATOM     10  C   UNL     1       9.979   1.796   2.135  1.00  0.00     0.166 A 
ATOM     11  C   UNL     1      10.662   1.154   1.123  1.00  0.00     0.165 A 
ATOM     12  O   UNL     1      10.890   1.974   3.176  1.00  0.00    -0.454 OA
ATOM     13  O   UNL     1      11.965   0.950   1.556  1.00  0.00    -0.454 OA
ATOM     14  C   UNL     1      12.053   1.219   2.952  1.00  0.00     0.468 C 
ENDBRANCH   5   6
ENDBRANCH   1   5
TORSDOF 3
ENDMDL
