@<TRIPOS>MOLECULE
/home/cewinharhar/GITHUB/reincatalyze/data/processed/docking_pred/2023-May-31-1603_sub9_nm5_bs15_s42_ex16_mel10_mts1000_k50_ec05_g099_lra3e-4_lrc9e-3/104e94148118840ff9051874ebdd157f969f5898_ligand_9.pdbqt
 14 15 0 0 0
SMALL
GASTEIGER

@<TRIPOS>ATOM
      1  C          2.0540   -0.1610    2.8990 C.3     1  UNL1        0.0800
      2  C          0.6350    0.1810    3.1250 C.2     1  UNL1        0.1300
      3  C          0.0290    1.2850    2.3550 C.3     1  UNL1        0.0870
      4  O          0.0000   -0.4490    3.9350 O.2     1  UNL1       -0.3000
      5  C          2.8220    1.0220    2.3480 C.3     1  UNL1        0.0430
      6  C          4.2320    0.6720    2.1490 C.2     1  UNL1       -0.0440
      7  C          5.1560    1.6510    1.8480 C.2     1  UNL1        0.0080
      8  C          4.6850   -0.6310    2.2540 C.2     1  UNL1        0.0540
      9  C          6.5040    1.3610    1.6510 C.2     1  UNL1        0.0510
     10  C          6.0270   -0.9520    2.0630 C.2     1  UNL1        0.1660
     11  C          6.9270    0.0500    1.7630 C.2     1  UNL1        0.1650
     12  O          6.7570   -2.1390    2.1040 O.2     1  UNL1       -0.4540
     13  O          8.1780   -0.5340    1.6250 O.2     1  UNL1       -0.4540
     14  C          8.0420   -1.9510    1.5700 C.3     1  UNL1        0.4680
@<TRIPOS>BOND
     1    14    13    1
     2    14    12    1
     3    13    11    1
     4     9    11    2
     5     9     7    1
     6    11    10    1
     7     7     6    2
     8    10    12    1
     9    10     8    2
    10     6     8    1
    11     6     5    1
    12     5     1    1
    13     3     2    1
    14     1     2    1
    15     2     4    2
