@<TRIPOS>MOLECULE
/home/cewinharhar/GITHUB/reincatalyze/data/processed/docking_pred/2023-May-31-1603_sub9_nm5_bs15_s42_ex16_mel10_mts1000_k50_ec05_g099_lra3e-4_lrc9e-3/104e94148118840ff9051874ebdd157f969f5898_ligand_9.pdbqt
 14 15 0 0 0
SMALL
GASTEIGER

@<TRIPOS>ATOM
      1  C          8.8030   -4.8090   -0.4470 C.3     1  UNL1        0.0800
      2  C          9.5460   -4.6980   -1.7190 C.2     1  UNL1        0.1300
      3  C         10.3490   -5.8460   -2.1870 C.3     1  UNL1        0.0870
      4  O          9.4810   -3.6720   -2.3500 O.2     1  UNL1       -0.3000
      5  C          9.5410   -4.1190    0.6810 C.3     1  UNL1        0.0430
      6  C          8.8600   -2.8780    1.0590 C.2     1  UNL1       -0.0440
      7  C          9.5780   -1.7110    1.2210 C.2     1  UNL1        0.0080
      8  C          7.4930   -2.8270    1.2670 C.2     1  UNL1        0.0540
      9  C          8.9690   -0.5110    1.5800 C.2     1  UNL1        0.0510
     10  C          6.8560   -1.6410    1.6270 C.2     1  UNL1        0.1660
     11  C          7.6020   -0.4910    1.7800 C.2     1  UNL1        0.1650
     12  O          5.5320   -1.2930    1.8950 O.2     1  UNL1       -0.4540
     13  O          6.7330    0.5310    2.1360 O.2     1  UNL1       -0.4540
     14  C          5.4630   -0.0170    2.4770 C.3     1  UNL1        0.4680
@<TRIPOS>BOND
     1     4     2    2
     2     3     2    1
     3     2     1    1
     4     1     5    1
     5     5     6    1
     6     6     7    2
     7     6     8    1
     8     7     9    1
     9     8    10    2
    10     9    11    2
    11    10    11    1
    12    10    12    1
    13    11    13    1
    14    12    14    1
    15    13    14    1
