@<TRIPOS>MOLECULE
/home/cewinharhar/GITHUB/reincatalyze/data/processed/docking_pred/2023-May-31-1603_sub9_nm5_bs15_s42_ex16_mel10_mts1000_k50_ec05_g099_lra3e-4_lrc9e-3/12e5788d749ca0b681d4f032b25b6d257325d045_ligand_9.pdbqt
 14 15 0 0 0
SMALL
GASTEIGER

@<TRIPOS>ATOM
      1  C          5.3740   -0.0120    1.9990 C.3     1  UNL1        0.0800
      2  C          4.5320    1.1780    1.7670 C.2     1  UNL1        0.1300
      3  C          4.9140    2.1360    0.7100 C.3     1  UNL1        0.0870
      4  O          3.5490    1.3440    2.4450 O.2     1  UNL1       -0.3000
      5  C          6.8150    0.2520    1.6170 C.3     1  UNL1        0.0430
      6  C          7.2690   -0.7180    0.6160 C.2     1  UNL1       -0.0440
      7  C          7.0810   -0.4710   -0.7280 C.2     1  UNL1        0.0080
      8  C          7.8930   -1.9000    0.9720 C.2     1  UNL1        0.0540
      9  C          7.4970   -1.3660   -1.7100 C.2     1  UNL1        0.0510
     10  C          8.3200   -2.8150    0.0130 C.2     1  UNL1        0.1660
     11  C          8.1170   -2.5390   -1.3230 C.2     1  UNL1        0.1650
     12  O          8.9590   -4.0530    0.0680 O.2     1  UNL1       -0.4540
     13  O          8.6290   -3.6010   -2.0560 O.2     1  UNL1       -0.4540
     14  C          8.9210   -4.6890   -1.1840 C.3     1  UNL1        0.4680
@<TRIPOS>BOND
     1    13    11    1
     2    13    14    1
     3     9    11    2
     4     9     7    1
     5    11    10    1
     6    14    12    1
     7     7     6    2
     8    10    12    1
     9    10     8    2
    10     6     8    1
    11     6     5    1
    12     3     2    1
    13     5     1    1
    14     2     1    1
    15     2     4    2
