@<TRIPOS>MOLECULE
/home/cewinharhar/GITHUB/reincatalyze/data/processed/docking_pred/2023-May-31-1603_sub9_nm5_bs15_s42_ex16_mel10_mts1000_k50_ec05_g099_lra3e-4_lrc9e-3/12e5788d749ca0b681d4f032b25b6d257325d045_ligand_9.pdbqt
 14 15 0 0 0
SMALL
GASTEIGER

@<TRIPOS>ATOM
      1  C          5.6990    1.0870   -0.2910 C.3     1  UNL1        0.0800
      2  C          5.2190    1.1280    1.1050 C.2     1  UNL1        0.1300
      3  C          5.3430   -0.0800    1.9460 C.3     1  UNL1        0.0870
      4  O          4.7360    2.1480    1.5310 O.2     1  UNL1       -0.3000
      5  C          7.2110    1.0280   -0.3500 C.3     1  UNL1        0.0430
      6  C          7.6550   -0.2630   -0.8830 C.2     1  UNL1       -0.0440
      7  C          7.7850   -0.4480   -2.2440 C.2     1  UNL1        0.0080
      8  C          7.9570   -1.3310   -0.0560 C.2     1  UNL1        0.0540
      9  C          8.2030   -1.6590   -2.7890 C.2     1  UNL1        0.0510
     10  C          8.3780   -2.5540   -0.5730 C.2     1  UNL1        0.1660
     11  C          8.4970   -2.7080   -1.9380 C.2     1  UNL1        0.1650
     12  O          8.7420   -3.7750   -0.0050 O.2     1  UNL1       -0.4540
     13  O          8.9270   -4.0040   -2.1820 O.2     1  UNL1       -0.4540
     14  C          8.8270   -4.7750   -0.9870 C.3     1  UNL1        0.4680
@<TRIPOS>BOND
     1     9     7    1
     2     9    11    2
     3     7     6    2
     4    13    11    1
     5    13    14    1
     6    11    10    1
     7    14    12    1
     8     6     5    1
     9     6     8    1
    10    10     8    2
    11    10    12    1
    12     5     1    1
    13     1     2    1
    14     2     4    2
    15     2     3    1
