MODEL 1
REMARK VINA RESULT:      -7.5      0.000      0.000
REMARK SMILES CC(=O)CCc1ccc2c(c1)OCO2
REMARK SMILES IDX 4 1 2 2 1 3 3 4 5 5 6 6 7 7 11 8 8 9 10 10 9 11 12 12 14 13
REMARK SMILES IDX 13 14
REMARK H PARENT
REMARK Flexibility Score: inf
ROOT
ATOM      1  C   UNL     1       5.647   1.821   1.383  1.00  0.00     0.080 C 
ENDROOT
BRANCH   1   2
ATOM      2  C   UNL     1       5.152   0.617   2.080  1.00  0.00     0.130 C 
ATOM      3  C   UNL     1       6.063  -0.530   2.272  1.00  0.00     0.087 C 
ATOM      4  O   UNL     1       4.014   0.595   2.479  1.00  0.00    -0.300 OA
ENDBRANCH   1   2
BRANCH   1   5
ATOM      5  C   UNL     1       5.455   1.705  -0.115  1.00  0.00     0.043 C 
BRANCH   5   6
ATOM      6  C   UNL     1       6.572   0.974  -0.722  1.00  0.00    -0.044 A 
ATOM      7  C   UNL     1       7.867   1.419  -0.557  1.00  0.00     0.008 A 
ATOM      8  C   UNL     1       6.375  -0.172  -1.473  1.00  0.00     0.054 A 
ATOM      9  C   UNL     1       8.955   0.754  -1.118  1.00  0.00     0.051 A 
ATOM     10  C   UNL     1       7.443  -0.858  -2.045  1.00  0.00     0.166 A 
ATOM     11  C   UNL     1       8.727  -0.388  -1.862  1.00  0.00     0.165 A 
ATOM     12  O   UNL     1       7.552  -2.007  -2.829  1.00  0.00    -0.454 OA
ATOM     13  O   UNL     1       9.590  -1.245  -2.529  1.00  0.00    -0.454 OA
ATOM     14  C   UNL     1       8.843  -2.119  -3.370  1.00  0.00     0.468 C 
ENDBRANCH   5   6
ENDBRANCH   1   5
TORSDOF 3
ENDMDL
MODEL 2
REMARK VINA RESULT:      -7.3      2.075      2.640
REMARK SMILES CC(=O)CCc1ccc2c(c1)OCO2
REMARK SMILES IDX 4 1 2 2 1 3 3 4 5 5 6 6 7 7 11 8 8 9 10 10 9 11 12 12 14 13
REMARK SMILES IDX 13 14
REMARK H PARENT
REMARK Flexibility Score: inf
ROOT
ATOM      1  C   UNL     1       5.374  -0.012   1.999  1.00  0.00     0.080 C 
ENDROOT
BRANCH   1   2
ATOM      2  C   UNL     1       4.532   1.178   1.767  1.00  0.00     0.130 C 
ATOM      3  C   UNL     1       4.914   2.136   0.710  1.00  0.00     0.087 C 
ATOM      4  O   UNL     1       3.549   1.344   2.445  1.00  0.00    -0.300 OA
ENDBRANCH   1   2
BRANCH   1   5
ATOM      5  C   UNL     1       6.815   0.252   1.617  1.00  0.00     0.043 C 
BRANCH   5   6
ATOM      6  C   UNL     1       7.269  -0.718   0.616  1.00  0.00    -0.044 A 
ATOM      7  C   UNL     1       7.081  -0.471  -0.728  1.00  0.00     0.008 A 
ATOM      8  C   UNL     1       7.893  -1.900   0.972  1.00  0.00     0.054 A 
ATOM      9  C   UNL     1       7.497  -1.366  -1.710  1.00  0.00     0.051 A 
ATOM     10  C   UNL     1       8.320  -2.815   0.013  1.00  0.00     0.166 A 
ATOM     11  C   UNL     1       8.117  -2.539  -1.323  1.00  0.00     0.165 A 
ATOM     12  O   UNL     1       8.959  -4.053   0.068  1.00  0.00    -0.454 OA
ATOM     13  O   UNL     1       8.629  -3.601  -2.056  1.00  0.00    -0.454 OA
ATOM     14  C   UNL     1       8.921  -4.689  -1.184  1.00  0.00     0.468 C 
ENDBRANCH   5   6
ENDBRANCH   1   5
TORSDOF 3
ENDMDL
MODEL 3
REMARK VINA RESULT:      -7.2      1.957      2.416
REMARK SMILES CC(=O)CCc1ccc2c(c1)OCO2
REMARK SMILES IDX 4 1 2 2 1 3 3 4 5 5 6 6 7 7 11 8 8 9 10 10 9 11 12 12 14 13
REMARK SMILES IDX 13 14
REMARK H PARENT
REMARK Flexibility Score: inf
ROOT
ATOM      1  C   UNL     1       5.699   1.087  -0.291  1.00  0.00     0.080 C 
ENDROOT
BRANCH   1   2
ATOM      2  C   UNL     1       5.219   1.128   1.105  1.00  0.00     0.130 C 
ATOM      3  C   UNL     1       5.343  -0.080   1.946  1.00  0.00     0.087 C 
ATOM      4  O   UNL     1       4.736   2.148   1.531  1.00  0.00    -0.300 OA
ENDBRANCH   1   2
BRANCH   1   5
ATOM      5  C   UNL     1       7.211   1.028  -0.350  1.00  0.00     0.043 C 
BRANCH   5   6
ATOM      6  C   UNL     1       7.655  -0.263  -0.883  1.00  0.00    -0.044 A 
ATOM      7  C   UNL     1       7.785  -0.448  -2.244  1.00  0.00     0.008 A 
ATOM      8  C   UNL     1       7.957  -1.331  -0.056  1.00  0.00     0.054 A 
ATOM      9  C   UNL     1       8.203  -1.659  -2.789  1.00  0.00     0.051 A 
ATOM     10  C   UNL     1       8.378  -2.554  -0.573  1.00  0.00     0.166 A 
ATOM     11  C   UNL     1       8.497  -2.708  -1.938  1.00  0.00     0.165 A 
ATOM     12  O   UNL     1       8.742  -3.775  -0.005  1.00  0.00    -0.454 OA
ATOM     13  O   UNL     1       8.927  -4.004  -2.182  1.00  0.00    -0.454 OA
ATOM     14  C   UNL     1       8.827  -4.775  -0.987  1.00  0.00     0.468 C 
ENDBRANCH   5   6
ENDBRANCH   1   5
TORSDOF 3
ENDMDL
MODEL 4
REMARK VINA RESULT:      -7.1      1.215      1.372
REMARK SMILES CC(=O)CCc1ccc2c(c1)OCO2
REMARK SMILES IDX 4 1 2 2 1 3 3 4 5 5 6 6 7 7 11 8 8 9 10 10 9 11 12 12 14 13
REMARK SMILES IDX 13 14
REMARK H PARENT
REMARK Flexibility Score: inf
ROOT
ATOM      1  C   UNL     1       6.248   1.281   0.991  1.00  0.00     0.080 C 
ENDROOT
BRANCH   1   2
ATOM      2  C   UNL     1       5.563   0.419   1.975  1.00  0.00     0.130 C 
ATOM      3  C   UNL     1       6.262  -0.770   2.501  1.00  0.00     0.087 C 
ATOM      4  O   UNL     1       4.446   0.705   2.329  1.00  0.00    -0.300 OA
ENDBRANCH   1   2
BRANCH   1   5
ATOM      5  C   UNL     1       5.754   1.010  -0.414  1.00  0.00     0.043 C 
BRANCH   5   6
ATOM      6  C   UNL     1       6.699   0.154  -1.137  1.00  0.00    -0.044 A 
ATOM      7  C   UNL     1       7.354   0.628  -2.255  1.00  0.00     0.008 A 
ATOM      8  C   UNL     1       6.968  -1.142  -0.735  1.00  0.00     0.054 A 
ATOM      9  C   UNL     1       8.259  -0.152  -2.969  1.00  0.00     0.051 A 
ATOM     10  C   UNL     1       7.868  -1.947  -1.429  1.00  0.00     0.166 A 
ATOM     11  C   UNL     1       8.507  -1.444  -2.543  1.00  0.00     0.165 A 
ATOM     12  O   UNL     1       8.328  -3.253  -1.266  1.00  0.00    -0.454 OA
ATOM     13  O   UNL     1       9.338  -2.438  -3.039  1.00  0.00    -0.454 OA
ATOM     14  C   UNL     1       9.034  -3.677  -2.404  1.00  0.00     0.468 C 
ENDBRANCH   5   6
ENDBRANCH   1   5
TORSDOF 3
ENDMDL
MODEL 5
REMARK VINA RESULT:      -7.1      1.988      2.569
REMARK SMILES CC(=O)CCc1ccc2c(c1)OCO2
REMARK SMILES IDX 4 1 2 2 1 3 3 4 5 5 6 6 7 7 11 8 8 9 10 10 9 11 12 12 14 13
REMARK SMILES IDX 13 14
REMARK H PARENT
REMARK Flexibility Score: inf
ROOT
ATOM      1  C   UNL     1       6.711   0.653   1.187  1.00  0.00     0.080 C 
ENDROOT
BRANCH   1   2
ATOM      2  C   UNL     1       5.320   1.087   1.428  1.00  0.00     0.130 C 
ATOM      3  C   UNL     1       4.740   2.149   0.582  1.00  0.00     0.087 C 
ATOM      4  O   UNL     1       4.686   0.564   2.310  1.00  0.00    -0.300 OA
ENDBRANCH   1   2
BRANCH   1   5
ATOM      5  C   UNL     1       7.096   0.825  -0.268  1.00  0.00     0.043 C 
BRANCH   5   6
ATOM      6  C   UNL     1       7.579  -0.441  -0.826  1.00  0.00    -0.044 A 
ATOM      7  C   UNL     1       7.724  -0.592  -2.189  1.00  0.00     0.008 A 
ATOM      8  C   UNL     1       7.903  -1.520  -0.021  1.00  0.00     0.054 A 
ATOM      9  C   UNL     1       8.178  -1.778  -2.759  1.00  0.00     0.051 A 
ATOM     10  C   UNL     1       8.361  -2.719  -0.562  1.00  0.00     0.166 A 
ATOM     11  C   UNL     1       8.495  -2.837  -1.930  1.00  0.00     0.165 A 
ATOM     12  O   UNL     1       8.754  -3.942  -0.019  1.00  0.00    -0.454 OA
ATOM     13  O   UNL     1       8.962  -4.116  -2.199  1.00  0.00    -0.454 OA
ATOM     14  C   UNL     1       8.873  -4.916  -1.023  1.00  0.00     0.468 C 
ENDBRANCH   5   6
ENDBRANCH   1   5
TORSDOF 3
ENDMDL
