@<TRIPOS>MOLECULE
/home/cewinharhar/GITHUB/reincatalyze/data/processed/docking_pred/2023-May-31-1603_sub9_nm5_bs15_s42_ex16_mel10_mts1000_k50_ec05_g099_lra3e-4_lrc9e-3/12e5788d749ca0b681d4f032b25b6d257325d045_ligand_9.pdbqt
 14 15 0 0 0
SMALL
GASTEIGER

@<TRIPOS>ATOM
      1  C          6.7110    0.6530    1.1870 C.3     1  UNL1        0.0800
      2  C          5.3200    1.0870    1.4280 C.2     1  UNL1        0.1300
      3  C          4.7400    2.1490    0.5820 C.3     1  UNL1        0.0870
      4  O          4.6860    0.5640    2.3100 O.2     1  UNL1       -0.3000
      5  C          7.0960    0.8250   -0.2680 C.3     1  UNL1        0.0430
      6  C          7.5790   -0.4410   -0.8260 C.2     1  UNL1       -0.0440
      7  C          7.7240   -0.5920   -2.1890 C.2     1  UNL1        0.0080
      8  C          7.9030   -1.5200   -0.0210 C.2     1  UNL1        0.0540
      9  C          8.1780   -1.7780   -2.7590 C.2     1  UNL1        0.0510
     10  C          8.3610   -2.7190   -0.5620 C.2     1  UNL1        0.1660
     11  C          8.4950   -2.8370   -1.9300 C.2     1  UNL1        0.1650
     12  O          8.7540   -3.9420   -0.0190 O.2     1  UNL1       -0.4540
     13  O          8.9620   -4.1160   -2.1990 O.2     1  UNL1       -0.4540
     14  C          8.8730   -4.9160   -1.0230 C.3     1  UNL1        0.4680
@<TRIPOS>BOND
     1     9     7    1
     2     9    11    2
     3    13    11    1
     4    13    14    1
     5     7     6    2
     6    11    10    1
     7    14    12    1
     8     6     5    1
     9     6     8    1
    10    10     8    2
    11    10    12    1
    12     5     1    1
    13     3     2    1
    14     1     2    1
    15     2     4    2
