@<TRIPOS>MOLECULE
/home/cewinharhar/GITHUB/reincatalyze/data/processed/docking_pred/2023-May-31-1603_sub9_nm5_bs15_s42_ex16_mel10_mts1000_k50_ec05_g099_lra3e-4_lrc9e-3/12e5788d749ca0b681d4f032b25b6d257325d045_ligand_9.pdbqt
 14 15 0 0 0
SMALL
GASTEIGER

@<TRIPOS>ATOM
      1  C          5.6470    1.8210    1.3830 C.3     1  UNL1        0.0800
      2  C          5.1520    0.6170    2.0800 C.2     1  UNL1        0.1300
      3  C          6.0630   -0.5300    2.2720 C.3     1  UNL1        0.0870
      4  O          4.0140    0.5950    2.4790 O.2     1  UNL1       -0.3000
      5  C          5.4550    1.7050   -0.1150 C.3     1  UNL1        0.0430
      6  C          6.5720    0.9740   -0.7220 C.2     1  UNL1       -0.0440
      7  C          7.8670    1.4190   -0.5570 C.2     1  UNL1        0.0080
      8  C          6.3750   -0.1720   -1.4730 C.2     1  UNL1        0.0540
      9  C          8.9550    0.7540   -1.1180 C.2     1  UNL1        0.0510
     10  C          7.4430   -0.8580   -2.0450 C.2     1  UNL1        0.1660
     11  C          8.7270   -0.3880   -1.8620 C.2     1  UNL1        0.1650
     12  O          7.5520   -2.0070   -2.8290 O.2     1  UNL1       -0.4540
     13  O          9.5900   -1.2450   -2.5290 O.2     1  UNL1       -0.4540
     14  C          8.8430   -2.1190   -3.3700 C.3     1  UNL1        0.4680
@<TRIPOS>BOND
     1    14    12    1
     2    14    13    1
     3    12    10    1
     4    13    11    1
     5    10    11    2
     6    10     8    1
     7    11     9    1
     8     8     6    2
     9     9     7    2
    10     6     7    1
    11     6     5    1
    12     5     1    1
    13     1     2    1
    14     2     3    1
    15     2     4    2
