@<TRIPOS>MOLECULE
/home/cewinharhar/GITHUB/reincatalyze/data/processed/docking_pred/2023-May-31-1603_sub9_nm5_bs15_s42_ex16_mel10_mts1000_k50_ec05_g099_lra3e-4_lrc9e-3/13c3a96d7f073914410e4f6d6c0e2190084e407e_ligand_9.pdbqt
 14 15 0 0 0
SMALL
GASTEIGER

@<TRIPOS>ATOM
      1  C          8.4250    0.3010   -2.5990 C.3     1  UNL1        0.0800
      2  C          8.5280   -1.1570   -2.8040 C.2     1  UNL1        0.1300
      3  C          7.2920   -1.9530   -2.9510 C.3     1  UNL1        0.0870
      4  O          9.6190   -1.6690   -2.8480 O.2     1  UNL1       -0.3000
      5  C          8.9350    0.7010   -1.2300 C.3     1  UNL1        0.0430
      6  C          7.8810    0.5440   -0.2230 C.2     1  UNL1       -0.0440
      7  C          7.9100   -0.5200    0.6550 C.2     1  UNL1        0.0080
      8  C          6.8330    1.4400   -0.1140 C.2     1  UNL1        0.0540
      9  C          6.9280   -0.7060    1.6250 C.2     1  UNL1        0.0510
     10  C          5.8370    1.2810    0.8470 C.2     1  UNL1        0.1660
     11  C          5.8940    0.2070    1.7100 C.2     1  UNL1        0.1650
     12  O          4.6920    2.0010    1.1870 O.2     1  UNL1       -0.4540
     13  O          4.7950    0.2850    2.5540 O.2     1  UNL1       -0.4540
     14  C          3.8810    1.2600    2.0620 C.3     1  UNL1        0.4680
@<TRIPOS>BOND
     1     3     2    1
     2     4     2    2
     3     2     1    1
     4     1     5    1
     5     5     6    1
     6     6     8    2
     7     6     7    1
     8     8    10    1
     9     7     9    2
    10    10    12    1
    11    10    11    2
    12    12    14    1
    13     9    11    1
    14    11    13    1
    15    14    13    1
