@<TRIPOS>MOLECULE
/home/cewinharhar/GITHUB/reincatalyze/data/processed/docking_pred/2023-May-31-1603_sub9_nm5_bs15_s42_ex16_mel10_mts1000_k50_ec05_g099_lra3e-4_lrc9e-3/13c3a96d7f073914410e4f6d6c0e2190084e407e_ligand_9.pdbqt
 14 15 0 0 0
SMALL
GASTEIGER

@<TRIPOS>ATOM
      1  C          6.8210    0.7490    0.8130 C.3     1  UNL1        0.0800
      2  C          5.4900    1.0660    1.3680 C.2     1  UNL1        0.1300
      3  C          4.6930    2.1490    0.7560 C.3     1  UNL1        0.0870
      4  O          5.0810    0.4360    2.3110 O.2     1  UNL1       -0.3000
      5  C          6.7720    0.6300   -0.6960 C.3     1  UNL1        0.0430
      6  C          7.4100   -0.6140   -1.1360 C.2     1  UNL1       -0.0440
      7  C          7.7460   -0.7940   -2.4610 C.2     1  UNL1        0.0080
      8  C          7.6950   -1.6420   -0.2540 C.2     1  UNL1        0.0540
      9  C          8.3520   -1.9610   -2.9190 C.2     1  UNL1        0.0510
     10  C          8.3010   -2.8210   -0.6830 C.2     1  UNL1        0.1660
     11  C          8.6250   -2.9700   -2.0150 C.2     1  UNL1        0.1650
     12  O          8.6990   -3.9960   -0.0450 O.2     1  UNL1       -0.4540
     13  O          9.2080   -4.2200   -2.1700 O.2     1  UNL1       -0.4540
     14  C          9.0170   -4.9890   -0.9860 C.3     1  UNL1        0.4680
@<TRIPOS>BOND
     1     9     7    1
     2     9    11    2
     3     7     6    2
     4    13    11    1
     5    13    14    1
     6    11    10    1
     7     6     5    1
     8     6     8    1
     9    14    12    1
    10     5     1    1
    11    10     8    2
    12    10    12    1
    13     3     2    1
    14     1     2    1
    15     2     4    2
