@<TRIPOS>MOLECULE
/home/cewinharhar/GITHUB/reincatalyze/data/processed/docking_pred/2023-May-31-1603_sub9_nm5_bs15_s42_ex16_mel10_mts1000_k50_ec05_g099_lra3e-4_lrc9e-3/13c3a96d7f073914410e4f6d6c0e2190084e407e_ligand_9.pdbqt
 14 15 0 0 0
SMALL
GASTEIGER

@<TRIPOS>ATOM
      1  C          5.3870   -0.0850    1.8360 C.3     1  UNL1        0.0800
      2  C          4.6370    1.1670    1.6140 C.2     1  UNL1        0.1300
      3  C          5.0720    2.0890    0.5450 C.3     1  UNL1        0.0870
      4  O          3.6830    1.4130    2.3110 O.2     1  UNL1       -0.3000
      5  C          6.8670    0.1090    1.5800 C.3     1  UNL1        0.0430
      6  C          7.3460   -0.8490    0.5790 C.2     1  UNL1       -0.0440
      7  C          7.2220   -0.5710   -0.7670 C.2     1  UNL1        0.0080
      8  C          7.9320   -2.0500    0.9360 C.2     1  UNL1        0.0540
      9  C          7.6630   -1.4540   -1.7490 C.2     1  UNL1        0.0510
     10  C          8.3830   -2.9530   -0.0230 C.2     1  UNL1        0.1660
     11  C          8.2440   -2.6470   -1.3610 C.2     1  UNL1        0.1650
     12  O          8.9970   -4.2050    0.0340 O.2     1  UNL1       -0.4540
     13  O          8.7680   -3.7030   -2.0930 O.2     1  UNL1       -0.4540
     14  C          9.0010   -4.8140   -1.2320 C.3     1  UNL1        0.4680
@<TRIPOS>BOND
     1    13    11    1
     2    13    14    1
     3     9    11    2
     4     9     7    1
     5    11    10    1
     6    14    12    1
     7     7     6    2
     8    10    12    1
     9    10     8    2
    10     3     2    1
    11     6     8    1
    12     6     5    1
    13     5     1    1
    14     2     1    1
    15     2     4    2
