MODEL 1
REMARK VINA RESULT:      -7.5      0.000      0.000
REMARK SMILES CC(=O)CCc1ccc2c(c1)OCO2
REMARK SMILES IDX 4 1 2 2 1 3 3 4 5 5 6 6 7 7 11 8 8 9 10 10 9 11 12 12 14 13
REMARK SMILES IDX 13 14
REMARK H PARENT
REMARK Flexibility Score: inf
ROOT
ATOM      1  C   UNL     1       5.625   1.875   1.386  1.00  0.00     0.080 C 
ENDROOT
BRANCH   1   2
ATOM      2  C   UNL     1       5.149   0.652   2.062  1.00  0.00     0.130 C 
ATOM      3  C   UNL     1       6.073  -0.489   2.222  1.00  0.00     0.087 C 
ATOM      4  O   UNL     1       4.015   0.609   2.470  1.00  0.00    -0.300 OA
ENDBRANCH   1   2
BRANCH   1   5
ATOM      5  C   UNL     1       5.449   1.777  -0.115  1.00  0.00     0.043 C 
BRANCH   5   6
ATOM      6  C   UNL     1       6.558   1.032  -0.716  1.00  0.00    -0.044 A 
ATOM      7  C   UNL     1       7.859   1.457  -0.542  1.00  0.00     0.008 A 
ATOM      8  C   UNL     1       6.351  -0.109  -1.471  1.00  0.00     0.054 A 
ATOM      9  C   UNL     1       8.941   0.779  -1.096  1.00  0.00     0.051 A 
ATOM     10  C   UNL     1       7.413  -0.809  -2.039  1.00  0.00     0.166 A 
ATOM     11  C   UNL     1       8.702  -0.358  -1.846  1.00  0.00     0.165 A 
ATOM     12  O   UNL     1       7.510  -1.957  -2.825  1.00  0.00    -0.454 OA
ATOM     13  O   UNL     1       9.557  -1.226  -2.509  1.00  0.00    -0.454 OA
ATOM     14  C   UNL     1       8.803  -2.087  -3.357  1.00  0.00     0.468 C 
ENDBRANCH   5   6
ENDBRANCH   1   5
TORSDOF 3
ENDMDL
MODEL 2
REMARK VINA RESULT:      -7.4      2.080      2.644
REMARK SMILES CC(=O)CCc1ccc2c(c1)OCO2
REMARK SMILES IDX 4 1 2 2 1 3 3 4 5 5 6 6 7 7 11 8 8 9 10 10 9 11 12 12 14 13
REMARK SMILES IDX 13 14
REMARK H PARENT
REMARK Flexibility Score: inf
ROOT
ATOM      1  C   UNL     1       5.379  -0.015   2.003  1.00  0.00     0.080 C 
ENDROOT
BRANCH   1   2
ATOM      2  C   UNL     1       4.510   1.154   1.762  1.00  0.00     0.130 C 
ATOM      3  C   UNL     1       4.877   2.120   0.707  1.00  0.00     0.087 C 
ATOM      4  O   UNL     1       3.517   1.297   2.433  1.00  0.00    -0.300 OA
ENDBRANCH   1   2
BRANCH   1   5
ATOM      5  C   UNL     1       6.810   0.271   1.598  1.00  0.00     0.043 C 
BRANCH   5   6
ATOM      6  C   UNL     1       7.267  -0.699   0.600  1.00  0.00    -0.044 A 
ATOM      7  C   UNL     1       7.099  -0.446  -0.746  1.00  0.00     0.008 A 
ATOM      8  C   UNL     1       7.874  -1.890   0.960  1.00  0.00     0.054 A 
ATOM      9  C   UNL     1       7.518  -1.343  -1.725  1.00  0.00     0.051 A 
ATOM     10  C   UNL     1       8.304  -2.805   0.003  1.00  0.00     0.166 A 
ATOM     11  C   UNL     1       8.122  -2.523  -1.335  1.00  0.00     0.165 A 
ATOM     12  O   UNL     1       8.930  -4.050   0.062  1.00  0.00    -0.454 OA
ATOM     13  O   UNL     1       8.633  -3.587  -2.064  1.00  0.00    -0.454 OA
ATOM     14  C   UNL     1       8.902  -4.681  -1.192  1.00  0.00     0.468 C 
ENDBRANCH   5   6
ENDBRANCH   1   5
TORSDOF 3
ENDMDL
MODEL 3
REMARK VINA RESULT:      -7.3      1.958      2.388
REMARK SMILES CC(=O)CCc1ccc2c(c1)OCO2
REMARK SMILES IDX 4 1 2 2 1 3 3 4 5 5 6 6 7 7 11 8 8 9 10 10 9 11 12 12 14 13
REMARK SMILES IDX 13 14
REMARK H PARENT
REMARK Flexibility Score: inf
ROOT
ATOM      1  C   UNL     1       5.719   1.247  -0.285  1.00  0.00     0.080 C 
ENDROOT
BRANCH   1   2
ATOM      2  C   UNL     1       5.133   1.208   1.070  1.00  0.00     0.130 C 
ATOM      3  C   UNL     1       5.354   0.019   1.916  1.00  0.00     0.087 C 
ATOM      4  O   UNL     1       4.486   2.149   1.457  1.00  0.00    -0.300 OA
ENDBRANCH   1   2
BRANCH   1   5
ATOM      5  C   UNL     1       7.227   1.117  -0.235  1.00  0.00     0.043 C 
BRANCH   5   6
ATOM      6  C   UNL     1       7.652  -0.170  -0.793  1.00  0.00    -0.044 A 
ATOM      7  C   UNL     1       7.746  -0.341  -2.158  1.00  0.00     0.008 A 
ATOM      8  C   UNL     1       7.969  -1.249   0.014  1.00  0.00     0.054 A 
ATOM      9  C   UNL     1       8.144  -1.548  -2.728  1.00  0.00     0.051 A 
ATOM     10  C   UNL     1       8.371  -2.468  -0.526  1.00  0.00     0.166 A 
ATOM     11  C   UNL     1       8.455  -2.607  -1.896  1.00  0.00     0.165 A 
ATOM     12  O   UNL     1       8.744  -3.696   0.019  1.00  0.00    -0.454 OA
ATOM     13  O   UNL     1       8.873  -3.903  -2.164  1.00  0.00    -0.454 OA
ATOM     14  C   UNL     1       8.799  -4.686  -0.976  1.00  0.00     0.468 C 
ENDBRANCH   5   6
ENDBRANCH   1   5
TORSDOF 3
ENDMDL
MODEL 4
REMARK VINA RESULT:      -7.1      1.235      1.421
REMARK SMILES CC(=O)CCc1ccc2c(c1)OCO2
REMARK SMILES IDX 4 1 2 2 1 3 3 4 5 5 6 6 7 7 11 8 8 9 10 10 9 11 12 12 14 13
REMARK SMILES IDX 13 14
REMARK H PARENT
REMARK Flexibility Score: inf
ROOT
ATOM      1  C   UNL     1       6.257   1.301   0.939  1.00  0.00     0.080 C 
ENDROOT
BRANCH   1   2
ATOM      2  C   UNL     1       5.605   0.460   1.962  1.00  0.00     0.130 C 
ATOM      3  C   UNL     1       6.330  -0.705   2.507  1.00  0.00     0.087 C 
ATOM      4  O   UNL     1       4.492   0.742   2.331  1.00  0.00    -0.300 OA
ENDBRANCH   1   2
BRANCH   1   5
ATOM      5  C   UNL     1       5.744   0.975  -0.449  1.00  0.00     0.043 C 
BRANCH   5   6
ATOM      6  C   UNL     1       6.700   0.126  -1.165  1.00  0.00    -0.044 A 
ATOM      7  C   UNL     1       7.360   0.605  -2.278  1.00  0.00     0.008 A 
ATOM      8  C   UNL     1       6.975  -1.169  -0.762  1.00  0.00     0.054 A 
ATOM      9  C   UNL     1       8.275  -0.170  -2.987  1.00  0.00     0.051 A 
ATOM     10  C   UNL     1       7.885  -1.968  -1.451  1.00  0.00     0.166 A 
ATOM     11  C   UNL     1       8.528  -1.460  -2.560  1.00  0.00     0.165 A 
ATOM     12  O   UNL     1       8.351  -3.272  -1.286  1.00  0.00    -0.454 OA
ATOM     13  O   UNL     1       9.369  -2.449  -3.051  1.00  0.00    -0.454 OA
ATOM     14  C   UNL     1       9.068  -3.690  -2.419  1.00  0.00     0.468 C 
ENDBRANCH   5   6
ENDBRANCH   1   5
TORSDOF 3
ENDMDL
MODEL 5
REMARK VINA RESULT:      -7.1      2.028      2.686
REMARK SMILES CC(=O)CCc1ccc2c(c1)OCO2
REMARK SMILES IDX 4 1 2 2 1 3 3 4 5 5 6 6 7 7 11 8 8 9 10 10 9 11 12 12 14 13
REMARK SMILES IDX 13 14
REMARK H PARENT
REMARK Flexibility Score: inf
ROOT
ATOM      1  C   UNL     1       6.393   0.342   1.032  1.00  0.00     0.080 C 
ENDROOT
BRANCH   1   2
ATOM      2  C   UNL     1       5.143   1.059   1.353  1.00  0.00     0.130 C 
ATOM      3  C   UNL     1       4.689   2.148   0.466  1.00  0.00     0.087 C 
ATOM      4  O   UNL     1       4.518   0.739   2.334  1.00  0.00    -0.300 OA
ENDBRANCH   1   2
BRANCH   1   5
ATOM      5  C   UNL     1       6.770   0.520  -0.424  1.00  0.00     0.043 C 
BRANCH   5   6
ATOM      6  C   UNL     1       7.389  -0.701  -0.949  1.00  0.00    -0.044 A 
ATOM      7  C   UNL     1       7.611  -0.842  -2.303  1.00  0.00     0.008 A 
ATOM      8  C   UNL     1       7.768  -1.744  -0.122  1.00  0.00     0.054 A 
ATOM      9  C   UNL     1       8.196  -1.985  -2.842  1.00  0.00     0.051 A 
ATOM     10  C   UNL     1       8.355  -2.899  -0.632  1.00  0.00     0.166 A 
ATOM     11  C   UNL     1       8.564  -3.010  -1.991  1.00  0.00     0.165 A 
ATOM     12  O   UNL     1       8.828  -4.081  -0.062  1.00  0.00    -0.454 OA
ATOM     13  O   UNL     1       9.154  -4.243  -2.228  1.00  0.00    -0.454 OA
ATOM     14  C   UNL     1       9.080  -5.044  -1.052  1.00  0.00     0.468 C 
ENDBRANCH   5   6
ENDBRANCH   1   5
TORSDOF 3
ENDMDL
