@<TRIPOS>MOLECULE
/home/cewinharhar/GITHUB/reincatalyze/data/processed/docking_pred/2023-May-31-1603_sub9_nm5_bs15_s42_ex16_mel10_mts1000_k50_ec05_g099_lra3e-4_lrc9e-3/13e8c6f9c16a4fbf8ad14846e02839591438c51f_ligand_9.pdbqt
 14 15 0 0 0
SMALL
GASTEIGER

@<TRIPOS>ATOM
      1  C          5.3790   -0.0150    2.0030 C.3     1  UNL1        0.0800
      2  C          4.5100    1.1540    1.7620 C.2     1  UNL1        0.1300
      3  C          4.8770    2.1200    0.7070 C.3     1  UNL1        0.0870
      4  O          3.5170    1.2970    2.4330 O.2     1  UNL1       -0.3000
      5  C          6.8100    0.2710    1.5980 C.3     1  UNL1        0.0430
      6  C          7.2670   -0.6990    0.6000 C.2     1  UNL1       -0.0440
      7  C          7.0990   -0.4460   -0.7460 C.2     1  UNL1        0.0080
      8  C          7.8740   -1.8900    0.9600 C.2     1  UNL1        0.0540
      9  C          7.5180   -1.3430   -1.7250 C.2     1  UNL1        0.0510
     10  C          8.3040   -2.8050    0.0030 C.2     1  UNL1        0.1660
     11  C          8.1220   -2.5230   -1.3350 C.2     1  UNL1        0.1650
     12  O          8.9300   -4.0500    0.0620 O.2     1  UNL1       -0.4540
     13  O          8.6330   -3.5870   -2.0640 O.2     1  UNL1       -0.4540
     14  C          8.9020   -4.6810   -1.1920 C.3     1  UNL1        0.4680
@<TRIPOS>BOND
     1    13    11    1
     2    13    14    1
     3     9    11    2
     4     9     7    1
     5    11    10    1
     6    14    12    1
     7     7     6    2
     8    10    12    1
     9    10     8    2
    10     6     8    1
    11     6     5    1
    12     3     2    1
    13     5     1    1
    14     2     1    1
    15     2     4    2
