@<TRIPOS>MOLECULE
/home/cewinharhar/GITHUB/reincatalyze/data/processed/docking_pred/2023-May-31-1603_sub9_nm5_bs15_s42_ex16_mel10_mts1000_k50_ec05_g099_lra3e-4_lrc9e-3/141a4713aaf07cdd351da17b8461b13d6c9c65f9_ligand_9.pdbqt
 14 15 0 0 0
SMALL
GASTEIGER

@<TRIPOS>ATOM
      1  C          5.5840    1.8670    1.3220 C.3     1  UNL1        0.0800
      2  C          5.1370    0.6630    2.0500 C.2     1  UNL1        0.1300
      3  C          6.0780   -0.4610    2.2300 C.3     1  UNL1        0.0870
      4  O          4.0120    0.6210    2.4830 O.2     1  UNL1       -0.3000
      5  C          5.4020    1.7040   -0.1730 C.3     1  UNL1        0.0430
      6  C          6.5330    0.9740   -0.7530 C.2     1  UNL1       -0.0440
      7  C          7.8240    1.4150   -0.5490 C.2     1  UNL1        0.0080
      8  C          6.3540   -0.1660   -1.5160 C.2     1  UNL1        0.0540
      9  C          8.9250    0.7510   -1.0830 C.2     1  UNL1        0.0510
     10  C          7.4360   -0.8520   -2.0630 C.2     1  UNL1        0.1660
     11  C          8.7160   -0.3860   -1.8410 C.2     1  UNL1        0.1650
     12  O          7.5640   -1.9960   -2.8510 O.2     1  UNL1       -0.4540
     13  O          9.5950   -1.2410   -2.4890 O.2     1  UNL1       -0.4540
     14  C          8.8690   -2.1080   -3.3560 C.3     1  UNL1        0.4680
@<TRIPOS>BOND
     1    14    12    1
     2    14    13    1
     3    12    10    1
     4    13    11    1
     5    10    11    2
     6    10     8    1
     7    11     9    1
     8     8     6    2
     9     9     7    2
    10     6     7    1
    11     6     5    1
    12     5     1    1
    13     1     2    1
    14     2     3    1
    15     2     4    2
