@<TRIPOS>MOLECULE
/home/cewinharhar/GITHUB/reincatalyze/data/processed/docking_pred/2023-May-31-1603_sub9_nm5_bs15_s42_ex16_mel10_mts1000_k50_ec05_g099_lra3e-4_lrc9e-3/141a4713aaf07cdd351da17b8461b13d6c9c65f9_ligand_9.pdbqt
 14 15 0 0 0
SMALL
GASTEIGER

@<TRIPOS>ATOM
      1  C          5.4010   -0.0000    1.9950 C.3     1  UNL1        0.0800
      2  C          4.5300    1.1700    1.7650 C.2     1  UNL1        0.1300
      3  C          4.8870    2.1370    0.7080 C.3     1  UNL1        0.0870
      4  O          3.5440    1.3120    2.4460 O.2     1  UNL1       -0.3000
      5  C          6.8280    0.2870    1.5760 C.3     1  UNL1        0.0430
      6  C          7.2800   -0.6930    0.5830 C.2     1  UNL1       -0.0440
      7  C          7.1040   -0.4530   -0.7630 C.2     1  UNL1        0.0080
      8  C          7.8910   -1.8790    0.9510 C.2     1  UNL1        0.0540
      9  C          7.5180   -1.3570   -1.7370 C.2     1  UNL1        0.0510
     10  C          8.3160   -2.8030   -0.0000 C.2     1  UNL1        0.1660
     11  C          8.1250   -2.5330   -1.3400 C.2     1  UNL1        0.1650
     12  O          8.9440   -4.0470    0.0670 O.2     1  UNL1       -0.4540
     13  O          8.6330   -3.6040   -2.0620 O.2     1  UNL1       -0.4540
     14  C          8.9080   -4.6890   -1.1820 C.3     1  UNL1        0.4680
@<TRIPOS>BOND
     1    13    11    1
     2    13    14    1
     3     9    11    2
     4     9     7    1
     5    11    10    1
     6    14    12    1
     7     7     6    2
     8    10    12    1
     9    10     8    2
    10     6     8    1
    11     6     5    1
    12     3     2    1
    13     5     1    1
    14     2     1    1
    15     2     4    2
