@<TRIPOS>MOLECULE
/home/cewinharhar/GITHUB/reincatalyze/data/processed/docking_pred/2023-May-31-1603_sub9_nm5_bs15_s42_ex16_mel10_mts1000_k50_ec05_g099_lra3e-4_lrc9e-3/141a4713aaf07cdd351da17b8461b13d6c9c65f9_ligand_9.pdbqt
 14 15 0 0 0
SMALL
GASTEIGER

@<TRIPOS>ATOM
      1  C          6.2630    1.2930    0.9700 C.3     1  UNL1        0.0800
      2  C          5.5850    0.4440    1.9700 C.2     1  UNL1        0.1300
      3  C          6.2960   -0.7260    2.5220 C.3     1  UNL1        0.0870
      4  O          4.4640    0.7240    2.3150 O.2     1  UNL1       -0.3000
      5  C          5.7610    1.0010   -0.4290 C.3     1  UNL1        0.0430
      6  C          6.7050    0.1390   -1.1460 C.2     1  UNL1       -0.0440
      7  C          7.3560    0.6020   -2.2700 C.2     1  UNL1        0.0080
      8  C          6.9760   -1.1530   -0.7310 C.2     1  UNL1        0.0540
      9  C          8.2590   -0.1850   -2.9790 C.2     1  UNL1        0.0510
     10  C          7.8740   -1.9640   -1.4200 C.2     1  UNL1        0.1660
     11  C          8.5100   -1.4720   -2.5410 C.2     1  UNL1        0.1650
     12  O          8.3360   -3.2690   -1.2460 O.2     1  UNL1       -0.4540
     13  O          9.3390   -2.4710   -3.0290 O.2     1  UNL1       -0.4540
     14  C          9.0380   -3.7040   -2.3820 C.3     1  UNL1        0.4680
@<TRIPOS>BOND
     1    13    11    1
     2    13    14    1
     3     9    11    2
     4     9     7    1
     5    11    10    1
     6    14    12    1
     7     7     6    2
     8    10    12    1
     9    10     8    2
    10     6     8    1
    11     6     5    1
    12     5     1    1
    13     1     2    1
    14     2     4    2
    15     2     3    1
