@<TRIPOS>MOLECULE
/home/cewinharhar/GITHUB/reincatalyze/data/processed/docking_pred/2023-May-31-1603_sub9_nm5_bs15_s42_ex16_mel10_mts1000_k50_ec05_g099_lra3e-4_lrc9e-3/141a4713aaf07cdd351da17b8461b13d6c9c65f9_ligand_9.pdbqt
 14 15 0 0 0
SMALL
GASTEIGER

@<TRIPOS>ATOM
      1  C          8.2660    0.1810   -2.6560 C.3     1  UNL1        0.0800
      2  C          7.9750   -1.2640   -2.7470 C.2     1  UNL1        0.1300
      3  C          9.0800   -2.2070   -3.0110 C.3     1  UNL1        0.0870
      4  O          6.8390   -1.6440   -2.6040 O.2     1  UNL1       -0.3000
      5  C          8.8350    0.5410   -1.2990 C.3     1  UNL1        0.0430
      6  C          7.8000    0.4480   -0.2650 C.2     1  UNL1       -0.0440
      7  C          7.8460   -0.5580    0.6780 C.2     1  UNL1        0.0080
      8  C          6.7510    1.3490   -0.1950 C.2     1  UNL1        0.0540
      9  C          6.8820   -0.6820    1.6750 C.2     1  UNL1        0.0510
     10  C          5.7730    1.2500    0.7910 C.2     1  UNL1        0.1660
     11  C          5.8470    0.2330    1.7200 C.2     1  UNL1        0.1650
     12  O          4.6320    1.9880    1.1040 O.2     1  UNL1       -0.4540
     13  O          4.7630    0.3630    2.5760 O.2     1  UNL1       -0.4540
     14  C          3.8380    1.3040    2.0390 C.3     1  UNL1        0.4680
@<TRIPOS>BOND
     1     3     2    1
     2     2     1    1
     3     2     4    2
     4     1     5    1
     5     5     6    1
     6     6     8    2
     7     6     7    1
     8     8    10    1
     9     7     9    2
    10    10    12    1
    11    10    11    2
    12    12    14    1
    13     9    11    1
    14    11    13    1
    15    14    13    1
