@<TRIPOS>MOLECULE
/home/cewinharhar/GITHUB/reincatalyze/data/processed/docking_pred/2023-May-31-1603_sub9_nm5_bs15_s42_ex16_mel10_mts1000_k50_ec05_g099_lra3e-4_lrc9e-3/141be626e2cd6ba8f6b8a46d6dbef4dd02701a2b_ligand_9.pdbqt
 14 15 0 0 0
SMALL
GASTEIGER

@<TRIPOS>ATOM
      1  C          8.1990   -2.5610   -3.5710 C.3     1  UNL1        0.0800
      2  C          9.3000   -3.5350   -3.4370 C.2     1  UNL1        0.1300
      3  C          8.9890   -4.9790   -3.4350 C.3     1  UNL1        0.0870
      4  O         10.4320   -3.1320   -3.3310 O.2     1  UNL1       -0.3000
      5  C          8.6040   -1.1980   -3.0470 C.3     1  UNL1        0.0430
      6  C          7.8040   -0.8390   -1.8730 C.2     1  UNL1       -0.0440
      7  C          7.0070    0.2870   -1.8910 C.2     1  UNL1        0.0080
      8  C          7.8160   -1.6010   -0.7180 C.2     1  UNL1        0.0540
      9  C          6.2330    0.6630   -0.7960 C.2     1  UNL1        0.0510
     10  C          7.0520   -1.2500    0.3930 C.2     1  UNL1        0.1660
     11  C          6.2650   -0.1180    0.3430 C.2     1  UNL1        0.1650
     12  O          6.8650   -1.8060    1.6580 O.2     1  UNL1       -0.4540
     13  O          5.6180   -0.0000    1.5650 O.2     1  UNL1       -0.4540
     14  C          6.1930   -0.9070    2.5020 C.3     1  UNL1        0.4680
@<TRIPOS>BOND
     1     1     2    1
     2     1     5    1
     3     2     3    1
     4     2     4    2
     5     5     6    1
     6     7     6    2
     7     7     9    1
     8     6     8    1
     9     9    11    2
    10     8    10    2
    11    11    10    1
    12    11    13    1
    13    10    12    1
    14    13    14    1
    15    12    14    1
