@<TRIPOS>MOLECULE
/home/cewinharhar/GITHUB/reincatalyze/data/processed/docking_pred/2023-May-31-1603_sub9_nm5_bs15_s42_ex16_mel10_mts1000_k50_ec05_g099_lra3e-4_lrc9e-3/141be626e2cd6ba8f6b8a46d6dbef4dd02701a2b_ligand_9.pdbqt
 14 15 0 0 0
SMALL
GASTEIGER

@<TRIPOS>ATOM
      1  C          6.0820    1.6040    1.2970 C.3     1  UNL1        0.0800
      2  C          5.4530    0.5040    2.0540 C.2     1  UNL1        0.1300
      3  C          6.2190   -0.7360    2.2950 C.3     1  UNL1        0.0870
      4  O          4.3260    0.6400    2.4620 O.2     1  UNL1       -0.3000
      5  C          5.7820    1.4930   -0.1840 C.3     1  UNL1        0.0430
      6  C          6.8160    0.7040   -0.8610 C.2     1  UNL1       -0.0440
      7  C          8.1360    1.1020   -0.8170 C.2     1  UNL1        0.0080
      8  C          6.5140   -0.4500   -1.5620 C.2     1  UNL1        0.0540
      9  C          9.1470    0.3820   -1.4470 C.2     1  UNL1        0.0510
     10  C          7.5050   -1.1910   -2.2030 C.2     1  UNL1        0.1660
     11  C          8.8160   -0.7670   -2.1390 C.2     1  UNL1        0.1650
     12  O          7.5040   -2.3610   -2.9620 O.2     1  UNL1       -0.4540
     13  O          9.5870   -1.6730   -2.8530 O.2     1  UNL1       -0.4540
     14  C          8.7400   -2.5370   -3.6050 C.3     1  UNL1        0.4680
@<TRIPOS>BOND
     1    14    12    1
     2    14    13    1
     3    12    10    1
     4    13    11    1
     5    10    11    2
     6    10     8    1
     7    11     9    1
     8     8     6    2
     9     9     7    2
    10     6     7    1
    11     6     5    1
    12     5     1    1
    13     1     2    1
    14     2     3    1
    15     2     4    2
