@<TRIPOS>MOLECULE
/home/cewinharhar/GITHUB/reincatalyze/data/processed/docking_pred/2023-May-31-1603_sub9_nm5_bs15_s42_ex16_mel10_mts1000_k50_ec05_g099_lra3e-4_lrc9e-3/141be626e2cd6ba8f6b8a46d6dbef4dd02701a2b_ligand_9.pdbqt
 14 15 0 0 0
SMALL
GASTEIGER

@<TRIPOS>ATOM
      1  C          6.3630    1.3280    0.9180 C.3     1  UNL1        0.0800
      2  C          5.6930    0.5810    2.0010 C.2     1  UNL1        0.1300
      3  C          6.4050   -0.5380    2.6510 C.3     1  UNL1        0.0870
      4  O          4.5780    0.8990    2.3330 O.2     1  UNL1       -0.3000
      5  C          5.7900    0.9640   -0.4360 C.3     1  UNL1        0.0430
      6  C          6.7420    0.1490   -1.1960 C.2     1  UNL1       -0.0440
      7  C          7.4550    0.7020   -2.2400 C.2     1  UNL1        0.0080
      8  C          6.9600   -1.1860   -0.9030 C.2     1  UNL1        0.0540
      9  C          8.3670   -0.0380   -2.9870 C.2     1  UNL1        0.0510
     10  C          7.8670   -1.9510   -1.6320 C.2     1  UNL1        0.1660
     11  C          8.5650   -1.3690   -2.6700 C.2     1  UNL1        0.1650
     12  O          8.2860   -3.2800   -1.5710 O.2     1  UNL1       -0.4540
     13  O          9.3890   -2.3390   -3.2220 O.2     1  UNL1       -0.4540
     14  C          9.0270   -3.6210   -2.7140 C.3     1  UNL1        0.4680
@<TRIPOS>BOND
     1    13    14    1
     2    13    11    1
     3     9    11    2
     4     9     7    1
     5    14    12    1
     6    11    10    1
     7     7     6    2
     8    10    12    1
     9    10     8    2
    10     6     8    1
    11     6     5    1
    12     5     1    1
    13     1     2    1
    14     2     4    2
    15     2     3    1
