MODEL 1
REMARK VINA RESULT:      -7.9      0.000      0.000
REMARK SMILES CC(=O)CCc1ccc2c(c1)OCO2
REMARK SMILES IDX 4 1 2 2 1 3 3 4 5 5 6 6 7 7 11 8 8 9 10 10 9 11 12 12 14 13
REMARK SMILES IDX 13 14
REMARK H PARENT
REMARK Flexibility Score: inf
ROOT
ATOM      1  C   UNL     1       6.082   1.604   1.297  1.00  0.00     0.080 C 
ENDROOT
BRANCH   1   2
ATOM      2  C   UNL     1       5.453   0.504   2.054  1.00  0.00     0.130 C 
ATOM      3  C   UNL     1       6.219  -0.736   2.295  1.00  0.00     0.087 C 
ATOM      4  O   UNL     1       4.326   0.640   2.462  1.00  0.00    -0.300 OA
ENDBRANCH   1   2
BRANCH   1   5
ATOM      5  C   UNL     1       5.782   1.493  -0.184  1.00  0.00     0.043 C 
BRANCH   5   6
ATOM      6  C   UNL     1       6.816   0.704  -0.861  1.00  0.00    -0.044 A 
ATOM      7  C   UNL     1       8.136   1.102  -0.817  1.00  0.00     0.008 A 
ATOM      8  C   UNL     1       6.514  -0.450  -1.562  1.00  0.00     0.054 A 
ATOM      9  C   UNL     1       9.147   0.382  -1.447  1.00  0.00     0.051 A 
ATOM     10  C   UNL     1       7.505  -1.191  -2.203  1.00  0.00     0.166 A 
ATOM     11  C   UNL     1       8.816  -0.767  -2.139  1.00  0.00     0.165 A 
ATOM     12  O   UNL     1       7.504  -2.361  -2.962  1.00  0.00    -0.454 OA
ATOM     13  O   UNL     1       9.587  -1.673  -2.853  1.00  0.00    -0.454 OA
ATOM     14  C   UNL     1       8.740  -2.537  -3.605  1.00  0.00     0.468 C 
ENDBRANCH   5   6
ENDBRANCH   1   5
TORSDOF 3
ENDMDL
MODEL 2
REMARK VINA RESULT:      -7.3      0.812      1.009
REMARK SMILES CC(=O)CCc1ccc2c(c1)OCO2
REMARK SMILES IDX 4 1 2 2 1 3 3 4 5 5 6 6 7 7 11 8 8 9 10 10 9 11 12 12 14 13
REMARK SMILES IDX 13 14
REMARK H PARENT
REMARK Flexibility Score: inf
ROOT
ATOM      1  C   UNL     1       5.815   2.091   1.264  1.00  0.00     0.080 C 
ENDROOT
BRANCH   1   2
ATOM      2  C   UNL     1       5.210   1.051   2.122  1.00  0.00     0.130 C 
ATOM      3  C   UNL     1       3.747   1.045   2.323  1.00  0.00     0.087 C 
ATOM      4  O   UNL     1       5.924   0.229   2.640  1.00  0.00    -0.300 OA
ENDBRANCH   1   2
BRANCH   1   5
ATOM      5  C   UNL     1       5.527   1.830  -0.200  1.00  0.00     0.043 C 
BRANCH   5   6
ATOM      6  C   UNL     1       6.592   1.021  -0.799  1.00  0.00    -0.044 A 
ATOM      7  C   UNL     1       7.916   1.365  -0.612  1.00  0.00     0.008 A 
ATOM      8  C   UNL     1       6.320  -0.100  -1.563  1.00  0.00     0.054 A 
ATOM      9  C   UNL     1       8.957   0.624  -1.165  1.00  0.00     0.051 A 
ATOM     10  C   UNL     1       7.340  -0.861  -2.127  1.00  0.00     0.166 A 
ATOM     11  C   UNL     1       8.653  -0.491  -1.923  1.00  0.00     0.165 A 
ATOM     12  O   UNL     1       7.371  -2.008  -2.920  1.00  0.00    -0.454 OA
ATOM     13  O   UNL     1       9.458  -1.407  -2.586  1.00  0.00    -0.454 OA
ATOM     14  C   UNL     1       8.658  -2.214  -3.445  1.00  0.00     0.468 C 
ENDBRANCH   5   6
ENDBRANCH   1   5
TORSDOF 3
ENDMDL
MODEL 3
REMARK VINA RESULT:      -7.2      1.141      1.608
REMARK SMILES CC(=O)CCc1ccc2c(c1)OCO2
REMARK SMILES IDX 4 1 2 2 1 3 3 4 5 5 6 6 7 7 11 8 8 9 10 10 9 11 12 12 14 13
REMARK SMILES IDX 13 14
REMARK H PARENT
REMARK Flexibility Score: inf
ROOT
ATOM      1  C   UNL     1       5.587  -0.054   1.636  1.00  0.00     0.080 C 
ENDROOT
BRANCH   1   2
ATOM      2  C   UNL     1       4.807   1.200   1.604  1.00  0.00     0.130 C 
ATOM      3  C   UNL     1       5.015   2.150   0.493  1.00  0.00     0.087 C 
ATOM      4  O   UNL     1       4.016   1.422   2.487  1.00  0.00    -0.300 OA
ENDBRANCH   1   2
BRANCH   1   5
ATOM      5  C   UNL     1       7.070   0.219   1.497  1.00  0.00     0.043 C 
BRANCH   5   6
ATOM      6  C   UNL     1       7.551  -0.208   0.179  1.00  0.00    -0.044 A 
ATOM      7  C   UNL     1       8.009   0.723  -0.730  1.00  0.00     0.008 A 
ATOM      8  C   UNL     1       7.563  -1.539  -0.200  1.00  0.00     0.054 A 
ATOM      9  C   UNL     1       8.472   0.359  -1.991  1.00  0.00     0.051 A 
ATOM     10  C   UNL     1       8.022  -1.933  -1.455  1.00  0.00     0.166 A 
ATOM     11  C   UNL     1       8.473  -0.978  -2.342  1.00  0.00     0.165 A 
ATOM     12  O   UNL     1       8.150  -3.163  -2.099  1.00  0.00    -0.454 OA
ATOM     13  O   UNL     1       8.866  -1.630  -3.501  1.00  0.00    -0.454 OA
ATOM     14  C   UNL     1       8.417  -2.982  -3.466  1.00  0.00     0.468 C 
ENDBRANCH   5   6
ENDBRANCH   1   5
TORSDOF 3
ENDMDL
MODEL 4
REMARK VINA RESULT:      -7.2      1.057      1.078
REMARK SMILES CC(=O)CCc1ccc2c(c1)OCO2
REMARK SMILES IDX 4 1 2 2 1 3 3 4 5 5 6 6 7 7 11 8 8 9 10 10 9 11 12 12 14 13
REMARK SMILES IDX 13 14
REMARK H PARENT
REMARK Flexibility Score: inf
ROOT
ATOM      1  C   UNL     1       6.363   1.328   0.918  1.00  0.00     0.080 C 
ENDROOT
BRANCH   1   2
ATOM      2  C   UNL     1       5.693   0.581   2.001  1.00  0.00     0.130 C 
ATOM      3  C   UNL     1       6.405  -0.538   2.651  1.00  0.00     0.087 C 
ATOM      4  O   UNL     1       4.578   0.899   2.333  1.00  0.00    -0.300 OA
ENDBRANCH   1   2
BRANCH   1   5
ATOM      5  C   UNL     1       5.790   0.964  -0.436  1.00  0.00     0.043 C 
BRANCH   5   6
ATOM      6  C   UNL     1       6.742   0.149  -1.196  1.00  0.00    -0.044 A 
ATOM      7  C   UNL     1       7.455   0.702  -2.240  1.00  0.00     0.008 A 
ATOM      8  C   UNL     1       6.960  -1.186  -0.903  1.00  0.00     0.054 A 
ATOM      9  C   UNL     1       8.367  -0.038  -2.987  1.00  0.00     0.051 A 
ATOM     10  C   UNL     1       7.867  -1.951  -1.632  1.00  0.00     0.166 A 
ATOM     11  C   UNL     1       8.565  -1.369  -2.670  1.00  0.00     0.165 A 
ATOM     12  O   UNL     1       8.286  -3.280  -1.571  1.00  0.00    -0.454 OA
ATOM     13  O   UNL     1       9.389  -2.339  -3.222  1.00  0.00    -0.454 OA
ATOM     14  C   UNL     1       9.027  -3.621  -2.714  1.00  0.00     0.468 C 
ENDBRANCH   5   6
ENDBRANCH   1   5
TORSDOF 3
ENDMDL
MODEL 5
REMARK VINA RESULT:      -7.2      1.666      5.481
REMARK SMILES CC(=O)CCc1ccc2c(c1)OCO2
REMARK SMILES IDX 4 1 2 2 1 3 3 4 5 5 6 6 7 7 11 8 8 9 10 10 9 11 12 12 14 13
REMARK SMILES IDX 13 14
REMARK H PARENT
REMARK Flexibility Score: inf
ROOT
ATOM      1  C   UNL     1       8.199  -2.561  -3.571  1.00  0.00     0.080 C 
ENDROOT
BRANCH   1   2
ATOM      2  C   UNL     1       9.300  -3.535  -3.437  1.00  0.00     0.130 C 
ATOM      3  C   UNL     1       8.989  -4.979  -3.435  1.00  0.00     0.087 C 
ATOM      4  O   UNL     1      10.432  -3.132  -3.331  1.00  0.00    -0.300 OA
ENDBRANCH   1   2
BRANCH   1   5
ATOM      5  C   UNL     1       8.604  -1.198  -3.047  1.00  0.00     0.043 C 
BRANCH   5   6
ATOM      6  C   UNL     1       7.804  -0.839  -1.873  1.00  0.00    -0.044 A 
ATOM      7  C   UNL     1       7.007   0.287  -1.891  1.00  0.00     0.008 A 
ATOM      8  C   UNL     1       7.816  -1.601  -0.718  1.00  0.00     0.054 A 
ATOM      9  C   UNL     1       6.233   0.663  -0.796  1.00  0.00     0.051 A 
ATOM     10  C   UNL     1       7.052  -1.250   0.393  1.00  0.00     0.166 A 
ATOM     11  C   UNL     1       6.265  -0.118   0.343  1.00  0.00     0.165 A 
ATOM     12  O   UNL     1       6.865  -1.806   1.658  1.00  0.00    -0.454 OA
ATOM     13  O   UNL     1       5.618  -0.000   1.565  1.00  0.00    -0.454 OA
ATOM     14  C   UNL     1       6.193  -0.907   2.502  1.00  0.00     0.468 C 
ENDBRANCH   5   6
ENDBRANCH   1   5
TORSDOF 3
ENDMDL
