@<TRIPOS>MOLECULE
/home/cewinharhar/GITHUB/reincatalyze/data/processed/docking_pred/2023-May-31-1603_sub9_nm5_bs15_s42_ex16_mel10_mts1000_k50_ec05_g099_lra3e-4_lrc9e-3/141be626e2cd6ba8f6b8a46d6dbef4dd02701a2b_ligand_9.pdbqt
 14 15 0 0 0
SMALL
GASTEIGER

@<TRIPOS>ATOM
      1  C          5.5870   -0.0540    1.6360 C.3     1  UNL1        0.0800
      2  C          4.8070    1.2000    1.6040 C.2     1  UNL1        0.1300
      3  C          5.0150    2.1500    0.4930 C.3     1  UNL1        0.0870
      4  O          4.0160    1.4220    2.4870 O.2     1  UNL1       -0.3000
      5  C          7.0700    0.2190    1.4970 C.3     1  UNL1        0.0430
      6  C          7.5510   -0.2080    0.1790 C.2     1  UNL1       -0.0440
      7  C          8.0090    0.7230   -0.7300 C.2     1  UNL1        0.0080
      8  C          7.5630   -1.5390   -0.2000 C.2     1  UNL1        0.0540
      9  C          8.4720    0.3590   -1.9910 C.2     1  UNL1        0.0510
     10  C          8.0220   -1.9330   -1.4550 C.2     1  UNL1        0.1660
     11  C          8.4730   -0.9780   -2.3420 C.2     1  UNL1        0.1650
     12  O          8.1500   -3.1630   -2.0990 O.2     1  UNL1       -0.4540
     13  O          8.8660   -1.6300   -3.5010 O.2     1  UNL1       -0.4540
     14  C          8.4170   -2.9820   -3.4660 C.3     1  UNL1        0.4680
@<TRIPOS>BOND
     1    13    14    1
     2    13    11    1
     3    14    12    1
     4    11     9    2
     5    11    10    1
     6    12    10    1
     7     9     7    1
     8    10     8    2
     9     7     6    2
    10     8     6    1
    11     6     5    1
    12     3     2    1
    13     5     1    1
    14     2     1    1
    15     2     4    2
