@<TRIPOS>MOLECULE
/home/cewinharhar/GITHUB/reincatalyze/data/processed/docking_pred/2023-May-31-1603_sub9_nm5_bs15_s42_ex16_mel10_mts1000_k50_ec05_g099_lra3e-4_lrc9e-3/1444e75be78da7e2931ed2b5f85ad252461f0798_ligand_9.pdbqt
 14 15 0 0 0
SMALL
GASTEIGER

@<TRIPOS>ATOM
      1  C          8.2550    0.1610   -2.6630 C.3     1  UNL1        0.0800
      2  C          7.9160   -1.2750   -2.7210 C.2     1  UNL1        0.1300
      3  C          8.9890   -2.2600   -2.9640 C.3     1  UNL1        0.0870
      4  O          6.7680   -1.6150   -2.5690 O.2     1  UNL1       -0.3000
      5  C          8.8300    0.5350   -1.3130 C.3     1  UNL1        0.0430
      6  C          7.8030    0.4420   -0.2720 C.2     1  UNL1       -0.0440
      7  C          7.8770   -0.5380    0.6960 C.2     1  UNL1        0.0080
      8  C          6.7340    1.3200   -0.2180 C.2     1  UNL1        0.0540
      9  C          6.9210   -0.6610    1.7010 C.2     1  UNL1        0.0510
     10  C          5.7620    1.2220    0.7760 C.2     1  UNL1        0.1660
     11  C          5.8650    0.2300    1.7290 C.2     1  UNL1        0.1650
     12  O          4.6060    1.9410    1.0770 O.2     1  UNL1       -0.4540
     13  O          4.7830    0.3560    2.5880 O.2     1  UNL1       -0.4540
     14  C          3.8330    1.2620    2.0330 C.3     1  UNL1        0.4680
@<TRIPOS>BOND
     1     3     2    1
     2     2     1    1
     3     2     4    2
     4     1     5    1
     5     5     6    1
     6     6     8    2
     7     6     7    1
     8     8    10    1
     9     7     9    2
    10    10    12    1
    11    10    11    2
    12    12    14    1
    13     9    11    1
    14    11    13    1
    15    14    13    1
