@<TRIPOS>MOLECULE
/home/cewinharhar/GITHUB/reincatalyze/data/processed/docking_pred/2023-May-31-1603_sub9_nm5_bs15_s42_ex16_mel10_mts1000_k50_ec05_g099_lra3e-4_lrc9e-3/16519f8051380dc2329c6f51dcb24a8f5dfeda31_ligand_9.pdbqt
 14 15 0 0 0
SMALL
GASTEIGER

@<TRIPOS>ATOM
      1  C          6.4660    1.1190    0.9550 C.3     1  UNL1        0.0800
      2  C          5.7010    0.2790    1.8980 C.2     1  UNL1        0.1300
      3  C          6.2720   -1.0080    2.3440 C.3     1  UNL1        0.0870
      4  O          4.6250    0.6610    2.2860 O.2     1  UNL1       -0.3000
      5  C          6.1360    0.7710   -0.4820 C.3     1  UNL1        0.0430
      6  C          7.1780   -0.0860   -1.0560 C.2     1  UNL1       -0.0440
      7  C          6.9110   -0.8570   -2.1680 C.2     1  UNL1        0.0080
      8  C          8.4500   -0.1560   -0.5140 C.2     1  UNL1        0.0540
      9  C          7.8710   -1.6840   -2.7430 C.2     1  UNL1        0.0510
     10  C          9.4310   -0.9740   -1.0680 C.2     1  UNL1        0.1660
     11  C          9.1330   -1.7330   -2.1800 C.2     1  UNL1        0.1650
     12  O         10.7630   -1.2430   -0.7510 O.2     1  UNL1       -0.4540
     13  O         10.2720   -2.4470   -2.5220 O.2     1  UNL1       -0.4540
     14  C         11.2290   -2.3560   -1.4700 C.3     1  UNL1        0.4680
@<TRIPOS>BOND
     1     9    11    2
     2     9     7    1
     3    13    11    1
     4    13    14    1
     5    11    10    1
     6     7     6    2
     7    14    12    1
     8    10    12    1
     9    10     8    2
    10     6     8    1
    11     6     5    1
    12     5     1    1
    13     1     2    1
    14     2     4    2
    15     2     3    1
