@<TRIPOS>MOLECULE
/home/cewinharhar/GITHUB/reincatalyze/data/processed/docking_pred/2023-May-31-1603_sub9_nm5_bs15_s42_ex16_mel10_mts1000_k50_ec05_g099_lra3e-4_lrc9e-3/16519f8051380dc2329c6f51dcb24a8f5dfeda31_ligand_9.pdbqt
 14 15 0 0 0
SMALL
GASTEIGER

@<TRIPOS>ATOM
      1  C          6.8230    0.4080    0.9840 C.3     1  UNL1        0.0800
      2  C          5.5130    1.0150    1.2930 C.2     1  UNL1        0.1300
      3  C          5.0090    2.1120    0.4430 C.3     1  UNL1        0.0870
      4  O          4.8820    0.6030    2.2350 O.2     1  UNL1       -0.3000
      5  C          7.4180    0.9980   -0.2780 C.3     1  UNL1        0.0430
      6  C          8.0900   -0.0400   -1.0650 C.2     1  UNL1       -0.0440
      7  C          7.5370   -0.4840   -2.2480 C.2     1  UNL1        0.0080
      8  C          9.2850   -0.6080   -0.6590 C.2     1  UNL1        0.0540
      9  C          8.1430   -1.4680   -3.0250 C.2     1  UNL1        0.0510
     10  C          9.9150   -1.5940   -1.4150 C.2     1  UNL1        0.1660
     11  C          9.3370   -2.0170   -2.5940 C.2     1  UNL1        0.1650
     12  O         11.0900   -2.3290   -1.2660 O.2     1  UNL1       -0.4540
     13  O         10.1580   -2.9920   -3.1410 O.2     1  UNL1       -0.4540
     14  C         11.1300   -3.3940   -2.1800 C.3     1  UNL1        0.4680
@<TRIPOS>BOND
     1    13    11    1
     2    13    14    1
     3     9    11    2
     4     9     7    1
     5    11    10    1
     6     7     6    2
     7    14    12    1
     8    10    12    1
     9    10     8    2
    10     6     8    1
    11     6     5    1
    12     5     1    1
    13     3     2    1
    14     1     2    1
    15     2     4    2
