MODEL 1
REMARK VINA RESULT:      -8.2      0.000      0.000
REMARK SMILES CC(=O)CCc1ccc2c(c1)OCO2
REMARK SMILES IDX 4 1 2 2 1 3 3 4 5 5 6 6 7 7 11 8 8 9 10 10 9 11 12 12 14 13
REMARK SMILES IDX 13 14
REMARK H PARENT
REMARK Flexibility Score: inf
ROOT
ATOM      1  C   UNL     1       5.830   1.585   0.980  1.00  0.00     0.080 C 
ENDROOT
BRANCH   1   2
ATOM      2  C   UNL     1       5.335   0.553   1.912  1.00  0.00     0.130 C 
ATOM      3  C   UNL     1       6.210  -0.585   2.258  1.00  0.00     0.087 C 
ATOM      4  O   UNL     1       4.224   0.659   2.371  1.00  0.00    -0.300 OA
ENDBRANCH   1   2
BRANCH   1   5
ATOM      5  C   UNL     1       5.710   1.129  -0.460  1.00  0.00     0.043 C 
BRANCH   5   6
ATOM      6  C   UNL     1       6.926   0.426  -0.880  1.00  0.00    -0.044 A 
ATOM      7  C   UNL     1       8.162   1.018  -0.725  1.00  0.00     0.008 A 
ATOM      8  C   UNL     1       6.883  -0.839  -1.440  1.00  0.00     0.054 A 
ATOM      9  C   UNL     1       9.340   0.384  -1.113  1.00  0.00     0.051 A 
ATOM     10  C   UNL     1       8.045  -1.498  -1.837  1.00  0.00     0.166 A 
ATOM     11  C   UNL     1       9.266  -0.879  -1.669  1.00  0.00     0.165 A 
ATOM     12  O   UNL     1       8.307  -2.740  -2.414  1.00  0.00    -0.454 OA
ATOM     13  O   UNL     1      10.245  -1.741  -2.141  1.00  0.00    -0.454 OA
ATOM     14  C   UNL     1       9.636  -2.808  -2.863  1.00  0.00     0.468 C 
ENDBRANCH   5   6
ENDBRANCH   1   5
TORSDOF 3
ENDMDL
MODEL 2
REMARK VINA RESULT:      -7.8      1.068      1.818
REMARK SMILES CC(=O)CCc1ccc2c(c1)OCO2
REMARK SMILES IDX 4 1 2 2 1 3 3 4 5 5 6 6 7 7 11 8 8 9 10 10 9 11 12 12 14 13
REMARK SMILES IDX 13 14
REMARK H PARENT
REMARK Flexibility Score: inf
ROOT
ATOM      1  C   UNL     1       5.827   1.159  -0.262  1.00  0.00     0.080 C 
ENDROOT
BRANCH   1   2
ATOM      2  C   UNL     1       5.290   1.055   1.109  1.00  0.00     0.130 C 
ATOM      3  C   UNL     1       5.676  -0.097   1.949  1.00  0.00     0.087 C 
ATOM      4  O   UNL     1       4.547   1.914   1.516  1.00  0.00    -0.300 OA
ENDBRANCH   1   2
BRANCH   1   5
ATOM      5  C   UNL     1       7.337   1.283  -0.253  1.00  0.00     0.043 C 
BRANCH   5   6
ATOM      6  C   UNL     1       7.947   0.196  -1.024  1.00  0.00    -0.044 A 
ATOM      7  C   UNL     1       7.307  -0.316  -2.134  1.00  0.00     0.008 A 
ATOM      8  C   UNL     1       9.170  -0.352  -0.676  1.00  0.00     0.054 A 
ATOM      9  C   UNL     1       7.853  -1.349  -2.892  1.00  0.00     0.051 A 
ATOM     10  C   UNL     1       9.740  -1.385  -1.416  1.00  0.00     0.166 A 
ATOM     11  C   UNL     1       9.075  -1.875  -2.520  1.00  0.00     0.165 A 
ATOM     12  O   UNL     1      10.924  -2.115  -1.311  1.00  0.00    -0.454 OA
ATOM     13  O   UNL     1       9.853  -2.886  -3.067  1.00  0.00    -0.454 OA
ATOM     14  C   UNL     1      10.895  -3.234  -2.159  1.00  0.00     0.468 C 
ENDBRANCH   5   6
ENDBRANCH   1   5
TORSDOF 3
ENDMDL
MODEL 3
REMARK VINA RESULT:      -7.7      1.195      2.081
REMARK SMILES CC(=O)CCc1ccc2c(c1)OCO2
REMARK SMILES IDX 4 1 2 2 1 3 3 4 5 5 6 6 7 7 11 8 8 9 10 10 9 11 12 12 14 13
REMARK SMILES IDX 13 14
REMARK H PARENT
REMARK Flexibility Score: inf
ROOT
ATOM      1  C   UNL     1       6.823   0.408   0.984  1.00  0.00     0.080 C 
ENDROOT
BRANCH   1   2
ATOM      2  C   UNL     1       5.513   1.015   1.293  1.00  0.00     0.130 C 
ATOM      3  C   UNL     1       5.009   2.112   0.443  1.00  0.00     0.087 C 
ATOM      4  O   UNL     1       4.882   0.603   2.235  1.00  0.00    -0.300 OA
ENDBRANCH   1   2
BRANCH   1   5
ATOM      5  C   UNL     1       7.418   0.998  -0.278  1.00  0.00     0.043 C 
BRANCH   5   6
ATOM      6  C   UNL     1       8.090  -0.040  -1.065  1.00  0.00    -0.044 A 
ATOM      7  C   UNL     1       7.537  -0.484  -2.248  1.00  0.00     0.008 A 
ATOM      8  C   UNL     1       9.285  -0.608  -0.659  1.00  0.00     0.054 A 
ATOM      9  C   UNL     1       8.143  -1.468  -3.025  1.00  0.00     0.051 A 
ATOM     10  C   UNL     1       9.915  -1.594  -1.415  1.00  0.00     0.166 A 
ATOM     11  C   UNL     1       9.337  -2.017  -2.594  1.00  0.00     0.165 A 
ATOM     12  O   UNL     1      11.090  -2.329  -1.266  1.00  0.00    -0.454 OA
ATOM     13  O   UNL     1      10.158  -2.992  -3.141  1.00  0.00    -0.454 OA
ATOM     14  C   UNL     1      11.130  -3.394  -2.180  1.00  0.00     0.468 C 
ENDBRANCH   5   6
ENDBRANCH   1   5
TORSDOF 3
ENDMDL
MODEL 4
REMARK VINA RESULT:      -7.4      0.996      1.733
REMARK SMILES CC(=O)CCc1ccc2c(c1)OCO2
REMARK SMILES IDX 4 1 2 2 1 3 3 4 5 5 6 6 7 7 11 8 8 9 10 10 9 11 12 12 14 13
REMARK SMILES IDX 13 14
REMARK H PARENT
REMARK Flexibility Score: inf
ROOT
ATOM      1  C   UNL     1       6.466   1.119   0.955  1.00  0.00     0.080 C 
ENDROOT
BRANCH   1   2
ATOM      2  C   UNL     1       5.701   0.279   1.898  1.00  0.00     0.130 C 
ATOM      3  C   UNL     1       6.272  -1.008   2.344  1.00  0.00     0.087 C 
ATOM      4  O   UNL     1       4.625   0.661   2.286  1.00  0.00    -0.300 OA
ENDBRANCH   1   2
BRANCH   1   5
ATOM      5  C   UNL     1       6.136   0.771  -0.482  1.00  0.00     0.043 C 
BRANCH   5   6
ATOM      6  C   UNL     1       7.178  -0.086  -1.056  1.00  0.00    -0.044 A 
ATOM      7  C   UNL     1       6.911  -0.857  -2.168  1.00  0.00     0.008 A 
ATOM      8  C   UNL     1       8.450  -0.156  -0.514  1.00  0.00     0.054 A 
ATOM      9  C   UNL     1       7.871  -1.684  -2.743  1.00  0.00     0.051 A 
ATOM     10  C   UNL     1       9.431  -0.974  -1.068  1.00  0.00     0.166 A 
ATOM     11  C   UNL     1       9.133  -1.733  -2.180  1.00  0.00     0.165 A 
ATOM     12  O   UNL     1      10.763  -1.243  -0.751  1.00  0.00    -0.454 OA
ATOM     13  O   UNL     1      10.272  -2.447  -2.522  1.00  0.00    -0.454 OA
ATOM     14  C   UNL     1      11.229  -2.356  -1.470  1.00  0.00     0.468 C 
ENDBRANCH   5   6
ENDBRANCH   1   5
TORSDOF 3
ENDMDL
MODEL 5
REMARK VINA RESULT:      -7.4      1.928      2.430
REMARK SMILES CC(=O)CCc1ccc2c(c1)OCO2
REMARK SMILES IDX 4 1 2 2 1 3 3 4 5 5 6 6 7 7 11 8 8 9 10 10 9 11 12 12 14 13
REMARK SMILES IDX 13 14
REMARK H PARENT
REMARK Flexibility Score: inf
ROOT
ATOM      1  C   UNL     1       6.106  -0.321   1.721  1.00  0.00     0.080 C 
ENDROOT
BRANCH   1   2
ATOM      2  C   UNL     1       5.091   0.752   1.703  1.00  0.00     0.130 C 
ATOM      3  C   UNL     1       5.168   1.799   0.664  1.00  0.00     0.087 C 
ATOM      4  O   UNL     1       4.220   0.752   2.537  1.00  0.00    -0.300 OA
ENDBRANCH   1   2
BRANCH   1   5
ATOM      5  C   UNL     1       6.419  -0.803   0.320  1.00  0.00     0.043 C 
BRANCH   5   6
ATOM      6  C   UNL     1       7.857  -0.708   0.052  1.00  0.00    -0.044 A 
ATOM      7  C   UNL     1       8.358   0.332  -0.704  1.00  0.00     0.008 A 
ATOM      8  C   UNL     1       8.756  -1.642   0.538  1.00  0.00     0.054 A 
ATOM      9  C   UNL     1       9.716   0.458  -0.982  1.00  0.00     0.051 A 
ATOM     10  C   UNL     1      10.120  -1.542   0.276  1.00  0.00     0.166 A 
ATOM     11  C   UNL     1      10.590  -0.490  -0.483  1.00  0.00     0.165 A 
ATOM     12  O   UNL     1      11.234  -2.308   0.621  1.00  0.00    -0.454 OA
ATOM     13  O   UNL     1      11.966  -0.628  -0.590  1.00  0.00    -0.454 OA
ATOM     14  C   UNL     1      12.356  -1.918  -0.126  1.00  0.00     0.468 C 
ENDBRANCH   5   6
ENDBRANCH   1   5
TORSDOF 3
ENDMDL
