@<TRIPOS>MOLECULE
/home/cewinharhar/GITHUB/reincatalyze/data/processed/docking_pred/2023-May-31-1603_sub9_nm5_bs15_s42_ex16_mel10_mts1000_k50_ec05_g099_lra3e-4_lrc9e-3/16519f8051380dc2329c6f51dcb24a8f5dfeda31_ligand_9.pdbqt
 14 15 0 0 0
SMALL
GASTEIGER

@<TRIPOS>ATOM
      1  C          6.1060   -0.3210    1.7210 C.3     1  UNL1        0.0800
      2  C          5.0910    0.7520    1.7030 C.2     1  UNL1        0.1300
      3  C          5.1680    1.7990    0.6640 C.3     1  UNL1        0.0870
      4  O          4.2200    0.7520    2.5370 O.2     1  UNL1       -0.3000
      5  C          6.4190   -0.8030    0.3200 C.3     1  UNL1        0.0430
      6  C          7.8570   -0.7080    0.0520 C.2     1  UNL1       -0.0440
      7  C          8.3580    0.3320   -0.7040 C.2     1  UNL1        0.0080
      8  C          8.7560   -1.6420    0.5380 C.2     1  UNL1        0.0540
      9  C          9.7160    0.4580   -0.9820 C.2     1  UNL1        0.0510
     10  C         10.1200   -1.5420    0.2760 C.2     1  UNL1        0.1660
     11  C         10.5900   -0.4900   -0.4830 C.2     1  UNL1        0.1650
     12  O         11.2340   -2.3080    0.6210 O.2     1  UNL1       -0.4540
     13  O         11.9660   -0.6280   -0.5900 O.2     1  UNL1       -0.4540
     14  C         12.3560   -1.9180   -0.1260 C.3     1  UNL1        0.4680
@<TRIPOS>BOND
     1     9     7    1
     2     9    11    2
     3     7     6    2
     4    13    11    1
     5    13    14    1
     6    11    10    1
     7    14    12    1
     8     6     5    1
     9     6     8    1
    10    10     8    2
    11    10    12    1
    12     5     1    1
    13     3     2    1
    14     2     1    1
    15     2     4    2
