@<TRIPOS>MOLECULE
/home/cewinharhar/GITHUB/reincatalyze/data/processed/docking_pred/2023-May-31-1603_sub9_nm5_bs15_s42_ex16_mel10_mts1000_k50_ec05_g099_lra3e-4_lrc9e-3/16519f8051380dc2329c6f51dcb24a8f5dfeda31_ligand_9.pdbqt
 14 15 0 0 0
SMALL
GASTEIGER

@<TRIPOS>ATOM
      1  C          5.8300    1.5850    0.9800 C.3     1  UNL1        0.0800
      2  C          5.3350    0.5530    1.9120 C.2     1  UNL1        0.1300
      3  C          6.2100   -0.5850    2.2580 C.3     1  UNL1        0.0870
      4  O          4.2240    0.6590    2.3710 O.2     1  UNL1       -0.3000
      5  C          5.7100    1.1290   -0.4600 C.3     1  UNL1        0.0430
      6  C          6.9260    0.4260   -0.8800 C.2     1  UNL1       -0.0440
      7  C          8.1620    1.0180   -0.7250 C.2     1  UNL1        0.0080
      8  C          6.8830   -0.8390   -1.4400 C.2     1  UNL1        0.0540
      9  C          9.3400    0.3840   -1.1130 C.2     1  UNL1        0.0510
     10  C          8.0450   -1.4980   -1.8370 C.2     1  UNL1        0.1660
     11  C          9.2660   -0.8790   -1.6690 C.2     1  UNL1        0.1650
     12  O          8.3070   -2.7400   -2.4140 O.2     1  UNL1       -0.4540
     13  O         10.2450   -1.7410   -2.1410 O.2     1  UNL1       -0.4540
     14  C          9.6360   -2.8080   -2.8630 C.3     1  UNL1        0.4680
@<TRIPOS>BOND
     1    14    12    1
     2    14    13    1
     3    12    10    1
     4    13    11    1
     5    10    11    2
     6    10     8    1
     7    11     9    1
     8     8     6    2
     9     9     7    2
    10     6     7    1
    11     6     5    1
    12     5     1    1
    13     1     2    1
    14     2     3    1
    15     2     4    2
