@<TRIPOS>MOLECULE
/home/cewinharhar/GITHUB/reincatalyze/data/processed/docking_pred/2023-May-31-1603_sub9_nm5_bs15_s42_ex16_mel10_mts1000_k50_ec05_g099_lra3e-4_lrc9e-3/16519f8051380dc2329c6f51dcb24a8f5dfeda31_ligand_9.pdbqt
 14 15 0 0 0
SMALL
GASTEIGER

@<TRIPOS>ATOM
      1  C          5.8270    1.1590   -0.2620 C.3     1  UNL1        0.0800
      2  C          5.2900    1.0550    1.1090 C.2     1  UNL1        0.1300
      3  C          5.6760   -0.0970    1.9490 C.3     1  UNL1        0.0870
      4  O          4.5470    1.9140    1.5160 O.2     1  UNL1       -0.3000
      5  C          7.3370    1.2830   -0.2530 C.3     1  UNL1        0.0430
      6  C          7.9470    0.1960   -1.0240 C.2     1  UNL1       -0.0440
      7  C          7.3070   -0.3160   -2.1340 C.2     1  UNL1        0.0080
      8  C          9.1700   -0.3520   -0.6760 C.2     1  UNL1        0.0540
      9  C          7.8530   -1.3490   -2.8920 C.2     1  UNL1        0.0510
     10  C          9.7400   -1.3850   -1.4160 C.2     1  UNL1        0.1660
     11  C          9.0750   -1.8750   -2.5200 C.2     1  UNL1        0.1650
     12  O         10.9240   -2.1150   -1.3110 O.2     1  UNL1       -0.4540
     13  O          9.8530   -2.8860   -3.0670 O.2     1  UNL1       -0.4540
     14  C         10.8950   -3.2340   -2.1590 C.3     1  UNL1        0.4680
@<TRIPOS>BOND
     1    13    11    1
     2    13    14    1
     3     9    11    2
     4     9     7    1
     5    11    10    1
     6    14    12    1
     7     7     6    2
     8    10    12    1
     9    10     8    2
    10     6     8    1
    11     6     5    1
    12     1     5    1
    13     1     2    1
    14     2     4    2
    15     2     3    1
