@<TRIPOS>MOLECULE
/home/cewinharhar/GITHUB/reincatalyze/data/processed/docking_pred/2023-May-31-1603_sub9_nm5_bs15_s42_ex16_mel10_mts1000_k50_ec05_g099_lra3e-4_lrc9e-3/1b5ae47dc41e9fd81b532b383f57e012b2e09fc7_ligand_9.pdbqt
 14 15 0 0 0
SMALL
GASTEIGER

@<TRIPOS>ATOM
      1  C          5.7390    2.0900    1.2500 C.3     1  UNL1        0.0800
      2  C          5.4730    0.8860    2.0630 C.2     1  UNL1        0.1300
      3  C          6.5900   -0.0220    2.3930 C.3     1  UNL1        0.0870
      4  O          4.3480    0.6680    2.4400 O.2     1  UNL1       -0.3000
      5  C          5.4940    1.8240   -0.2210 C.3     1  UNL1        0.0430
      6  C          6.6000    1.0550   -0.7970 C.2     1  UNL1       -0.0440
      7  C          7.9030    1.4810   -0.6370 C.2     1  UNL1        0.0080
      8  C          6.3880   -0.1100   -1.5130 C.2     1  UNL1        0.0540
      9  C          8.9810    0.7790   -1.1690 C.2     1  UNL1        0.0510
     10  C          7.4470   -0.8330   -2.0560 C.2     1  UNL1        0.1660
     11  C          8.7380   -0.3810   -1.8790 C.2     1  UNL1        0.1650
     12  O          7.5390   -2.0080   -2.8030 O.2     1  UNL1       -0.4540
     13  O          9.5890   -1.2750   -2.5130 O.2     1  UNL1       -0.4540
     14  C          8.8310   -2.1610   -3.3310 C.3     1  UNL1        0.4680
@<TRIPOS>BOND
     1    14    12    1
     2    14    13    1
     3    12    10    1
     4    13    11    1
     5    10    11    2
     6    10     8    1
     7    11     9    1
     8     8     6    2
     9     9     7    2
    10     6     7    1
    11     6     5    1
    12     5     1    1
    13     1     2    1
    14     2     3    1
    15     2     4    2
