MODEL 1
REMARK VINA RESULT:      -7.3      0.000      0.000
REMARK SMILES CC(=O)CCc1ccc2c(c1)OCO2
REMARK SMILES IDX 4 1 2 2 1 3 3 4 5 5 6 6 7 7 11 8 8 9 10 10 9 11 12 12 14 13
REMARK SMILES IDX 13 14
REMARK H PARENT
REMARK Flexibility Score: inf
ROOT
ATOM      1  C   UNL     1       6.546   0.486   1.128  1.00  0.00     0.080 C 
ENDROOT
BRANCH   1   2
ATOM      2  C   UNL     1       5.251   1.157   1.354  1.00  0.00     0.130 C 
ATOM      3  C   UNL     1       4.772   2.149   0.371  1.00  0.00     0.087 C 
ATOM      4  O   UNL     1       4.610   0.882   2.338  1.00  0.00    -0.300 OA
ENDBRANCH   1   2
BRANCH   1   5
ATOM      5  C   UNL     1       7.046   0.718  -0.282  1.00  0.00     0.043 C 
BRANCH   5   6
ATOM      6  C   UNL     1       7.583  -0.522  -0.849  1.00  0.00    -0.044 A 
ATOM      7  C   UNL     1       7.837  -0.617  -2.202  1.00  0.00     0.008 A 
ATOM      8  C   UNL     1       7.851  -1.630  -0.065  1.00  0.00     0.054 A 
ATOM      9  C   UNL     1       8.345  -1.778  -2.780  1.00  0.00     0.051 A 
ATOM     10  C   UNL     1       8.359  -2.805  -0.615  1.00  0.00     0.166 A 
ATOM     11  C   UNL     1       8.603  -2.868  -1.971  1.00  0.00     0.165 A 
ATOM     12  O   UNL     1       8.718  -4.046  -0.090  1.00  0.00    -0.454 OA
ATOM     13  O   UNL     1       9.100  -4.132  -2.252  1.00  0.00    -0.454 OA
ATOM     14  C   UNL     1       8.924  -4.979  -1.120  1.00  0.00     0.468 C 
ENDBRANCH   5   6
ENDBRANCH   1   5
TORSDOF 3
ENDMDL
MODEL 2
REMARK VINA RESULT:      -7.1      1.957      2.582
REMARK SMILES CC(=O)CCc1ccc2c(c1)OCO2
REMARK SMILES IDX 4 1 2 2 1 3 3 4 5 5 6 6 7 7 11 8 8 9 10 10 9 11 12 12 14 13
REMARK SMILES IDX 13 14
REMARK H PARENT
REMARK Flexibility Score: inf
ROOT
ATOM      1  C   UNL     1       5.739   2.090   1.250  1.00  0.00     0.080 C 
ENDROOT
BRANCH   1   2
ATOM      2  C   UNL     1       5.473   0.886   2.063  1.00  0.00     0.130 C 
ATOM      3  C   UNL     1       6.590  -0.022   2.393  1.00  0.00     0.087 C 
ATOM      4  O   UNL     1       4.348   0.668   2.440  1.00  0.00    -0.300 OA
ENDBRANCH   1   2
BRANCH   1   5
ATOM      5  C   UNL     1       5.494   1.824  -0.221  1.00  0.00     0.043 C 
BRANCH   5   6
ATOM      6  C   UNL     1       6.600   1.055  -0.797  1.00  0.00    -0.044 A 
ATOM      7  C   UNL     1       7.903   1.481  -0.637  1.00  0.00     0.008 A 
ATOM      8  C   UNL     1       6.388  -0.110  -1.513  1.00  0.00     0.054 A 
ATOM      9  C   UNL     1       8.981   0.779  -1.169  1.00  0.00     0.051 A 
ATOM     10  C   UNL     1       7.447  -0.833  -2.056  1.00  0.00     0.166 A 
ATOM     11  C   UNL     1       8.738  -0.381  -1.879  1.00  0.00     0.165 A 
ATOM     12  O   UNL     1       7.539  -2.008  -2.803  1.00  0.00    -0.454 OA
ATOM     13  O   UNL     1       9.589  -1.275  -2.513  1.00  0.00    -0.454 OA
ATOM     14  C   UNL     1       8.831  -2.161  -3.331  1.00  0.00     0.468 C 
ENDBRANCH   5   6
ENDBRANCH   1   5
TORSDOF 3
ENDMDL
MODEL 3
REMARK VINA RESULT:      -7.0      0.912      1.196
REMARK SMILES CC(=O)CCc1ccc2c(c1)OCO2
REMARK SMILES IDX 4 1 2 2 1 3 3 4 5 5 6 6 7 7 11 8 8 9 10 10 9 11 12 12 14 13
REMARK SMILES IDX 13 14
REMARK H PARENT
REMARK Flexibility Score: inf
ROOT
ATOM      1  C   UNL     1       6.744   1.540   0.160  1.00  0.00     0.080 C 
ENDROOT
BRANCH   1   2
ATOM      2  C   UNL     1       5.954   1.311   1.386  1.00  0.00     0.130 C 
ATOM      3  C   UNL     1       6.415   0.303   2.362  1.00  0.00     0.087 C 
ATOM      4  O   UNL     1       4.949   1.952   1.566  1.00  0.00    -0.300 OA
ENDBRANCH   1   2
BRANCH   1   5
ATOM      5  C   UNL     1       6.124   0.839  -1.031  1.00  0.00     0.043 C 
BRANCH   5   6
ATOM      6  C   UNL     1       6.954  -0.294  -1.452  1.00  0.00    -0.044 A 
ATOM      7  C   UNL     1       7.457  -0.351  -2.735  1.00  0.00     0.008 A 
ATOM      8  C   UNL     1       7.260  -1.335  -0.594  1.00  0.00     0.054 A 
ATOM      9  C   UNL     1       8.248  -1.409  -3.174  1.00  0.00     0.051 A 
ATOM     10  C   UNL     1       8.049  -2.408  -1.004  1.00  0.00     0.166 A 
ATOM     11  C   UNL     1       8.537  -2.435  -2.294  1.00  0.00     0.165 A 
ATOM     12  O   UNL     1       8.512  -3.566  -0.381  1.00  0.00    -0.454 OA
ATOM     13  O   UNL     1       9.282  -3.597  -2.439  1.00  0.00    -0.454 OA
ATOM     14  C   UNL     1       9.052  -4.455  -1.325  1.00  0.00     0.468 C 
ENDBRANCH   5   6
ENDBRANCH   1   5
TORSDOF 3
ENDMDL
MODEL 4
REMARK VINA RESULT:      -6.9      0.837      1.060
REMARK SMILES CC(=O)CCc1ccc2c(c1)OCO2
REMARK SMILES IDX 4 1 2 2 1 3 3 4 5 5 6 6 7 7 11 8 8 9 10 10 9 11 12 12 14 13
REMARK SMILES IDX 13 14
REMARK H PARENT
REMARK Flexibility Score: inf
ROOT
ATOM      1  C   UNL     1       6.859   1.336   0.877  1.00  0.00     0.080 C 
ENDROOT
BRANCH   1   2
ATOM      2  C   UNL     1       5.454   1.736   0.661  1.00  0.00     0.130 C 
ATOM      3  C   UNL     1       5.021   2.147  -0.690  1.00  0.00     0.087 C 
ATOM      4  O   UNL     1       4.688   1.717   1.592  1.00  0.00    -0.300 OA
ENDBRANCH   1   2
BRANCH   1   5
ATOM      5  C   UNL     1       6.949  -0.050   1.481  1.00  0.00     0.043 C 
BRANCH   5   6
ATOM      6  C   UNL     1       7.434  -1.014   0.489  1.00  0.00    -0.044 A 
ATOM      7  C   UNL     1       7.303  -0.752  -0.859  1.00  0.00     0.008 A 
ATOM      8  C   UNL     1       8.032  -2.206   0.858  1.00  0.00     0.054 A 
ATOM      9  C   UNL     1       7.750  -1.641  -1.832  1.00  0.00     0.051 A 
ATOM     10  C   UNL     1       8.489  -3.115  -0.093  1.00  0.00     0.166 A 
ATOM     11  C   UNL     1       8.343  -2.824  -1.433  1.00  0.00     0.165 A 
ATOM     12  O   UNL     1       9.114  -4.360  -0.025  1.00  0.00    -0.454 OA
ATOM     13  O   UNL     1       8.875  -3.883  -2.156  1.00  0.00    -0.454 OA
ATOM     14  C   UNL     1       9.120  -4.983  -1.284  1.00  0.00     0.468 C 
ENDBRANCH   5   6
ENDBRANCH   1   5
TORSDOF 3
ENDMDL
MODEL 5
REMARK VINA RESULT:      -6.7      1.999      5.528
REMARK SMILES CC(=O)CCc1ccc2c(c1)OCO2
REMARK SMILES IDX 4 1 2 2 1 3 3 4 5 5 6 6 7 7 11 8 8 9 10 10 9 11 12 12 14 13
REMARK SMILES IDX 13 14
REMARK H PARENT
REMARK Flexibility Score: inf
ROOT
ATOM      1  C   UNL     1       8.268   0.165  -2.751  1.00  0.00     0.080 C 
ENDROOT
BRANCH   1   2
ATOM      2  C   UNL     1       8.019  -1.289  -2.815  1.00  0.00     0.130 C 
ATOM      3  C   UNL     1       9.157  -2.207  -3.021  1.00  0.00     0.087 C 
ATOM      4  O   UNL     1       6.890  -1.698  -2.698  1.00  0.00    -0.300 OA
ENDBRANCH   1   2
BRANCH   1   5
ATOM      5  C   UNL     1       8.912   0.554  -1.437  1.00  0.00     0.043 C 
BRANCH   5   6
ATOM      6  C   UNL     1       7.933   0.502  -0.347  1.00  0.00    -0.044 A 
ATOM      7  C   UNL     1       8.109  -0.371   0.706  1.00  0.00     0.008 A 
ATOM      8  C   UNL     1       6.810   1.311  -0.332  1.00  0.00     0.054 A 
ATOM      9  C   UNL     1       7.202  -0.452   1.760  1.00  0.00     0.051 A 
ATOM     10  C   UNL     1       5.885   1.252   0.708  1.00  0.00     0.166 A 
ATOM     11  C   UNL     1       6.090   0.369   1.747  1.00  0.00     0.165 A 
ATOM     12  O   UNL     1       4.696   1.923   0.988  1.00  0.00    -0.454 OA
ATOM     13  O   UNL     1       5.035   0.511   2.637  1.00  0.00    -0.454 OA
ATOM     14  C   UNL     1       4.006   1.295   2.038  1.00  0.00     0.468 C 
ENDBRANCH   5   6
ENDBRANCH   1   5
TORSDOF 3
ENDMDL
