@<TRIPOS>MOLECULE
/home/cewinharhar/GITHUB/reincatalyze/data/processed/docking_pred/2023-May-31-1603_sub9_nm5_bs15_s42_ex16_mel10_mts1000_k50_ec05_g099_lra3e-4_lrc9e-3/1c0c8a91d3eae7937fa2398dc61f909c50ab5738_ligand_9.pdbqt
 14 15 0 0 0
SMALL
GASTEIGER

@<TRIPOS>ATOM
      1  C          5.6710    1.1330   -0.2740 C.3     1  UNL1        0.0800
      2  C          5.1290    1.1890    1.0980 C.2     1  UNL1        0.1300
      3  C          5.4000    0.0730    2.0270 C.3     1  UNL1        0.0870
      4  O          4.4760    2.1460    1.4330 O.2     1  UNL1       -0.3000
      5  C          7.1830    1.0380   -0.2630 C.3     1  UNL1        0.0430
      6  C          7.6220   -0.2450   -0.8210 C.2     1  UNL1       -0.0440
      7  C          7.7210   -0.4130   -2.1870 C.2     1  UNL1        0.0080
      8  C          7.9490   -1.3210   -0.0150 C.2     1  UNL1        0.0540
      9  C          8.1330   -1.6150   -2.7570 C.2     1  UNL1        0.0510
     10  C          8.3650   -2.5350   -0.5560 C.2     1  UNL1        0.1660
     11  C          8.4530   -2.6720   -1.9250 C.2     1  UNL1        0.1650
     12  O          8.7500   -3.7600   -0.0110 O.2     1  UNL1       -0.4540
     13  O          8.8850   -3.9630   -2.1940 O.2     1  UNL1       -0.4540
     14  C          8.8170   -4.7480   -1.0070 C.3     1  UNL1        0.4680
@<TRIPOS>BOND
     1     9     7    1
     2     9    11    2
     3    13    11    1
     4    13    14    1
     5     7     6    2
     6    11    10    1
     7    14    12    1
     8     6     5    1
     9     6     8    1
    10    10     8    2
    11    10    12    1
    12     1     5    1
    13     1     2    1
    14     2     4    2
    15     2     3    1
