@<TRIPOS>MOLECULE
/home/cewinharhar/GITHUB/reincatalyze/data/processed/docking_pred/2023-May-31-1603_sub9_nm5_bs15_s42_ex16_mel10_mts1000_k50_ec05_g099_lra3e-4_lrc9e-3/1c86ade130d2cc9f902dffb19ba95248752a952e_ligand_9.pdbqt
 14 15 0 0 0
SMALL
GASTEIGER

@<TRIPOS>ATOM
      1  C          5.6250    1.2680   -0.2690 C.3     1  UNL1        0.0800
      2  C          5.0440    1.2040    1.0870 C.2     1  UNL1        0.1300
      3  C          5.2350   -0.0170    1.8960 C.3     1  UNL1        0.0870
      4  O          4.4240    2.1500    1.5070 O.2     1  UNL1       -0.3000
      5  C          7.1350    1.1600   -0.2240 C.3     1  UNL1        0.0430
      6  C          7.5790   -0.0950   -0.8370 C.2     1  UNL1       -0.0440
      7  C          7.6430   -0.2170   -2.2100 C.2     1  UNL1        0.0080
      8  C          7.9460   -1.1920   -0.0760 C.2     1  UNL1        0.0540
      9  C          8.0590   -1.3910   -2.8300 C.2     1  UNL1        0.0510
     10  C          8.3670   -2.3800   -0.6690 C.2     1  UNL1        0.1660
     11  C          8.4190   -2.4700   -2.0440 C.2     1  UNL1        0.1650
     12  O          8.7870   -3.6150   -0.1760 O.2     1  UNL1       -0.4540
     13  O          8.8650   -3.7430   -2.3680 O.2     1  UNL1       -0.4540
     14  C          8.8420   -4.5680   -1.2060 C.3     1  UNL1        0.4680
@<TRIPOS>BOND
     1     9     7    1
     2     9    11    2
     3    13    11    1
     4    13    14    1
     5     7     6    2
     6    11    10    1
     7    14    12    1
     8     6     5    1
     9     6     8    1
    10    10    12    1
    11    10     8    2
    12     1     5    1
    13     1     2    1
    14     2     4    2
    15     2     3    1
