@<TRIPOS>MOLECULE
/home/cewinharhar/GITHUB/reincatalyze/data/processed/docking_pred/2023-May-31-1603_sub9_nm5_bs15_s42_ex16_mel10_mts1000_k50_ec05_g099_lra3e-4_lrc9e-3/1c86ade130d2cc9f902dffb19ba95248752a952e_ligand_9.pdbqt
 14 15 0 0 0
SMALL
GASTEIGER

@<TRIPOS>ATOM
      1  C          6.6570    0.6190    1.3270 C.3     1  UNL1        0.0800
      2  C          5.2540    1.0600    1.4610 C.2     1  UNL1        0.1300
      3  C          4.7300    2.0890    0.5400 C.3     1  UNL1        0.0870
      4  O          4.5640    0.5710    2.3210 O.2     1  UNL1       -0.3000
      5  C          7.1770    0.8620   -0.0740 C.3     1  UNL1        0.0430
      6  C          7.6330   -0.3920   -0.6790 C.2     1  UNL1       -0.0440
      7  C          7.7400   -0.5070   -2.0500 C.2     1  UNL1        0.0080
      8  C          7.9690   -1.4950    0.0870 C.2     1  UNL1        0.0540
      9  C          8.1690   -1.6810   -2.6630 C.2     1  UNL1        0.0510
     10  C          8.4010   -2.6830   -0.4980 C.2     1  UNL1        0.1660
     11  C          8.4970   -2.7650   -1.8720 C.2     1  UNL1        0.1650
     12  O          8.7970   -3.9230    0.0010 O.2     1  UNL1       -0.4540
     13  O          8.9450   -4.0400   -2.1880 O.2     1  UNL1       -0.4540
     14  C          8.8800   -4.8710   -1.0320 C.3     1  UNL1        0.4680
@<TRIPOS>BOND
     1     9     7    1
     2     9    11    2
     3    13    11    1
     4    13    14    1
     5     7     6    2
     6    11    10    1
     7    14    12    1
     8     6     5    1
     9     6     8    1
    10    10    12    1
    11    10     8    2
    12     5     1    1
    13     3     2    1
    14     1     2    1
    15     2     4    2
