@<TRIPOS>MOLECULE
/home/cewinharhar/GITHUB/reincatalyze/data/processed/docking_pred/2023-May-31-1603_sub9_nm5_bs15_s42_ex16_mel10_mts1000_k50_ec05_g099_lra3e-4_lrc9e-3/1e16add1d5649bf0b13dd0d86c7d3fc630d89625_ligand_9.pdbqt
 14 15 0 0 0
SMALL
GASTEIGER

@<TRIPOS>ATOM
      1  C          8.1600   -2.5780   -3.5890 C.3     1  UNL1        0.0800
      2  C          9.2770   -3.5290   -3.4210 C.2     1  UNL1        0.1300
      3  C          8.9880   -4.9760   -3.3660 C.3     1  UNL1        0.0870
      4  O         10.4020   -3.1040   -3.3320 O.2     1  UNL1       -0.3000
      5  C          8.5400   -1.1940   -3.1060 C.3     1  UNL1        0.0430
      6  C          7.7640   -0.8320   -1.9170 C.2     1  UNL1       -0.0440
      7  C          6.9860    0.3080   -1.9130 C.2     1  UNL1        0.0080
      8  C          7.7790   -1.6040   -0.7690 C.2     1  UNL1        0.0540
      9  C          6.2350    0.6870   -0.8040 C.2     1  UNL1        0.0510
     10  C          7.0380   -1.2510    0.3560 C.2     1  UNL1        0.1660
     11  C          6.2700   -0.1050    0.3280 C.2     1  UNL1        0.1650
     12  O          6.8600   -1.8150    1.6190 O.2     1  UNL1       -0.4540
     13  O          5.6420    0.0120    1.5600 O.2     1  UNL1       -0.4540
     14  C          6.2150   -0.9130    2.4800 C.3     1  UNL1        0.4680
@<TRIPOS>BOND
     1     1     2    1
     2     1     5    1
     3     2     3    1
     4     2     4    2
     5     5     6    1
     6     6     7    2
     7     6     8    1
     8     7     9    1
     9     9    11    2
    10     8    10    2
    11    11    10    1
    12    11    13    1
    13    10    12    1
    14    13    14    1
    15    12    14    1
