@<TRIPOS>MOLECULE
/home/cewinharhar/GITHUB/reincatalyze/data/processed/docking_pred/2023-May-31-1603_sub9_nm5_bs15_s42_ex16_mel10_mts1000_k50_ec05_g099_lra3e-4_lrc9e-3/1e16add1d5649bf0b13dd0d86c7d3fc630d89625_ligand_9.pdbqt
 14 15 0 0 0
SMALL
GASTEIGER

@<TRIPOS>ATOM
      1  C          5.7020   -0.0670    1.5870 C.3     1  UNL1        0.0800
      2  C          4.7940    1.0960    1.5360 C.2     1  UNL1        0.1300
      3  C          5.0290    2.1500    0.5280 C.3     1  UNL1        0.0870
      4  O          3.8790    1.1620    2.3190 O.2     1  UNL1       -0.3000
      5  C          7.1330    0.3400    1.3040 C.3     1  UNL1        0.0430
      6  C          7.5760   -0.1980    0.0140 C.2     1  UNL1       -0.0440
      7  C          7.8560    0.6520   -1.0360 C.2     1  UNL1        0.0080
      8  C          7.7270   -1.5570   -0.1990 C.2     1  UNL1        0.0540
      9  C          8.2780    0.1810   -2.2760 C.2     1  UNL1        0.0510
     10  C          8.1480   -2.0570   -1.4290 C.2     1  UNL1        0.1660
     11  C          8.4200   -1.1810   -2.4600 C.2     1  UNL1        0.1650
     12  O          8.3850   -3.3380   -1.9270 O.2     1  UNL1       -0.4540
     13  O          8.8140   -1.9310   -3.5580 O.2     1  UNL1       -0.4540
     14  C          8.5370   -3.3090   -3.3220 C.3     1  UNL1        0.4680
@<TRIPOS>BOND
     1    13    14    1
     2    13    11    1
     3    14    12    1
     4    11     9    2
     5    11    10    1
     6     9     7    1
     7    12    10    1
     8    10     8    2
     9     7     6    2
    10     8     6    1
    11     6     5    1
    12     3     2    1
    13     5     1    1
    14     2     1    1
    15     2     4    2
