@<TRIPOS>MOLECULE
/home/cewinharhar/GITHUB/reincatalyze/data/processed/docking_pred/2023-May-31-1603_sub9_nm5_bs15_s42_ex16_mel10_mts1000_k50_ec05_g099_lra3e-4_lrc9e-3/1e16add1d5649bf0b13dd0d86c7d3fc630d89625_ligand_9.pdbqt
 14 15 0 0 0
SMALL
GASTEIGER

@<TRIPOS>ATOM
      1  C          6.3660    1.1710    0.9220 C.3     1  UNL1        0.0800
      2  C          5.6650    0.3720    1.9470 C.2     1  UNL1        0.1300
      3  C          6.3170   -0.8370    2.4890 C.3     1  UNL1        0.0870
      4  O          4.5730    0.7240    2.3210 O.2     1  UNL1       -0.3000
      5  C          5.8240    0.8840   -0.4630 C.3     1  UNL1        0.0430
      6  C          6.7780    0.0810   -1.2330 C.2     1  UNL1       -0.0440
      7  C          7.4960    0.6500   -2.2640 C.2     1  UNL1        0.0080
      8  C          6.9920   -1.2600   -0.9620 C.2     1  UNL1        0.0540
      9  C          8.4110   -0.0780   -3.0190 C.2     1  UNL1        0.0510
     10  C          7.9010   -2.0140   -1.7010 C.2     1  UNL1        0.1660
     11  C          8.6040   -1.4150   -2.7250 C.2     1  UNL1        0.1650
     12  O          8.3170   -3.3450   -1.6610 O.2     1  UNL1       -0.4540
     13  O          9.4290   -2.3770   -3.2900 O.2     1  UNL1       -0.4540
     14  C          9.0620   -3.6670   -2.8070 C.3     1  UNL1        0.4680
@<TRIPOS>BOND
     1    13    14    1
     2    13    11    1
     3     9    11    2
     4     9     7    1
     5    14    12    1
     6    11    10    1
     7     7     6    2
     8    10    12    1
     9    10     8    2
    10     6     8    1
    11     6     5    1
    12     5     1    1
    13     1     2    1
    14     2     4    2
    15     2     3    1
