@<TRIPOS>MOLECULE
/home/cewinharhar/GITHUB/reincatalyze/data/processed/docking_pred/2023-May-31-1603_sub9_nm5_bs15_s42_ex16_mel10_mts1000_k50_ec05_g099_lra3e-4_lrc9e-3/1e20ac6c45a20644dde897fa0fc5711864bcd284_ligand_9.pdbqt
 14 15 0 0 0
SMALL
GASTEIGER

@<TRIPOS>ATOM
      1  C          6.5460    1.3140    0.3940 C.3     1  UNL1        0.0800
      2  C          5.4010    1.1390    1.3110 C.2     1  UNL1        0.1300
      3  C          5.3050   -0.0950    2.1160 C.3     1  UNL1        0.0870
      4  O          4.5680    2.0080    1.3830 O.2     1  UNL1       -0.3000
      5  C          6.1900    0.8890   -1.0150 C.3     1  UNL1        0.0430
      6  C          6.9930   -0.2660   -1.4240 C.2     1  UNL1       -0.0440
      7  C          7.4730   -0.3610   -2.7130 C.2     1  UNL1        0.0080
      8  C          7.2970   -1.2930   -0.5470 C.2     1  UNL1        0.0540
      9  C          8.2390   -1.4420   -3.1410 C.2     1  UNL1        0.0510
     10  C          8.0610   -2.3870   -0.9460 C.2     1  UNL1        0.1660
     11  C          8.5270   -2.4520   -2.2430 C.2     1  UNL1        0.1650
     12  O          8.5160   -3.5400   -0.3050 O.2     1  UNL1       -0.4540
     13  O          9.2500   -3.6290   -2.3730 O.2     1  UNL1       -0.4540
     14  C          9.0260   -4.4580   -1.2370 C.3     1  UNL1        0.4680
@<TRIPOS>BOND
     1     9     7    1
     2     9    11    2
     3     7     6    2
     4    13    11    1
     5    13    14    1
     6    11    10    1
     7     6     5    1
     8     6     8    1
     9    14    12    1
    10     5     1    1
    11    10     8    2
    12    10    12    1
    13     1     2    1
    14     2     4    2
    15     2     3    1
