MODEL 1
REMARK VINA RESULT:      -7.5      0.000      0.000
REMARK SMILES CC(=O)CCc1ccc2c(c1)OCO2
REMARK SMILES IDX 4 1 2 2 1 3 3 4 5 5 6 6 7 7 11 8 8 9 10 10 9 11 12 12 14 13
REMARK SMILES IDX 13 14
REMARK H PARENT
REMARK Flexibility Score: inf
ROOT
ATOM      1  C   UNL     1       5.524   1.925   1.303  1.00  0.00     0.080 C 
ENDROOT
BRANCH   1   2
ATOM      2  C   UNL     1       5.030   0.726   2.009  1.00  0.00     0.130 C 
ATOM      3  C   UNL     1       5.918  -0.445   2.147  1.00  0.00     0.087 C 
ATOM      4  O   UNL     1       3.912   0.729   2.460  1.00  0.00    -0.300 OA
ENDBRANCH   1   2
BRANCH   1   5
ATOM      5  C   UNL     1       5.366   1.782  -0.197  1.00  0.00     0.043 C 
BRANCH   5   6
ATOM      6  C   UNL     1       6.493   1.037  -0.765  1.00  0.00    -0.044 A 
ATOM      7  C   UNL     1       7.789   1.448  -0.529  1.00  0.00     0.008 A 
ATOM      8  C   UNL     1       6.307  -0.089  -1.547  1.00  0.00     0.054 A 
ATOM      9  C   UNL     1       8.887   0.769  -1.051  1.00  0.00     0.051 A 
ATOM     10  C   UNL     1       7.386  -0.790  -2.082  1.00  0.00     0.166 A 
ATOM     11  C   UNL     1       8.669  -0.353  -1.828  1.00  0.00     0.165 A 
ATOM     12  O   UNL     1       7.505  -1.925  -2.882  1.00  0.00    -0.454 OA
ATOM     13  O   UNL     1       9.544  -1.218  -2.470  1.00  0.00    -0.454 OA
ATOM     14  C   UNL     1       8.818  -2.058  -3.364  1.00  0.00     0.468 C 
ENDBRANCH   5   6
ENDBRANCH   1   5
TORSDOF 3
ENDMDL
MODEL 2
REMARK VINA RESULT:      -7.3      2.193      2.752
REMARK SMILES CC(=O)CCc1ccc2c(c1)OCO2
REMARK SMILES IDX 4 1 2 2 1 3 3 4 5 5 6 6 7 7 11 8 8 9 10 10 9 11 12 12 14 13
REMARK SMILES IDX 13 14
REMARK H PARENT
REMARK Flexibility Score: inf
ROOT
ATOM      1  C   UNL     1       5.356  -0.160   1.865  1.00  0.00     0.080 C 
ENDROOT
BRANCH   1   2
ATOM      2  C   UNL     1       4.608   1.092   1.630  1.00  0.00     0.130 C 
ATOM      3  C   UNL     1       5.053   2.007   0.560  1.00  0.00     0.087 C 
ATOM      4  O   UNL     1       3.649   1.341   2.318  1.00  0.00    -0.300 OA
ENDBRANCH   1   2
BRANCH   1   5
ATOM      5  C   UNL     1       6.840   0.037   1.634  1.00  0.00     0.043 C 
BRANCH   5   6
ATOM      6  C   UNL     1       7.334  -0.905   0.625  1.00  0.00    -0.044 A 
ATOM      7  C   UNL     1       7.216  -0.612  -0.718  1.00  0.00     0.008 A 
ATOM      8  C   UNL     1       7.927  -2.106   0.973  1.00  0.00     0.054 A 
ATOM      9  C   UNL     1       7.671  -1.480  -1.707  1.00  0.00     0.051 A 
ATOM     10  C   UNL     1       8.392  -2.994   0.005  1.00  0.00     0.166 A 
ATOM     11  C   UNL     1       8.259  -2.672  -1.329  1.00  0.00     0.165 A 
ATOM     12  O   UNL     1       9.014  -4.241   0.051  1.00  0.00    -0.454 OA
ATOM     13  O   UNL     1       8.796  -3.715  -2.071  1.00  0.00    -0.454 OA
ATOM     14  C   UNL     1       9.032  -4.835  -1.222  1.00  0.00     0.468 C 
ENDBRANCH   5   6
ENDBRANCH   1   5
TORSDOF 3
ENDMDL
MODEL 3
REMARK VINA RESULT:      -7.3      1.907      2.345
REMARK SMILES CC(=O)CCc1ccc2c(c1)OCO2
REMARK SMILES IDX 4 1 2 2 1 3 3 4 5 5 6 6 7 7 11 8 8 9 10 10 9 11 12 12 14 13
REMARK SMILES IDX 13 14
REMARK H PARENT
REMARK Flexibility Score: inf
ROOT
ATOM      1  C   UNL     1       5.615   1.319  -0.250  1.00  0.00     0.080 C 
ENDROOT
BRANCH   1   2
ATOM      2  C   UNL     1       4.976   1.230   1.078  1.00  0.00     0.130 C 
ATOM      3  C   UNL     1       5.279   0.075   1.948  1.00  0.00     0.087 C 
ATOM      4  O   UNL     1       4.219   2.102   1.425  1.00  0.00    -0.300 OA
ENDBRANCH   1   2
BRANCH   1   5
ATOM      5  C   UNL     1       7.116   1.140  -0.150  1.00  0.00     0.043 C 
BRANCH   5   6
ATOM      6  C   UNL     1       7.525  -0.131  -0.755  1.00  0.00    -0.044 A 
ATOM      7  C   UNL     1       7.481  -0.297  -2.124  1.00  0.00     0.008 A 
ATOM      8  C   UNL     1       7.963  -1.198   0.009  1.00  0.00     0.054 A 
ATOM      9  C   UNL     1       7.860  -1.488  -2.737  1.00  0.00     0.051 A 
ATOM     10  C   UNL     1       8.348  -2.402  -0.576  1.00  0.00     0.166 A 
ATOM     11  C   UNL     1       8.293  -2.537  -1.948  1.00  0.00     0.165 A 
ATOM     12  O   UNL     1       8.819  -3.617  -0.079  1.00  0.00    -0.454 OA
ATOM     13  O   UNL     1       8.726  -3.816  -2.264  1.00  0.00    -0.454 OA
ATOM     14  C   UNL     1       8.804  -4.603  -1.079  1.00  0.00     0.468 C 
ENDBRANCH   5   6
ENDBRANCH   1   5
TORSDOF 3
ENDMDL
MODEL 4
REMARK VINA RESULT:      -7.1      1.235      5.126
REMARK SMILES CC(=O)CCc1ccc2c(c1)OCO2
REMARK SMILES IDX 4 1 2 2 1 3 3 4 5 5 6 6 7 7 11 8 8 9 10 10 9 11 12 12 14 13
REMARK SMILES IDX 13 14
REMARK H PARENT
REMARK Flexibility Score: inf
ROOT
ATOM      1  C   UNL     1       8.175   0.152  -2.702  1.00  0.00     0.080 C 
ENDROOT
BRANCH   1   2
ATOM      2  C   UNL     1       7.870  -1.293  -2.711  1.00  0.00     0.130 C 
ATOM      3  C   UNL     1       8.964  -2.259  -2.933  1.00  0.00     0.087 C 
ATOM      4  O   UNL     1       6.732  -1.654  -2.537  1.00  0.00    -0.300 OA
ENDBRANCH   1   2
BRANCH   1   5
ATOM      5  C   UNL     1       8.760   0.581  -1.373  1.00  0.00     0.043 C 
BRANCH   5   6
ATOM      6  C   UNL     1       7.755   0.476  -0.310  1.00  0.00    -0.044 A 
ATOM      7  C   UNL     1       7.865  -0.501   0.657  1.00  0.00     0.008 A 
ATOM      8  C   UNL     1       6.675   1.337  -0.236  1.00  0.00     0.054 A 
ATOM      9  C   UNL     1       6.932  -0.636   1.682  1.00  0.00     0.051 A 
ATOM     10  C   UNL     1       5.725   1.227   0.777  1.00  0.00     0.166 A 
ATOM     11  C   UNL     1       5.863   0.239   1.730  1.00  0.00     0.165 A 
ATOM     12  O   UNL     1       4.565   1.929   1.101  1.00  0.00    -0.454 OA
ATOM     13  O   UNL     1       4.797   0.351   2.611  1.00  0.00    -0.454 OA
ATOM     14  C   UNL     1       3.822   1.240   2.073  1.00  0.00     0.468 C 
ENDBRANCH   5   6
ENDBRANCH   1   5
TORSDOF 3
ENDMDL
MODEL 5
REMARK VINA RESULT:      -7.0      1.273      1.455
REMARK SMILES CC(=O)CCc1ccc2c(c1)OCO2
REMARK SMILES IDX 4 1 2 2 1 3 3 4 5 5 6 6 7 7 11 8 8 9 10 10 9 11 12 12 14 13
REMARK SMILES IDX 13 14
REMARK H PARENT
REMARK Flexibility Score: inf
ROOT
ATOM      1  C   UNL     1       6.251   1.261   0.993  1.00  0.00     0.080 C 
ENDROOT
BRANCH   1   2
ATOM      2  C   UNL     1       5.567   0.394   1.974  1.00  0.00     0.130 C 
ATOM      3  C   UNL     1       6.285  -0.770   2.531  1.00  0.00     0.087 C 
ATOM      4  O   UNL     1       4.435   0.655   2.299  1.00  0.00    -0.300 OA
ENDBRANCH   1   2
BRANCH   1   5
ATOM      5  C   UNL     1       5.755   0.996  -0.413  1.00  0.00     0.043 C 
BRANCH   5   6
ATOM      6  C   UNL     1       6.698   0.138  -1.138  1.00  0.00    -0.044 A 
ATOM      7  C   UNL     1       7.345   0.608  -2.262  1.00  0.00     0.008 A 
ATOM      8  C   UNL     1       6.971  -1.156  -0.732  1.00  0.00     0.054 A 
ATOM      9  C   UNL     1       8.246  -0.175  -2.979  1.00  0.00     0.051 A 
ATOM     10  C   UNL     1       7.868  -1.963  -1.429  1.00  0.00     0.166 A 
ATOM     11  C   UNL     1       8.499  -1.464  -2.549  1.00  0.00     0.165 A 
ATOM     12  O   UNL     1       8.331  -3.268  -1.263  1.00  0.00    -0.454 OA
ATOM     13  O   UNL     1       9.328  -2.459  -3.046  1.00  0.00    -0.454 OA
ATOM     14  C   UNL     1       9.030  -3.696  -2.404  1.00  0.00     0.468 C 
ENDBRANCH   5   6
ENDBRANCH   1   5
TORSDOF 3
ENDMDL
