@<TRIPOS>MOLECULE
/home/cewinharhar/GITHUB/reincatalyze/data/processed/docking_pred/2023-May-31-1603_sub9_nm5_bs15_s42_ex16_mel10_mts1000_k50_ec05_g099_lra3e-4_lrc9e-3/1e8ffecbec14ce573bf52adb8829230239be76a8_ligand_9.pdbqt
 14 15 0 0 0
SMALL
GASTEIGER

@<TRIPOS>ATOM
      1  C          6.2510    1.2610    0.9930 C.3     1  UNL1        0.0800
      2  C          5.5670    0.3940    1.9740 C.2     1  UNL1        0.1300
      3  C          6.2850   -0.7700    2.5310 C.3     1  UNL1        0.0870
      4  O          4.4350    0.6550    2.2990 O.2     1  UNL1       -0.3000
      5  C          5.7550    0.9960   -0.4130 C.3     1  UNL1        0.0430
      6  C          6.6980    0.1380   -1.1380 C.2     1  UNL1       -0.0440
      7  C          7.3450    0.6080   -2.2620 C.2     1  UNL1        0.0080
      8  C          6.9710   -1.1560   -0.7320 C.2     1  UNL1        0.0540
      9  C          8.2460   -0.1750   -2.9790 C.2     1  UNL1        0.0510
     10  C          7.8680   -1.9630   -1.4290 C.2     1  UNL1        0.1660
     11  C          8.4990   -1.4640   -2.5490 C.2     1  UNL1        0.1650
     12  O          8.3310   -3.2680   -1.2630 O.2     1  UNL1       -0.4540
     13  O          9.3280   -2.4590   -3.0460 O.2     1  UNL1       -0.4540
     14  C          9.0300   -3.6960   -2.4040 C.3     1  UNL1        0.4680
@<TRIPOS>BOND
     1    13    11    1
     2    13    14    1
     3     9    11    2
     4     9     7    1
     5    11    10    1
     6    14    12    1
     7     7     6    2
     8    10    12    1
     9    10     8    2
    10     6     8    1
    11     6     5    1
    12     5     1    1
    13     1     2    1
    14     2     4    2
    15     2     3    1
