@<TRIPOS>MOLECULE
/home/cewinharhar/GITHUB/reincatalyze/data/processed/docking_pred/2023-May-31-1603_sub9_nm5_bs15_s42_ex16_mel10_mts1000_k50_ec05_g099_lra3e-4_lrc9e-3/1e8ffecbec14ce573bf52adb8829230239be76a8_ligand_9.pdbqt
 14 15 0 0 0
SMALL
GASTEIGER

@<TRIPOS>ATOM
      1  C          5.6150    1.3190   -0.2500 C.3     1  UNL1        0.0800
      2  C          4.9760    1.2300    1.0780 C.2     1  UNL1        0.1300
      3  C          5.2790    0.0750    1.9480 C.3     1  UNL1        0.0870
      4  O          4.2190    2.1020    1.4250 O.2     1  UNL1       -0.3000
      5  C          7.1160    1.1400   -0.1500 C.3     1  UNL1        0.0430
      6  C          7.5250   -0.1310   -0.7550 C.2     1  UNL1       -0.0440
      7  C          7.4810   -0.2970   -2.1240 C.2     1  UNL1        0.0080
      8  C          7.9630   -1.1980    0.0090 C.2     1  UNL1        0.0540
      9  C          7.8600   -1.4880   -2.7370 C.2     1  UNL1        0.0510
     10  C          8.3480   -2.4020   -0.5760 C.2     1  UNL1        0.1660
     11  C          8.2930   -2.5370   -1.9480 C.2     1  UNL1        0.1650
     12  O          8.8190   -3.6170   -0.0790 O.2     1  UNL1       -0.4540
     13  O          8.7260   -3.8160   -2.2640 O.2     1  UNL1       -0.4540
     14  C          8.8040   -4.6030   -1.0790 C.3     1  UNL1        0.4680
@<TRIPOS>BOND
     1     9     7    1
     2     9    11    2
     3    13    11    1
     4    13    14    1
     5     7     6    2
     6    11    10    1
     7    14    12    1
     8     6     5    1
     9     6     8    1
    10    10    12    1
    11    10     8    2
    12     1     5    1
    13     1     2    1
    14     2     4    2
    15     2     3    1
