@<TRIPOS>MOLECULE
/home/cewinharhar/GITHUB/reincatalyze/data/processed/docking_pred/2023-May-31-1603_sub9_nm5_bs15_s42_ex16_mel10_mts1000_k50_ec05_g099_lra3e-4_lrc9e-3/1e8ffecbec14ce573bf52adb8829230239be76a8_ligand_9.pdbqt
 14 15 0 0 0
SMALL
GASTEIGER

@<TRIPOS>ATOM
      1  C          8.1750    0.1520   -2.7020 C.3     1  UNL1        0.0800
      2  C          7.8700   -1.2930   -2.7110 C.2     1  UNL1        0.1300
      3  C          8.9640   -2.2590   -2.9330 C.3     1  UNL1        0.0870
      4  O          6.7320   -1.6540   -2.5370 O.2     1  UNL1       -0.3000
      5  C          8.7600    0.5810   -1.3730 C.3     1  UNL1        0.0430
      6  C          7.7550    0.4760   -0.3100 C.2     1  UNL1       -0.0440
      7  C          7.8650   -0.5010    0.6570 C.2     1  UNL1        0.0080
      8  C          6.6750    1.3370   -0.2360 C.2     1  UNL1        0.0540
      9  C          6.9320   -0.6360    1.6820 C.2     1  UNL1        0.0510
     10  C          5.7250    1.2270    0.7770 C.2     1  UNL1        0.1660
     11  C          5.8630    0.2390    1.7300 C.2     1  UNL1        0.1650
     12  O          4.5650    1.9290    1.1010 O.2     1  UNL1       -0.4540
     13  O          4.7970    0.3510    2.6110 O.2     1  UNL1       -0.4540
     14  C          3.8220    1.2400    2.0730 C.3     1  UNL1        0.4680
@<TRIPOS>BOND
     1     3     2    1
     2     2     1    1
     3     2     4    2
     4     1     5    1
     5     5     6    1
     6     6     8    2
     7     6     7    1
     8     8    10    1
     9     7     9    2
    10    10    12    1
    11    10    11    2
    12    12    14    1
    13     9    11    1
    14    11    13    1
    15    14    13    1
