@<TRIPOS>MOLECULE
/home/cewinharhar/GITHUB/reincatalyze/data/processed/docking_pred/2023-May-31-1603_sub9_nm5_bs15_s42_ex16_mel10_mts1000_k50_ec05_g099_lra3e-4_lrc9e-3/1e8ffecbec14ce573bf52adb8829230239be76a8_ligand_9.pdbqt
 14 15 0 0 0
SMALL
GASTEIGER

@<TRIPOS>ATOM
      1  C          5.5240    1.9250    1.3030 C.3     1  UNL1        0.0800
      2  C          5.0300    0.7260    2.0090 C.2     1  UNL1        0.1300
      3  C          5.9180   -0.4450    2.1470 C.3     1  UNL1        0.0870
      4  O          3.9120    0.7290    2.4600 O.2     1  UNL1       -0.3000
      5  C          5.3660    1.7820   -0.1970 C.3     1  UNL1        0.0430
      6  C          6.4930    1.0370   -0.7650 C.2     1  UNL1       -0.0440
      7  C          7.7890    1.4480   -0.5290 C.2     1  UNL1        0.0080
      8  C          6.3070   -0.0890   -1.5470 C.2     1  UNL1        0.0540
      9  C          8.8870    0.7690   -1.0510 C.2     1  UNL1        0.0510
     10  C          7.3860   -0.7900   -2.0820 C.2     1  UNL1        0.1660
     11  C          8.6690   -0.3530   -1.8280 C.2     1  UNL1        0.1650
     12  O          7.5050   -1.9250   -2.8820 O.2     1  UNL1       -0.4540
     13  O          9.5440   -1.2180   -2.4700 O.2     1  UNL1       -0.4540
     14  C          8.8180   -2.0580   -3.3640 C.3     1  UNL1        0.4680
@<TRIPOS>BOND
     1    14    12    1
     2    14    13    1
     3    12    10    1
     4    13    11    1
     5    10    11    2
     6    10     8    1
     7    11     9    1
     8     8     6    2
     9     9     7    2
    10     6     7    1
    11     6     5    1
    12     5     1    1
    13     1     2    1
    14     2     3    1
    15     2     4    2
