@<TRIPOS>MOLECULE
/home/cewinharhar/GITHUB/reincatalyze/data/processed/docking_pred/2023-May-31-1603_sub9_nm5_bs15_s42_ex16_mel10_mts1000_k50_ec05_g099_lra3e-4_lrc9e-3/1e8ffecbec14ce573bf52adb8829230239be76a8_ligand_9.pdbqt
 14 15 0 0 0
SMALL
GASTEIGER

@<TRIPOS>ATOM
      1  C          5.3560   -0.1600    1.8650 C.3     1  UNL1        0.0800
      2  C          4.6080    1.0920    1.6300 C.2     1  UNL1        0.1300
      3  C          5.0530    2.0070    0.5600 C.3     1  UNL1        0.0870
      4  O          3.6490    1.3410    2.3180 O.2     1  UNL1       -0.3000
      5  C          6.8400    0.0370    1.6340 C.3     1  UNL1        0.0430
      6  C          7.3340   -0.9050    0.6250 C.2     1  UNL1       -0.0440
      7  C          7.2160   -0.6120   -0.7180 C.2     1  UNL1        0.0080
      8  C          7.9270   -2.1060    0.9730 C.2     1  UNL1        0.0540
      9  C          7.6710   -1.4800   -1.7070 C.2     1  UNL1        0.0510
     10  C          8.3920   -2.9940    0.0050 C.2     1  UNL1        0.1660
     11  C          8.2590   -2.6720   -1.3290 C.2     1  UNL1        0.1650
     12  O          9.0140   -4.2410    0.0510 O.2     1  UNL1       -0.4540
     13  O          8.7960   -3.7150   -2.0710 O.2     1  UNL1       -0.4540
     14  C          9.0320   -4.8350   -1.2220 C.3     1  UNL1        0.4680
@<TRIPOS>BOND
     1    13    11    1
     2    13    14    1
     3     9    11    2
     4     9     7    1
     5    11    10    1
     6    14    12    1
     7     7     6    2
     8    10    12    1
     9    10     8    2
    10     3     2    1
    11     6     8    1
    12     6     5    1
    13     2     1    1
    14     2     4    2
    15     5     1    1
