MODEL 1
REMARK VINA RESULT:      -7.2      0.000      0.000
REMARK SMILES CC(=O)CCc1ccc2c(c1)OCO2
REMARK SMILES IDX 4 1 2 2 1 3 3 4 5 5 6 6 7 7 11 8 8 9 10 10 9 11 12 12 14 13
REMARK SMILES IDX 13 14
REMARK H PARENT
REMARK Flexibility Score: inf
ROOT
ATOM      1  C   UNL     1       9.719   1.295   2.651  1.00  0.00     0.080 C 
ENDROOT
BRANCH   1   2
ATOM      2  C   UNL     1      11.156   0.956   2.670  1.00  0.00     0.130 C 
ATOM      3  C   UNL     1      12.070   1.737   3.528  1.00  0.00     0.087 C 
ATOM      4  O   UNL     1      11.555   0.047   1.984  1.00  0.00    -0.300 OA
ENDBRANCH   1   2
BRANCH   1   5
ATOM      5  C   UNL     1       9.348   2.039   1.385  1.00  0.00     0.043 C 
BRANCH   5   6
ATOM      6  C   UNL     1       8.630   1.157   0.461  1.00  0.00    -0.044 A 
ATOM      7  C   UNL     1       7.273   0.951   0.607  1.00  0.00     0.008 A 
ATOM      8  C   UNL     1       9.271   0.505  -0.578  1.00  0.00     0.054 A 
ATOM      9  C   UNL     1       6.555   0.120  -0.249  1.00  0.00     0.051 A 
ATOM     10  C   UNL     1       8.579  -0.331  -1.450  1.00  0.00     0.166 A 
ATOM     11  C   UNL     1       7.223  -0.517  -1.277  1.00  0.00     0.165 A 
ATOM     12  O   UNL     1       8.945  -1.099  -2.555  1.00  0.00    -0.454 OA
ATOM     13  O   UNL     1       6.786  -1.385  -2.267  1.00  0.00    -0.454 OA
ATOM     14  C   UNL     1       7.909  -1.975  -2.917  1.00  0.00     0.468 C 
ENDBRANCH   5   6
ENDBRANCH   1   5
TORSDOF 3
ENDMDL
MODEL 2
REMARK VINA RESULT:      -7.0      2.718      5.317
REMARK SMILES CC(=O)CCc1ccc2c(c1)OCO2
REMARK SMILES IDX 4 1 2 2 1 3 3 4 5 5 6 6 7 7 11 8 8 9 10 10 9 11 12 12 14 13
REMARK SMILES IDX 13 14
REMARK H PARENT
REMARK Flexibility Score: inf
ROOT
ATOM      1  C   UNL     1       5.833   0.680   0.405  1.00  0.00     0.080 C 
ENDROOT
BRANCH   1   2
ATOM      2  C   UNL     1       5.448   0.144   1.726  1.00  0.00     0.130 C 
ATOM      3  C   UNL     1       6.187  -1.009   2.280  1.00  0.00     0.087 C 
ATOM      4  O   UNL     1       4.537   0.659   2.327  1.00  0.00    -0.300 OA
ENDBRANCH   1   2
BRANCH   1   5
ATOM      5  C   UNL     1       6.542   2.011   0.539  1.00  0.00     0.043 C 
BRANCH   5   6
ATOM      6  C   UNL     1       7.965   1.810   0.829  1.00  0.00    -0.044 A 
ATOM      7  C   UNL     1       8.805   1.289  -0.133  1.00  0.00     0.008 A 
ATOM      8  C   UNL     1       8.513   2.127   2.059  1.00  0.00     0.054 A 
ATOM      9  C   UNL     1      10.162   1.082   0.103  1.00  0.00     0.051 A 
ATOM     10  C   UNL     1       9.867   1.931   2.324  1.00  0.00     0.166 A 
ATOM     11  C   UNL     1      10.681   1.409   1.341  1.00  0.00     0.165 A 
ATOM     12  O   UNL     1      10.680   2.150   3.436  1.00  0.00    -0.454 OA
ATOM     13  O   UNL     1      11.964   1.317   1.860  1.00  0.00    -0.454 OA
ATOM     14  C   UNL     1      11.928   1.527   3.269  1.00  0.00     0.468 C 
ENDBRANCH   5   6
ENDBRANCH   1   5
TORSDOF 3
ENDMDL
MODEL 3
REMARK VINA RESULT:      -6.9      2.562      5.153
REMARK SMILES CC(=O)CCc1ccc2c(c1)OCO2
REMARK SMILES IDX 4 1 2 2 1 3 3 4 5 5 6 6 7 7 11 8 8 9 10 10 9 11 12 12 14 13
REMARK SMILES IDX 13 14
REMARK H PARENT
REMARK Flexibility Score: inf
ROOT
ATOM      1  C   UNL     1       5.880   1.242   0.574  1.00  0.00     0.080 C 
ENDROOT
BRANCH   1   2
ATOM      2  C   UNL     1       5.561   0.178   1.547  1.00  0.00     0.130 C 
ATOM      3  C   UNL     1       5.995  -1.206   1.269  1.00  0.00     0.087 C 
ATOM      4  O   UNL     1       4.952   0.461   2.549  1.00  0.00    -0.300 OA
ENDBRANCH   1   2
BRANCH   1   5
ATOM      5  C   UNL     1       7.196   0.970  -0.124  1.00  0.00     0.043 C 
BRANCH   5   6
ATOM      6  C   UNL     1       8.314   1.090   0.817  1.00  0.00    -0.044 A 
ATOM      7  C   UNL     1       8.259   2.000   1.852  1.00  0.00     0.008 A 
ATOM      8  C   UNL     1       9.450   0.308   0.707  1.00  0.00     0.054 A 
ATOM      9  C   UNL     1       9.298   2.145   2.766  1.00  0.00     0.051 A 
ATOM     10  C   UNL     1      10.506   0.430   1.607  1.00  0.00     0.166 A 
ATOM     11  C   UNL     1      10.421   1.349   2.631  1.00  0.00     0.165 A 
ATOM     12  O   UNL     1      11.741  -0.203   1.746  1.00  0.00    -0.454 OA
ATOM     13  O   UNL     1      11.591   1.267   3.372  1.00  0.00    -0.454 OA
ATOM     14  C   UNL     1      12.550   0.483   2.667  1.00  0.00     0.468 C 
ENDBRANCH   5   6
ENDBRANCH   1   5
TORSDOF 3
ENDMDL
MODEL 4
REMARK VINA RESULT:      -6.9      3.291      3.954
REMARK SMILES CC(=O)CCc1ccc2c(c1)OCO2
REMARK SMILES IDX 4 1 2 2 1 3 3 4 5 5 6 6 7 7 11 8 8 9 10 10 9 11 12 12 14 13
REMARK SMILES IDX 13 14
REMARK H PARENT
REMARK Flexibility Score: inf
ROOT
ATOM      1  C   UNL     1       6.275   1.220   0.983  1.00  0.00     0.080 C 
ENDROOT
BRANCH   1   2
ATOM      2  C   UNL     1       5.566   0.387   1.975  1.00  0.00     0.130 C 
ATOM      3  C   UNL     1       6.221  -0.830   2.496  1.00  0.00     0.087 C 
ATOM      4  O   UNL     1       4.465   0.718   2.340  1.00  0.00    -0.300 OA
ENDBRANCH   1   2
BRANCH   1   5
ATOM      5  C   UNL     1       5.779   0.944  -0.421  1.00  0.00     0.043 C 
BRANCH   5   6
ATOM      6  C   UNL     1       6.724   0.086  -1.142  1.00  0.00    -0.044 A 
ATOM      7  C   UNL     1       7.366   0.551  -2.271  1.00  0.00     0.008 A 
ATOM      8  C   UNL     1       7.006  -1.204  -0.727  1.00  0.00     0.054 A 
ATOM      9  C   UNL     1       8.269  -0.231  -2.984  1.00  0.00     0.051 A 
ATOM     10  C   UNL     1       7.905  -2.010  -1.420  1.00  0.00     0.166 A 
ATOM     11  C   UNL     1       8.531  -1.516  -2.546  1.00  0.00     0.165 A 
ATOM     12  O   UNL     1       8.376  -3.312  -1.247  1.00  0.00    -0.454 OA
ATOM     13  O   UNL     1       9.364  -2.510  -3.038  1.00  0.00    -0.454 OA
ATOM     14  C   UNL     1       9.074  -3.744  -2.386  1.00  0.00     0.468 C 
ENDBRANCH   5   6
ENDBRANCH   1   5
TORSDOF 3
ENDMDL
MODEL 5
REMARK VINA RESULT:      -6.7      1.330      5.260
REMARK SMILES CC(=O)CCc1ccc2c(c1)OCO2
REMARK SMILES IDX 4 1 2 2 1 3 3 4 5 5 6 6 7 7 11 8 8 9 10 10 9 11 12 12 14 13
REMARK SMILES IDX 13 14
REMARK H PARENT
REMARK Flexibility Score: inf
ROOT
ATOM      1  C   UNL     1       6.561  -0.109  -0.825  1.00  0.00     0.080 C 
ENDROOT
BRANCH   1   2
ATOM      2  C   UNL     1       7.200  -0.708  -2.014  1.00  0.00     0.130 C 
ATOM      3  C   UNL     1       8.246   0.051  -2.728  1.00  0.00     0.087 C 
ATOM      4  O   UNL     1       6.855  -1.805  -2.377  1.00  0.00    -0.300 OA
ENDBRANCH   1   2
BRANCH   1   5
ATOM      5  C   UNL     1       6.926  -0.867   0.435  1.00  0.00     0.043 C 
BRANCH   5   6
ATOM      6  C   UNL     1       7.993  -0.174   1.161  1.00  0.00    -0.044 A 
ATOM      7  C   UNL     1       7.704   0.926   1.943  1.00  0.00     0.008 A 
ATOM      8  C   UNL     1       9.313  -0.586   1.094  1.00  0.00     0.054 A 
ATOM      9  C   UNL     1       8.689   1.612   2.648  1.00  0.00     0.051 A 
ATOM     10  C   UNL     1      10.319   0.081   1.788  1.00  0.00     0.166 A 
ATOM     11  C   UNL     1       9.998   1.177   2.561  1.00  0.00     0.165 A 
ATOM     12  O   UNL     1      11.697  -0.098   1.909  1.00  0.00    -0.454 OA
ATOM     13  O   UNL     1      11.170   1.647   3.136  1.00  0.00    -0.454 OA
ATOM     14  C   UNL     1      12.291   1.018   2.520  1.00  0.00     0.468 C 
ENDBRANCH   5   6
ENDBRANCH   1   5
TORSDOF 3
ENDMDL
