@<TRIPOS>MOLECULE
/home/cewinharhar/GITHUB/reincatalyze/data/processed/docking_pred/2023-May-31-1603_sub9_nm5_bs15_s42_ex16_mel10_mts1000_k50_ec05_g099_lra3e-4_lrc9e-3/1ec3d4ded79b7f38a98788c4b0a5da992fc20b58_ligand_9.pdbqt
 14 15 0 0 0
SMALL
GASTEIGER

@<TRIPOS>ATOM
      1  C          9.7190    1.2950    2.6510 C.3     1  UNL1        0.0800
      2  C         11.1560    0.9560    2.6700 C.2     1  UNL1        0.1300
      3  C         12.0700    1.7370    3.5280 C.3     1  UNL1        0.0870
      4  O         11.5550    0.0470    1.9840 O.2     1  UNL1       -0.3000
      5  C          9.3480    2.0390    1.3850 C.3     1  UNL1        0.0430
      6  C          8.6300    1.1570    0.4610 C.2     1  UNL1       -0.0440
      7  C          7.2730    0.9510    0.6070 C.2     1  UNL1        0.0080
      8  C          9.2710    0.5050   -0.5780 C.2     1  UNL1        0.0540
      9  C          6.5550    0.1200   -0.2490 C.2     1  UNL1        0.0510
     10  C          8.5790   -0.3310   -1.4500 C.2     1  UNL1        0.1660
     11  C          7.2230   -0.5170   -1.2770 C.2     1  UNL1        0.1650
     12  O          8.9450   -1.0990   -2.5550 O.2     1  UNL1       -0.4540
     13  O          6.7860   -1.3850   -2.2670 O.2     1  UNL1       -0.4540
     14  C          7.9090   -1.9750   -2.9170 C.3     1  UNL1        0.4680
@<TRIPOS>BOND
     1    14    12    1
     2    14    13    1
     3    12    10    1
     4    13    11    1
     5    10    11    2
     6    10     8    1
     7    11     9    1
     8     8     6    2
     9     9     7    2
    10     6     7    1
    11     6     5    1
    12     5     1    1
    13     4     2    2
    14     1     2    1
    15     2     3    1
