@<TRIPOS>MOLECULE
/home/cewinharhar/GITHUB/reincatalyze/data/processed/docking_pred/2023-May-31-1603_sub9_nm5_bs15_s42_ex16_mel10_mts1000_k50_ec05_g099_lra3e-4_lrc9e-3/1ec3d4ded79b7f38a98788c4b0a5da992fc20b58_ligand_9.pdbqt
 14 15 0 0 0
SMALL
GASTEIGER

@<TRIPOS>ATOM
      1  C          6.5610   -0.1090   -0.8250 C.3     1  UNL1        0.0800
      2  C          7.2000   -0.7080   -2.0140 C.2     1  UNL1        0.1300
      3  C          8.2460    0.0510   -2.7280 C.3     1  UNL1        0.0870
      4  O          6.8550   -1.8050   -2.3770 O.2     1  UNL1       -0.3000
      5  C          6.9260   -0.8670    0.4350 C.3     1  UNL1        0.0430
      6  C          7.9930   -0.1740    1.1610 C.2     1  UNL1       -0.0440
      7  C          7.7040    0.9260    1.9430 C.2     1  UNL1        0.0080
      8  C          9.3130   -0.5860    1.0940 C.2     1  UNL1        0.0540
      9  C          8.6890    1.6120    2.6480 C.2     1  UNL1        0.0510
     10  C         10.3190    0.0810    1.7880 C.2     1  UNL1        0.1660
     11  C          9.9980    1.1770    2.5610 C.2     1  UNL1        0.1650
     12  O         11.6970   -0.0980    1.9090 O.2     1  UNL1       -0.4540
     13  O         11.1700    1.6470    3.1360 O.2     1  UNL1       -0.4540
     14  C         12.2910    1.0180    2.5200 C.3     1  UNL1        0.4680
@<TRIPOS>BOND
     1     3     2    1
     2     4     2    2
     3     2     1    1
     4     1     5    1
     5     5     6    1
     6     8     6    2
     7     8    10    1
     8     6     7    1
     9    10    12    1
    10    10    11    2
    11    12    14    1
    12     7     9    2
    13    14    13    1
    14    11     9    1
    15    11    13    1
