@<TRIPOS>MOLECULE
/home/cewinharhar/GITHUB/reincatalyze/data/processed/docking_pred/2023-May-31-1603_sub9_nm5_bs15_s42_ex16_mel10_mts1000_k50_ec05_g099_lra3e-4_lrc9e-3/1ec3d4ded79b7f38a98788c4b0a5da992fc20b58_ligand_9.pdbqt
 14 15 0 0 0
SMALL
GASTEIGER

@<TRIPOS>ATOM
      1  C          6.2750    1.2200    0.9830 C.3     1  UNL1        0.0800
      2  C          5.5660    0.3870    1.9750 C.2     1  UNL1        0.1300
      3  C          6.2210   -0.8300    2.4960 C.3     1  UNL1        0.0870
      4  O          4.4650    0.7180    2.3400 O.2     1  UNL1       -0.3000
      5  C          5.7790    0.9440   -0.4210 C.3     1  UNL1        0.0430
      6  C          6.7240    0.0860   -1.1420 C.2     1  UNL1       -0.0440
      7  C          7.3660    0.5510   -2.2710 C.2     1  UNL1        0.0080
      8  C          7.0060   -1.2040   -0.7270 C.2     1  UNL1        0.0540
      9  C          8.2690   -0.2310   -2.9840 C.2     1  UNL1        0.0510
     10  C          7.9050   -2.0100   -1.4200 C.2     1  UNL1        0.1660
     11  C          8.5310   -1.5160   -2.5460 C.2     1  UNL1        0.1650
     12  O          8.3760   -3.3120   -1.2470 O.2     1  UNL1       -0.4540
     13  O          9.3640   -2.5100   -3.0380 O.2     1  UNL1       -0.4540
     14  C          9.0740   -3.7440   -2.3860 C.3     1  UNL1        0.4680
@<TRIPOS>BOND
     1    13    11    1
     2    13    14    1
     3     9    11    2
     4     9     7    1
     5    11    10    1
     6    14    12    1
     7     7     6    2
     8    10    12    1
     9    10     8    2
    10     6     8    1
    11     6     5    1
    12     5     1    1
    13     1     2    1
    14     2     4    2
    15     2     3    1
