@<TRIPOS>MOLECULE
/home/cewinharhar/GITHUB/reincatalyze/data/processed/docking_pred/2023-May-31-1603_sub9_nm5_bs15_s42_ex16_mel10_mts1000_k50_ec05_g099_lra3e-4_lrc9e-3/1ec3d4ded79b7f38a98788c4b0a5da992fc20b58_ligand_9.pdbqt
 14 15 0 0 0
SMALL
GASTEIGER

@<TRIPOS>ATOM
      1  C          5.8800    1.2420    0.5740 C.3     1  UNL1        0.0800
      2  C          5.5610    0.1780    1.5470 C.2     1  UNL1        0.1300
      3  C          5.9950   -1.2060    1.2690 C.3     1  UNL1        0.0870
      4  O          4.9520    0.4610    2.5490 O.2     1  UNL1       -0.3000
      5  C          7.1960    0.9700   -0.1240 C.3     1  UNL1        0.0430
      6  C          8.3140    1.0900    0.8170 C.2     1  UNL1       -0.0440
      7  C          8.2590    2.0000    1.8520 C.2     1  UNL1        0.0080
      8  C          9.4500    0.3080    0.7070 C.2     1  UNL1        0.0540
      9  C          9.2980    2.1450    2.7660 C.2     1  UNL1        0.0510
     10  C         10.5060    0.4300    1.6070 C.2     1  UNL1        0.1660
     11  C         10.4210    1.3490    2.6310 C.2     1  UNL1        0.1650
     12  O         11.7410   -0.2030    1.7460 O.2     1  UNL1       -0.4540
     13  O         11.5910    1.2670    3.3720 O.2     1  UNL1       -0.4540
     14  C         12.5500    0.4830    2.6670 C.3     1  UNL1        0.4680
@<TRIPOS>BOND
     1     5     1    1
     2     5     6    1
     3     1     2    1
     4     8     6    2
     5     8    10    1
     6     6     7    1
     7     3     2    1
     8     2     4    2
     9    10    12    1
    10    10    11    2
    11    12    14    1
    12     7     9    2
    13    11     9    1
    14    11    13    1
    15    14    13    1
