@<TRIPOS>MOLECULE
/home/cewinharhar/GITHUB/reincatalyze/data/processed/docking_pred/2023-May-31-1603_sub9_nm5_bs15_s42_ex16_mel10_mts1000_k50_ec05_g099_lra3e-4_lrc9e-3/1ec3d4ded79b7f38a98788c4b0a5da992fc20b58_ligand_9.pdbqt
 14 15 0 0 0
SMALL
GASTEIGER

@<TRIPOS>ATOM
      1  C          5.8330    0.6800    0.4050 C.3     1  UNL1        0.0800
      2  C          5.4480    0.1440    1.7260 C.2     1  UNL1        0.1300
      3  C          6.1870   -1.0090    2.2800 C.3     1  UNL1        0.0870
      4  O          4.5370    0.6590    2.3270 O.2     1  UNL1       -0.3000
      5  C          6.5420    2.0110    0.5390 C.3     1  UNL1        0.0430
      6  C          7.9650    1.8100    0.8290 C.2     1  UNL1       -0.0440
      7  C          8.8050    1.2890   -0.1330 C.2     1  UNL1        0.0080
      8  C          8.5130    2.1270    2.0590 C.2     1  UNL1        0.0540
      9  C         10.1620    1.0820    0.1030 C.2     1  UNL1        0.0510
     10  C          9.8670    1.9310    2.3240 C.2     1  UNL1        0.1660
     11  C         10.6810    1.4090    1.3410 C.2     1  UNL1        0.1650
     12  O         10.6800    2.1500    3.4360 O.2     1  UNL1       -0.4540
     13  O         11.9640    1.3170    1.8600 O.2     1  UNL1       -0.4540
     14  C         11.9280    1.5270    3.2690 C.3     1  UNL1        0.4680
@<TRIPOS>BOND
     1     7     9    1
     2     7     6    2
     3     9    11    2
     4     1     5    1
     5     1     2    1
     6     5     6    1
     7     6     8    1
     8    11    13    1
     9    11    10    1
    10     2     3    1
    11     2     4    2
    12    13    14    1
    13     8    10    2
    14    10    12    1
    15    14    12    1
