@<TRIPOS>MOLECULE
/home/cewinharhar/GITHUB/reincatalyze/data/processed/docking_pred/2023-May-31-1603_sub9_nm5_bs15_s42_ex16_mel10_mts1000_k50_ec05_g099_lra3e-4_lrc9e-3/1f3204452a604bf2b5a1468570937d609aafa137_ligand_9.pdbqt
 14 15 0 0 0
SMALL
GASTEIGER

@<TRIPOS>ATOM
      1  C          5.7060    1.8070    1.4190 C.3     1  UNL1        0.0800
      2  C          5.1930    0.5960    2.0920 C.2     1  UNL1        0.1300
      3  C          6.0890   -0.5650    2.2680 C.3     1  UNL1        0.0870
      4  O          4.0530    0.5800    2.4840 O.2     1  UNL1       -0.3000
      5  C          5.5140    1.7240   -0.0810 C.3     1  UNL1        0.0430
      6  C          6.6170    0.9850   -0.7020 C.2     1  UNL1       -0.0440
      7  C          7.9170    1.4220   -0.5560 C.2     1  UNL1        0.0080
      8  C          6.4020   -0.1620   -1.4460 C.2     1  UNL1        0.0540
      9  C          8.9920    0.7490   -1.1310 C.2     1  UNL1        0.0510
     10  C          7.4580   -0.8560   -2.0320 C.2     1  UNL1        0.1660
     11  C          8.7470   -0.3930   -1.8690 C.2     1  UNL1        0.1650
     12  O          7.5480   -2.0070   -2.8140 O.2     1  UNL1       -0.4540
     13  O          9.5950   -1.2580   -2.5460 O.2     1  UNL1       -0.4540
     14  C          8.8300   -2.1290   -3.3740 C.3     1  UNL1        0.4680
@<TRIPOS>BOND
     1    14    12    1
     2    14    13    1
     3    12    10    1
     4    13    11    1
     5    10    11    2
     6    10     8    1
     7    11     9    1
     8     8     6    2
     9     9     7    2
    10     6     7    1
    11     6     5    1
    12     5     1    1
    13     1     2    1
    14     2     3    1
    15     2     4    2
