@<TRIPOS>MOLECULE
/home/cewinharhar/GITHUB/reincatalyze/data/processed/docking_pred/2023-May-31-1603_sub9_nm5_bs15_s42_ex16_mel10_mts1000_k50_ec05_g099_lra3e-4_lrc9e-3/1f774135605f6656ff2aa9e322f53f2a679c664c_ligand_9.pdbqt
 14 15 0 0 0
SMALL
GASTEIGER

@<TRIPOS>ATOM
      1  C          6.3320    1.1950    0.9700 C.3     1  UNL1        0.0800
      2  C          5.6050    0.3850    1.9680 C.2     1  UNL1        0.1300
      3  C          6.2640   -0.8010    2.5510 C.3     1  UNL1        0.0870
      4  O          4.4880    0.7090    2.2860 O.2     1  UNL1       -0.3000
      5  C          5.8330    0.9180   -0.4320 C.3     1  UNL1        0.0430
      6  C          6.7600    0.0330   -1.1440 C.2     1  UNL1       -0.0440
      7  C          7.3430    0.4410   -2.3260 C.2     1  UNL1        0.0080
      8  C          7.0820   -1.2250   -0.6680 C.2     1  UNL1        0.0540
      9  C          8.2280   -0.3690   -3.0320 C.2     1  UNL1        0.0510
     10  C          7.9650   -2.0580   -1.3530 C.2     1  UNL1        0.1660
     11  C          8.5310   -1.6210   -2.5320 C.2     1  UNL1        0.1650
     12  O          8.4650   -3.3390   -1.1250 O.2     1  UNL1       -0.4540
     13  O          9.3590   -2.6300   -3.0020 O.2     1  UNL1       -0.4540
     14  C          9.1200   -3.8270   -2.2670 C.3     1  UNL1        0.4680
@<TRIPOS>BOND
     1     9    11    2
     2     9     7    1
     3    13    11    1
     4    13    14    1
     5    11    10    1
     6     7     6    2
     7    14    12    1
     8    10    12    1
     9    10     8    2
    10     6     8    1
    11     6     5    1
    12     5     1    1
    13     1     2    1
    14     2     4    2
    15     2     3    1
