@<TRIPOS>MOLECULE
/home/cewinharhar/GITHUB/reincatalyze/data/processed/docking_pred/2023-May-31-1603_sub9_nm5_bs15_s42_ex16_mel10_mts1000_k50_ec05_g099_lra3e-4_lrc9e-3/1fd5ec6d4a6889d2560636754963a08404c0587d_ligand_9.pdbqt
 14 15 0 0 0
SMALL
GASTEIGER

@<TRIPOS>ATOM
      1  C          5.6030    1.8200    1.3360 C.3     1  UNL1        0.0800
      2  C          5.1160    0.6310    2.0640 C.2     1  UNL1        0.1300
      3  C          6.0190   -0.5220    2.2470 C.3     1  UNL1        0.0870
      4  O          3.9890    0.6270    2.4950 O.2     1  UNL1       -0.3000
      5  C          5.4180    1.6620   -0.1590 C.3     1  UNL1        0.0430
      6  C          6.5520    0.9420   -0.7450 C.2     1  UNL1       -0.0440
      7  C          7.8390    1.4060   -0.5660 C.2     1  UNL1        0.0080
      8  C          6.3820   -0.2110   -1.4910 C.2     1  UNL1        0.0540
      9  C          8.9430    0.7530   -1.1070 C.2     1  UNL1        0.0510
     10  C          7.4680   -0.8860   -2.0440 C.2     1  UNL1        0.1660
     11  C          8.7420   -0.3970   -1.8460 C.2     1  UNL1        0.1650
     12  O          7.6020   -2.0380   -2.8180 O.2     1  UNL1       -0.4540
     13  O          9.6260   -1.2470   -2.4950 O.2     1  UNL1       -0.4540
     14  C          8.9020   -2.1370   -3.3400 C.3     1  UNL1        0.4680
@<TRIPOS>BOND
     1    14    12    1
     2    14    13    1
     3    12    10    1
     4    13    11    1
     5    10    11    2
     6    10     8    1
     7    11     9    1
     8     8     6    2
     9     9     7    2
    10     6     7    1
    11     6     5    1
    12     5     1    1
    13     1     2    1
    14     2     3    1
    15     2     4    2
