@<TRIPOS>MOLECULE
/home/cewinharhar/GITHUB/reincatalyze/data/processed/docking_pred/2023-May-31-1603_sub9_nm5_bs15_s42_ex16_mel10_mts1000_k50_ec05_g099_lra3e-4_lrc9e-3/2037f81c995398ea407fbfc0a5ecaefc5001139a_ligand_9.pdbqt
 14 15 0 0 0
SMALL
GASTEIGER

@<TRIPOS>ATOM
      1  C          5.7240    1.2370   -0.3070 C.3     1  UNL1        0.0800
      2  C          5.1090    1.2480    1.0350 C.2     1  UNL1        0.1300
      3  C          5.4180    0.1540    1.9790 C.3     1  UNL1        0.0870
      4  O          4.3660    2.1500    1.3340 O.2     1  UNL1       -0.3000
      5  C          7.2290    1.0870   -0.2200 C.3     1  UNL1        0.0430
      6  C          7.6480   -0.2100   -0.7590 C.2     1  UNL1       -0.0440
      7  C          7.7200   -0.4080   -2.1230 C.2     1  UNL1        0.0080
      8  C          7.9840   -1.2710    0.0630 C.2     1  UNL1        0.0540
      9  C          8.1130   -1.6240   -2.6750 C.2     1  UNL1        0.0510
     10  C          8.3810   -2.5000   -0.4600 C.2     1  UNL1        0.1660
     11  C          8.4420   -2.6650   -1.8280 C.2     1  UNL1        0.1650
     12  O          8.7670   -3.7150    0.1030 O.2     1  UNL1       -0.4540
     13  O          8.8600   -3.9650   -2.0770 O.2     1  UNL1       -0.4540
     14  C          8.8090   -4.7240   -0.8730 C.3     1  UNL1        0.4680
@<TRIPOS>BOND
     1     9     7    1
     2     9    11    2
     3     7     6    2
     4    13    11    1
     5    13    14    1
     6    11    10    1
     7    14    12    1
     8     6     5    1
     9     6     8    1
    10    10     8    2
    11    10    12    1
    12     1     5    1
    13     1     2    1
    14     2     4    2
    15     2     3    1
