@<TRIPOS>MOLECULE
/home/cewinharhar/GITHUB/reincatalyze/data/processed/docking_pred/2023-May-31-1603_sub9_nm5_bs15_s42_ex16_mel10_mts1000_k50_ec05_g099_lra3e-4_lrc9e-3/2037f81c995398ea407fbfc0a5ecaefc5001139a_ligand_9.pdbqt
 14 15 0 0 0
SMALL
GASTEIGER

@<TRIPOS>ATOM
      1  C          5.3790   -0.0470    1.9170 C.3     1  UNL1        0.0800
      2  C          4.5810    1.1760    1.6990 C.2     1  UNL1        0.1300
      3  C          5.0190    2.1490    0.6770 C.3     1  UNL1        0.0870
      4  O          3.5880    1.3550    2.3590 O.2     1  UNL1       -0.3000
      5  C          6.8380    0.1810    1.5770 C.3     1  UNL1        0.0430
      6  C          7.2900   -0.7870    0.5730 C.2     1  UNL1       -0.0440
      7  C          7.0930   -0.5400   -0.7700 C.2     1  UNL1        0.0080
      8  C          7.9200   -1.9670    0.9260 C.2     1  UNL1        0.0540
      9  C          7.5070   -1.4340   -1.7540 C.2     1  UNL1        0.0510
     10  C          8.3450   -2.8800   -0.0370 C.2     1  UNL1        0.1660
     11  C          8.1340   -2.6050   -1.3720 C.2     1  UNL1        0.1650
     12  O          8.9890   -4.1160    0.0150 O.2     1  UNL1       -0.4540
     13  O          8.6460   -3.6640   -2.1080 O.2     1  UNL1       -0.4540
     14  C          8.9460   -4.7510   -1.2370 C.3     1  UNL1        0.4680
@<TRIPOS>BOND
     1    13    11    1
     2    13    14    1
     3     9    11    2
     4     9     7    1
     5    11    10    1
     6    14    12    1
     7     7     6    2
     8    10    12    1
     9    10     8    2
    10     6     8    1
    11     6     5    1
    12     3     2    1
    13     5     1    1
    14     2     1    1
    15     2     4    2
