@<TRIPOS>MOLECULE
/home/cewinharhar/GITHUB/reincatalyze/data/processed/docking_pred/2023-May-31-1603_sub9_nm5_bs15_s42_ex16_mel10_mts1000_k50_ec05_g099_lra3e-4_lrc9e-3/21195065f8807259401ec3420f3b6dd683f2acc0_ligand_9.pdbqt
 14 15 0 0 0
SMALL
GASTEIGER

@<TRIPOS>ATOM
      1  C          5.5050    1.8850    1.3770 C.3     1  UNL1        0.0800
      2  C          4.9730    0.6740    2.0330 C.2     1  UNL1        0.1300
      3  C          5.8150   -0.5370    2.1030 C.3     1  UNL1        0.0870
      4  O          3.8600    0.6990    2.4990 O.2     1  UNL1       -0.3000
      5  C          5.3660    1.8000   -0.1290 C.3     1  UNL1        0.0430
      6  C          6.4920    1.0610   -0.7080 C.2     1  UNL1       -0.0440
      7  C          7.7880    1.4690   -0.4730 C.2     1  UNL1        0.0080
      8  C          6.3030   -0.0560   -1.5030 C.2     1  UNL1        0.0540
      9  C          8.8840    0.7950   -1.0050 C.2     1  UNL1        0.0510
     10  C          7.3790   -0.7510   -2.0490 C.2     1  UNL1        0.1660
     11  C          8.6640   -0.3180   -1.7950 C.2     1  UNL1        0.1650
     12  O          7.4960   -1.8770   -2.8630 O.2     1  UNL1       -0.4540
     13  O          9.5360   -1.1750   -2.4500 O.2     1  UNL1       -0.4540
     14  C          8.8070   -2.0050   -3.3500 C.3     1  UNL1        0.4680
@<TRIPOS>BOND
     1    14    12    1
     2    14    13    1
     3    12    10    1
     4    13    11    1
     5    10    11    2
     6    10     8    1
     7    11     9    1
     8     8     6    2
     9     9     7    2
    10     6     7    1
    11     6     5    1
    12     5     1    1
    13     1     2    1
    14     2     3    1
    15     2     4    2
