MODEL 1
REMARK VINA RESULT:      -7.1      0.000      0.000
REMARK SMILES CC(=O)CCc1ccc2c(c1)OCO2
REMARK SMILES IDX 4 1 2 2 1 3 3 4 5 5 6 6 7 7 11 8 8 9 10 10 9 11 12 12 14 13
REMARK SMILES IDX 13 14
REMARK H PARENT
REMARK Flexibility Score: inf
ROOT
ATOM      1  C   UNL     1       9.695   1.306   2.616  1.00  0.00     0.080 C 
ENDROOT
BRANCH   1   2
ATOM      2  C   UNL     1      11.128   0.952   2.651  1.00  0.00     0.130 C 
ATOM      3  C   UNL     1      12.037   1.712   3.534  1.00  0.00     0.087 C 
ATOM      4  O   UNL     1      11.528   0.049   1.958  1.00  0.00    -0.300 OA
ENDBRANCH   1   2
BRANCH   1   5
ATOM      5  C   UNL     1       9.345   2.053   1.346  1.00  0.00     0.043 C 
BRANCH   5   6
ATOM      6  C   UNL     1       8.627   1.179   0.415  1.00  0.00    -0.044 A 
ATOM      7  C   UNL     1       7.262   1.013   0.526  1.00  0.00     0.008 A 
ATOM      8  C   UNL     1       9.278   0.494  -0.597  1.00  0.00     0.054 A 
ATOM      9  C   UNL     1       6.544   0.190  -0.338  1.00  0.00     0.051 A 
ATOM     10  C   UNL     1       8.586  -0.335  -1.476  1.00  0.00     0.166 A 
ATOM     11  C   UNL     1       7.222  -0.480  -1.338  1.00  0.00     0.165 A 
ATOM     12  O   UNL     1       8.960  -1.128  -2.560  1.00  0.00    -0.454 OA
ATOM     13  O   UNL     1       6.787  -1.350  -2.328  1.00  0.00    -0.454 OA
ATOM     14  C   UNL     1       7.910  -1.980  -2.939  1.00  0.00     0.468 C 
ENDBRANCH   5   6
ENDBRANCH   1   5
TORSDOF 3
ENDMDL
MODEL 2
REMARK VINA RESULT:      -7.0      2.788      5.439
REMARK SMILES CC(=O)CCc1ccc2c(c1)OCO2
REMARK SMILES IDX 4 1 2 2 1 3 3 4 5 5 6 6 7 7 11 8 8 9 10 10 9 11 12 12 14 13
REMARK SMILES IDX 13 14
REMARK H PARENT
REMARK Flexibility Score: inf
ROOT
ATOM      1  C   UNL     1       5.781   0.035   1.668  1.00  0.00     0.080 C 
ENDROOT
BRANCH   1   2
ATOM      2  C   UNL     1       4.809   1.131   1.479  1.00  0.00     0.130 C 
ATOM      3  C   UNL     1       5.003   2.081   0.365  1.00  0.00     0.087 C 
ATOM      4  O   UNL     1       3.877   1.228   2.238  1.00  0.00    -0.300 OA
ENDBRANCH   1   2
BRANCH   1   5
ATOM      5  C   UNL     1       6.922   0.136   0.678  1.00  0.00     0.043 C 
BRANCH   5   6
ATOM      6  C   UNL     1       8.167   0.498   1.362  1.00  0.00    -0.044 A 
ATOM      7  C   UNL     1       8.206   1.588   2.208  1.00  0.00     0.008 A 
ATOM      8  C   UNL     1       9.335  -0.224   1.189  1.00  0.00     0.054 A 
ATOM      9  C   UNL     1       9.368   1.966   2.875  1.00  0.00     0.051 A 
ATOM     10  C   UNL     1      10.512   0.130   1.844  1.00  0.00     0.166 A 
ATOM     11  C   UNL     1      10.518   1.224   2.683  1.00  0.00     0.165 A 
ATOM     12  O   UNL     1      11.805  -0.392   1.866  1.00  0.00    -0.454 OA
ATOM     13  O   UNL     1      11.799   1.353   3.199  1.00  0.00    -0.454 OA
ATOM     14  C   UNL     1      12.692   0.504   2.485  1.00  0.00     0.468 C 
ENDBRANCH   5   6
ENDBRANCH   1   5
TORSDOF 3
ENDMDL
MODEL 3
REMARK VINA RESULT:      -7.0      2.692      3.968
REMARK SMILES CC(=O)CCc1ccc2c(c1)OCO2
REMARK SMILES IDX 4 1 2 2 1 3 3 4 5 5 6 6 7 7 11 8 8 9 10 10 9 11 12 12 14 13
REMARK SMILES IDX 13 14
REMARK H PARENT
REMARK Flexibility Score: inf
ROOT
ATOM      1  C   UNL     1       5.505   1.885   1.377  1.00  0.00     0.080 C 
ENDROOT
BRANCH   1   2
ATOM      2  C   UNL     1       4.973   0.674   2.033  1.00  0.00     0.130 C 
ATOM      3  C   UNL     1       5.815  -0.537   2.103  1.00  0.00     0.087 C 
ATOM      4  O   UNL     1       3.860   0.699   2.499  1.00  0.00    -0.300 OA
ENDBRANCH   1   2
BRANCH   1   5
ATOM      5  C   UNL     1       5.366   1.800  -0.129  1.00  0.00     0.043 C 
BRANCH   5   6
ATOM      6  C   UNL     1       6.492   1.061  -0.708  1.00  0.00    -0.044 A 
ATOM      7  C   UNL     1       7.788   1.469  -0.473  1.00  0.00     0.008 A 
ATOM      8  C   UNL     1       6.303  -0.056  -1.503  1.00  0.00     0.054 A 
ATOM      9  C   UNL     1       8.884   0.795  -1.005  1.00  0.00     0.051 A 
ATOM     10  C   UNL     1       7.379  -0.751  -2.049  1.00  0.00     0.166 A 
ATOM     11  C   UNL     1       8.664  -0.318  -1.795  1.00  0.00     0.165 A 
ATOM     12  O   UNL     1       7.496  -1.877  -2.863  1.00  0.00    -0.454 OA
ATOM     13  O   UNL     1       9.536  -1.175  -2.450  1.00  0.00    -0.454 OA
ATOM     14  C   UNL     1       8.807  -2.005  -3.350  1.00  0.00     0.468 C 
ENDBRANCH   5   6
ENDBRANCH   1   5
TORSDOF 3
ENDMDL
MODEL 4
REMARK VINA RESULT:      -7.0      3.127      4.224
REMARK SMILES CC(=O)CCc1ccc2c(c1)OCO2
REMARK SMILES IDX 4 1 2 2 1 3 3 4 5 5 6 6 7 7 11 8 8 9 10 10 9 11 12 12 14 13
REMARK SMILES IDX 13 14
REMARK H PARENT
REMARK Flexibility Score: inf
ROOT
ATOM      1  C   UNL     1       5.596   1.249  -0.235  1.00  0.00     0.080 C 
ENDROOT
BRANCH   1   2
ATOM      2  C   UNL     1       5.080   1.213   1.148  1.00  0.00     0.130 C 
ATOM      3  C   UNL     1       5.406   0.058   2.009  1.00  0.00     0.087 C 
ATOM      4  O   UNL     1       4.402   2.128   1.546  1.00  0.00    -0.300 OA
ENDBRANCH   1   2
BRANCH   1   5
ATOM      5  C   UNL     1       7.108   1.165  -0.259  1.00  0.00     0.043 C 
BRANCH   5   6
ATOM      6  C   UNL     1       7.544  -0.103  -0.850  1.00  0.00    -0.044 A 
ATOM      7  C   UNL     1       7.588  -0.255  -2.221  1.00  0.00     0.008 A 
ATOM      8  C   UNL     1       7.923  -1.182  -0.071  1.00  0.00     0.054 A 
ATOM      9  C   UNL     1       7.996  -1.443  -2.821  1.00  0.00     0.051 A 
ATOM     10  C   UNL     1       8.335  -2.383  -0.643  1.00  0.00     0.166 A 
ATOM     11  C   UNL     1       8.368  -2.503  -2.016  1.00  0.00     0.165 A 
ATOM     12  O   UNL     1       8.763  -3.607  -0.129  1.00  0.00    -0.454 OA
ATOM     13  O   UNL     1       8.810  -3.784  -2.318  1.00  0.00    -0.454 OA
ATOM     14  C   UNL     1       8.805  -4.583  -1.138  1.00  0.00     0.468 C 
ENDBRANCH   5   6
ENDBRANCH   1   5
TORSDOF 3
ENDMDL
MODEL 5
REMARK VINA RESULT:      -6.9      2.667      5.468
REMARK SMILES CC(=O)CCc1ccc2c(c1)OCO2
REMARK SMILES IDX 4 1 2 2 1 3 3 4 5 5 6 6 7 7 11 8 8 9 10 10 9 11 12 12 14 13
REMARK SMILES IDX 13 14
REMARK H PARENT
REMARK Flexibility Score: inf
ROOT
ATOM      1  C   UNL     1       5.689   0.290   1.492  1.00  0.00     0.080 C 
ENDROOT
BRANCH   1   2
ATOM      2  C   UNL     1       4.923   1.478   1.065  1.00  0.00     0.130 C 
ATOM      3  C   UNL     1       5.235   2.109  -0.234  1.00  0.00     0.087 C 
ATOM      4  O   UNL     1       4.057   1.908   1.785  1.00  0.00    -0.300 OA
ENDBRANCH   1   2
BRANCH   1   5
ATOM      5  C   UNL     1       6.665  -0.148   0.419  1.00  0.00     0.043 C 
BRANCH   5   6
ATOM      6  C   UNL     1       8.014   0.342   0.718  1.00  0.00    -0.044 A 
ATOM      7  C   UNL     1       8.918   0.559  -0.301  1.00  0.00     0.008 A 
ATOM      8  C   UNL     1       8.428   0.600   2.013  1.00  0.00     0.054 A 
ATOM      9  C   UNL     1      10.208   1.022  -0.059  1.00  0.00     0.051 A 
ATOM     10  C   UNL     1       9.713   1.065   2.286  1.00  0.00     0.166 A 
ATOM     11  C   UNL     1      10.594   1.272   1.245  1.00  0.00     0.165 A 
ATOM     12  O   UNL     1      10.395   1.404   3.454  1.00  0.00    -0.454 OA
ATOM     13  O   UNL     1      11.787   1.729   1.786  1.00  0.00    -0.454 OA
ATOM     14  C   UNL     1      11.767   1.560   3.200  1.00  0.00     0.468 C 
ENDBRANCH   5   6
ENDBRANCH   1   5
TORSDOF 3
ENDMDL
