@<TRIPOS>MOLECULE
/home/cewinharhar/GITHUB/reincatalyze/data/processed/docking_pred/2023-May-31-1603_sub9_nm5_bs15_s42_ex16_mel10_mts1000_k50_ec05_g099_lra3e-4_lrc9e-3/21195065f8807259401ec3420f3b6dd683f2acc0_ligand_9.pdbqt
 14 15 0 0 0
SMALL
GASTEIGER

@<TRIPOS>ATOM
      1  C          9.6950    1.3060    2.6160 C.3     1  UNL1        0.0800
      2  C         11.1280    0.9520    2.6510 C.2     1  UNL1        0.1300
      3  C         12.0370    1.7120    3.5340 C.3     1  UNL1        0.0870
      4  O         11.5280    0.0490    1.9580 O.2     1  UNL1       -0.3000
      5  C          9.3450    2.0530    1.3460 C.3     1  UNL1        0.0430
      6  C          8.6270    1.1790    0.4150 C.2     1  UNL1       -0.0440
      7  C          7.2620    1.0130    0.5260 C.2     1  UNL1        0.0080
      8  C          9.2780    0.4940   -0.5970 C.2     1  UNL1        0.0540
      9  C          6.5440    0.1900   -0.3380 C.2     1  UNL1        0.0510
     10  C          8.5860   -0.3350   -1.4760 C.2     1  UNL1        0.1660
     11  C          7.2220   -0.4800   -1.3380 C.2     1  UNL1        0.1650
     12  O          8.9600   -1.1280   -2.5600 O.2     1  UNL1       -0.4540
     13  O          6.7870   -1.3500   -2.3280 O.2     1  UNL1       -0.4540
     14  C          7.9100   -1.9800   -2.9390 C.3     1  UNL1        0.4680
@<TRIPOS>BOND
     1    14    12    1
     2    14    13    1
     3    12    10    1
     4    13    11    1
     5    10    11    2
     6    10     8    1
     7    11     9    1
     8     8     6    2
     9     9     7    2
    10     6     7    1
    11     6     5    1
    12     5     1    1
    13     4     2    2
    14     1     2    1
    15     2     3    1
