@<TRIPOS>MOLECULE
/home/cewinharhar/GITHUB/reincatalyze/data/processed/docking_pred/2023-May-31-1603_sub9_nm5_bs15_s42_ex16_mel10_mts1000_k50_ec05_g099_lra3e-4_lrc9e-3/225d7738cc918e3754e3779366d54ccb252183f1_ligand_9.pdbqt
 14 15 0 0 0
SMALL
GASTEIGER

@<TRIPOS>ATOM
      1  C          5.6110    1.8160    1.3330 C.3     1  UNL1        0.0800
      2  C          5.1270    0.6280    2.0650 C.2     1  UNL1        0.1300
      3  C          6.0230   -0.5350    2.2240 C.3     1  UNL1        0.0870
      4  O          4.0090    0.6330    2.5180 O.2     1  UNL1       -0.3000
      5  C          5.4200    1.6560   -0.1610 C.3     1  UNL1        0.0430
      6  C          6.5530    0.9380   -0.7510 C.2     1  UNL1       -0.0440
      7  C          7.8390    1.4100   -0.5860 C.2     1  UNL1        0.0080
      8  C          6.3820   -0.2210   -1.4870 C.2     1  UNL1        0.0540
      9  C          8.9420    0.7580   -1.1310 C.2     1  UNL1        0.0510
     10  C          7.4670   -0.8950   -2.0440 C.2     1  UNL1        0.1660
     11  C          8.7400   -0.3980   -1.8610 C.2     1  UNL1        0.1650
     12  O          7.6010   -2.0520   -2.8110 O.2     1  UNL1       -0.4540
     13  O          9.6230   -1.2480   -2.5110 O.2     1  UNL1       -0.4540
     14  C          8.8960   -2.1480   -3.3440 C.3     1  UNL1        0.4680
@<TRIPOS>BOND
     1    14    12    1
     2    14    13    1
     3    12    10    1
     4    13    11    1
     5    10    11    2
     6    10     8    1
     7    11     9    1
     8     8     6    2
     9     9     7    2
    10     6     7    1
    11     6     5    1
    12     5     1    1
    13     1     2    1
    14     2     3    1
    15     2     4    2
