@<TRIPOS>MOLECULE
/home/cewinharhar/GITHUB/reincatalyze/data/processed/docking_pred/2023-May-31-1603_sub9_nm5_bs15_s42_ex16_mel10_mts1000_k50_ec05_g099_lra3e-4_lrc9e-3/2368d29bb7bbfa5e31d33bb3936e2ea89938fe66_ligand_9.pdbqt
 14 15 0 0 0
SMALL
GASTEIGER

@<TRIPOS>ATOM
      1  C          6.4210    0.0720    0.7500 C.3     1  UNL1        0.0800
      2  C          5.3570    0.9340    1.3020 C.2     1  UNL1        0.1300
      3  C          4.9570    2.1480    0.5620 C.3     1  UNL1        0.0870
      4  O          4.8370    0.6300    2.3460 O.2     1  UNL1       -0.3000
      5  C          6.7290    0.4320   -0.6890 C.3     1  UNL1        0.0430
      6  C          7.4200   -0.6730   -1.3600 C.2     1  UNL1       -0.0440
      7  C          7.7560   -0.5760   -2.6940 C.2     1  UNL1        0.0080
      8  C          7.7560   -1.8390   -0.6940 C.2     1  UNL1        0.0540
      9  C          8.4110   -1.6030   -3.3690 C.2     1  UNL1        0.0510
     10  C          8.4120   -2.8830   -1.3420 C.2     1  UNL1        0.1660
     11  C          8.7340   -2.7550   -2.6770 C.2     1  UNL1        0.1650
     12  O          8.8660   -4.1400   -0.9440 O.2     1  UNL1       -0.4540
     13  O          9.3730   -3.9230   -3.0710 O.2     1  UNL1       -0.4540
     14  C          9.2230   -4.9150   -2.0590 C.3     1  UNL1        0.4680
@<TRIPOS>BOND
     1     9     7    1
     2     9    11    2
     3    13    11    1
     4    13    14    1
     5     7     6    2
     6    11    10    1
     7    14    12    1
     8     6     8    1
     9     6     5    1
    10    10    12    1
    11    10     8    2
    12     5     1    1
    13     3     2    1
    14     1     2    1
    15     2     4    2
