@<TRIPOS>MOLECULE
/home/cewinharhar/GITHUB/reincatalyze/data/processed/docking_pred/2023-May-31-1603_sub9_nm5_bs15_s42_ex16_mel10_mts1000_k50_ec05_g099_lra3e-4_lrc9e-3/2368d29bb7bbfa5e31d33bb3936e2ea89938fe66_ligand_9.pdbqt
 14 15 0 0 0
SMALL
GASTEIGER

@<TRIPOS>ATOM
      1  C          6.0470    1.5670    1.2120 C.3     1  UNL1        0.0800
      2  C          5.4330    0.4790    1.9990 C.2     1  UNL1        0.1300
      3  C          6.2140   -0.7460    2.2670 C.3     1  UNL1        0.0870
      4  O          4.3060    0.6130    2.4090 O.2     1  UNL1       -0.3000
      5  C          5.7460    1.4130   -0.2650 C.3     1  UNL1        0.0430
      6  C          6.7970    0.6330   -0.9250 C.2     1  UNL1       -0.0440
      7  C          8.1130    1.0440   -0.8640 C.2     1  UNL1        0.0080
      8  C          6.5180   -0.5270   -1.6260 C.2     1  UNL1        0.0540
      9  C          9.1400    0.3330   -1.4780 C.2     1  UNL1        0.0510
     10  C          7.5250   -1.2600   -2.2500 C.2     1  UNL1        0.1660
     11  C          8.8300   -0.8220   -2.1700 C.2     1  UNL1        0.1650
     12  O          7.5460   -2.4330   -3.0040 O.2     1  UNL1       -0.4540
     13  O          9.6210   -1.7230   -2.8690 O.2     1  UNL1       -0.4540
     14  C          8.7930   -2.5980   -3.6300 C.3     1  UNL1        0.4680
@<TRIPOS>BOND
     1    14    12    1
     2    14    13    1
     3    12    10    1
     4    13    11    1
     5    10    11    2
     6    10     8    1
     7    11     9    1
     8     8     6    2
     9     9     7    2
    10     6     7    1
    11     6     5    1
    12     5     1    1
    13     1     2    1
    14     2     3    1
    15     2     4    2
