MODEL 1
REMARK VINA RESULT:      -8.1      0.000      0.000
REMARK SMILES CC(=O)CCc1ccc2c(c1)OCO2
REMARK SMILES IDX 4 1 2 2 1 3 3 4 5 5 6 6 7 7 11 8 8 9 10 10 9 11 12 12 14 13
REMARK SMILES IDX 13 14
REMARK H PARENT
REMARK Flexibility Score: inf
ROOT
ATOM      1  C   UNL     1       6.047   1.567   1.212  1.00  0.00     0.080 C 
ENDROOT
BRANCH   1   2
ATOM      2  C   UNL     1       5.433   0.479   1.999  1.00  0.00     0.130 C 
ATOM      3  C   UNL     1       6.214  -0.746   2.267  1.00  0.00     0.087 C 
ATOM      4  O   UNL     1       4.306   0.613   2.409  1.00  0.00    -0.300 OA
ENDBRANCH   1   2
BRANCH   1   5
ATOM      5  C   UNL     1       5.746   1.413  -0.265  1.00  0.00     0.043 C 
BRANCH   5   6
ATOM      6  C   UNL     1       6.797   0.633  -0.925  1.00  0.00    -0.044 A 
ATOM      7  C   UNL     1       8.113   1.044  -0.864  1.00  0.00     0.008 A 
ATOM      8  C   UNL     1       6.518  -0.527  -1.626  1.00  0.00     0.054 A 
ATOM      9  C   UNL     1       9.140   0.333  -1.478  1.00  0.00     0.051 A 
ATOM     10  C   UNL     1       7.525  -1.260  -2.250  1.00  0.00     0.166 A 
ATOM     11  C   UNL     1       8.830  -0.822  -2.170  1.00  0.00     0.165 A 
ATOM     12  O   UNL     1       7.546  -2.433  -3.004  1.00  0.00    -0.454 OA
ATOM     13  O   UNL     1       9.621  -1.723  -2.869  1.00  0.00    -0.454 OA
ATOM     14  C   UNL     1       8.793  -2.598  -3.630  1.00  0.00     0.468 C 
ENDBRANCH   5   6
ENDBRANCH   1   5
TORSDOF 3
ENDMDL
MODEL 2
REMARK VINA RESULT:      -7.5      1.033      1.054
REMARK SMILES CC(=O)CCc1ccc2c(c1)OCO2
REMARK SMILES IDX 4 1 2 2 1 3 3 4 5 5 6 6 7 7 11 8 8 9 10 10 9 11 12 12 14 13
REMARK SMILES IDX 13 14
REMARK H PARENT
REMARK Flexibility Score: inf
ROOT
ATOM      1  C   UNL     1       6.366   1.171   0.922  1.00  0.00     0.080 C 
ENDROOT
BRANCH   1   2
ATOM      2  C   UNL     1       5.665   0.372   1.947  1.00  0.00     0.130 C 
ATOM      3  C   UNL     1       6.317  -0.837   2.489  1.00  0.00     0.087 C 
ATOM      4  O   UNL     1       4.573   0.724   2.321  1.00  0.00    -0.300 OA
ENDBRANCH   1   2
BRANCH   1   5
ATOM      5  C   UNL     1       5.824   0.884  -0.463  1.00  0.00     0.043 C 
BRANCH   5   6
ATOM      6  C   UNL     1       6.778   0.081  -1.233  1.00  0.00    -0.044 A 
ATOM      7  C   UNL     1       7.496   0.650  -2.264  1.00  0.00     0.008 A 
ATOM      8  C   UNL     1       6.992  -1.260  -0.962  1.00  0.00     0.054 A 
ATOM      9  C   UNL     1       8.411  -0.078  -3.019  1.00  0.00     0.051 A 
ATOM     10  C   UNL     1       7.901  -2.014  -1.701  1.00  0.00     0.166 A 
ATOM     11  C   UNL     1       8.604  -1.415  -2.725  1.00  0.00     0.165 A 
ATOM     12  O   UNL     1       8.317  -3.345  -1.661  1.00  0.00    -0.454 OA
ATOM     13  O   UNL     1       9.429  -2.377  -3.290  1.00  0.00    -0.454 OA
ATOM     14  C   UNL     1       9.062  -3.667  -2.807  1.00  0.00     0.468 C 
ENDBRANCH   5   6
ENDBRANCH   1   5
TORSDOF 3
ENDMDL
MODEL 3
REMARK VINA RESULT:      -7.3      1.651      5.452
REMARK SMILES CC(=O)CCc1ccc2c(c1)OCO2
REMARK SMILES IDX 4 1 2 2 1 3 3 4 5 5 6 6 7 7 11 8 8 9 10 10 9 11 12 12 14 13
REMARK SMILES IDX 13 14
REMARK H PARENT
REMARK Flexibility Score: inf
ROOT
ATOM      1  C   UNL     1       8.160  -2.578  -3.589  1.00  0.00     0.080 C 
ENDROOT
BRANCH   1   2
ATOM      2  C   UNL     1       9.277  -3.529  -3.421  1.00  0.00     0.130 C 
ATOM      3  C   UNL     1       8.988  -4.976  -3.366  1.00  0.00     0.087 C 
ATOM      4  O   UNL     1      10.402  -3.104  -3.332  1.00  0.00    -0.300 OA
ENDBRANCH   1   2
BRANCH   1   5
ATOM      5  C   UNL     1       8.540  -1.194  -3.106  1.00  0.00     0.043 C 
BRANCH   5   6
ATOM      6  C   UNL     1       7.764  -0.832  -1.917  1.00  0.00    -0.044 A 
ATOM      7  C   UNL     1       6.986   0.308  -1.913  1.00  0.00     0.008 A 
ATOM      8  C   UNL     1       7.779  -1.604  -0.769  1.00  0.00     0.054 A 
ATOM      9  C   UNL     1       6.235   0.687  -0.804  1.00  0.00     0.051 A 
ATOM     10  C   UNL     1       7.038  -1.251   0.356  1.00  0.00     0.166 A 
ATOM     11  C   UNL     1       6.270  -0.105   0.328  1.00  0.00     0.165 A 
ATOM     12  O   UNL     1       6.860  -1.815   1.619  1.00  0.00    -0.454 OA
ATOM     13  O   UNL     1       5.642   0.012   1.560  1.00  0.00    -0.454 OA
ATOM     14  C   UNL     1       6.215  -0.913   2.480  1.00  0.00     0.468 C 
ENDBRANCH   5   6
ENDBRANCH   1   5
TORSDOF 3
ENDMDL
MODEL 4
REMARK VINA RESULT:      -7.2      1.228      1.642
REMARK SMILES CC(=O)CCc1ccc2c(c1)OCO2
REMARK SMILES IDX 4 1 2 2 1 3 3 4 5 5 6 6 7 7 11 8 8 9 10 10 9 11 12 12 14 13
REMARK SMILES IDX 13 14
REMARK H PARENT
REMARK Flexibility Score: inf
ROOT
ATOM      1  C   UNL     1       5.702  -0.067   1.587  1.00  0.00     0.080 C 
ENDROOT
BRANCH   1   2
ATOM      2  C   UNL     1       4.794   1.096   1.536  1.00  0.00     0.130 C 
ATOM      3  C   UNL     1       5.029   2.150   0.528  1.00  0.00     0.087 C 
ATOM      4  O   UNL     1       3.879   1.162   2.319  1.00  0.00    -0.300 OA
ENDBRANCH   1   2
BRANCH   1   5
ATOM      5  C   UNL     1       7.133   0.340   1.304  1.00  0.00     0.043 C 
BRANCH   5   6
ATOM      6  C   UNL     1       7.576  -0.198   0.014  1.00  0.00    -0.044 A 
ATOM      7  C   UNL     1       7.856   0.652  -1.036  1.00  0.00     0.008 A 
ATOM      8  C   UNL     1       7.727  -1.557  -0.199  1.00  0.00     0.054 A 
ATOM      9  C   UNL     1       8.278   0.181  -2.276  1.00  0.00     0.051 A 
ATOM     10  C   UNL     1       8.148  -2.057  -1.429  1.00  0.00     0.166 A 
ATOM     11  C   UNL     1       8.420  -1.181  -2.460  1.00  0.00     0.165 A 
ATOM     12  O   UNL     1       8.385  -3.338  -1.927  1.00  0.00    -0.454 OA
ATOM     13  O   UNL     1       8.814  -1.931  -3.558  1.00  0.00    -0.454 OA
ATOM     14  C   UNL     1       8.537  -3.309  -3.322  1.00  0.00     0.468 C 
ENDBRANCH   5   6
ENDBRANCH   1   5
TORSDOF 3
ENDMDL
MODEL 5
REMARK VINA RESULT:      -7.0      1.652      2.220
REMARK SMILES CC(=O)CCc1ccc2c(c1)OCO2
REMARK SMILES IDX 4 1 2 2 1 3 3 4 5 5 6 6 7 7 11 8 8 9 10 10 9 11 12 12 14 13
REMARK SMILES IDX 13 14
REMARK H PARENT
REMARK Flexibility Score: inf
ROOT
ATOM      1  C   UNL     1       6.421   0.072   0.750  1.00  0.00     0.080 C 
ENDROOT
BRANCH   1   2
ATOM      2  C   UNL     1       5.357   0.934   1.302  1.00  0.00     0.130 C 
ATOM      3  C   UNL     1       4.957   2.148   0.562  1.00  0.00     0.087 C 
ATOM      4  O   UNL     1       4.837   0.630   2.346  1.00  0.00    -0.300 OA
ENDBRANCH   1   2
BRANCH   1   5
ATOM      5  C   UNL     1       6.729   0.432  -0.689  1.00  0.00     0.043 C 
BRANCH   5   6
ATOM      6  C   UNL     1       7.420  -0.673  -1.360  1.00  0.00    -0.044 A 
ATOM      7  C   UNL     1       7.756  -0.576  -2.694  1.00  0.00     0.008 A 
ATOM      8  C   UNL     1       7.756  -1.839  -0.694  1.00  0.00     0.054 A 
ATOM      9  C   UNL     1       8.411  -1.603  -3.369  1.00  0.00     0.051 A 
ATOM     10  C   UNL     1       8.412  -2.883  -1.342  1.00  0.00     0.166 A 
ATOM     11  C   UNL     1       8.734  -2.755  -2.677  1.00  0.00     0.165 A 
ATOM     12  O   UNL     1       8.866  -4.140  -0.944  1.00  0.00    -0.454 OA
ATOM     13  O   UNL     1       9.373  -3.923  -3.071  1.00  0.00    -0.454 OA
ATOM     14  C   UNL     1       9.223  -4.915  -2.059  1.00  0.00     0.468 C 
ENDBRANCH   5   6
ENDBRANCH   1   5
TORSDOF 3
ENDMDL
