@<TRIPOS>MOLECULE
/home/cewinharhar/GITHUB/reincatalyze/data/processed/docking_pred/2023-May-31-1603_sub9_nm5_bs15_s42_ex16_mel10_mts1000_k50_ec05_g099_lra3e-4_lrc9e-3/2481e5cfc04dcfc4c7035fb6b8b96c3a7d203934_ligand_9.pdbqt
 14 15 0 0 0
SMALL
GASTEIGER

@<TRIPOS>ATOM
      1  C          6.6130    0.5790    0.9210 C.3     1  UNL1        0.0800
      2  C          5.2870    1.0450    1.3730 C.2     1  UNL1        0.1300
      3  C          4.6260    2.1500    0.6490 C.3     1  UNL1        0.0870
      4  O          4.7700    0.5140    2.3240 O.2     1  UNL1       -0.3000
      5  C          6.7090    0.5790   -0.5910 C.3     1  UNL1        0.0430
      6  C          7.3470   -0.6520   -1.0670 C.2     1  UNL1       -0.0440
      7  C          7.6040   -0.8280   -2.4100 C.2     1  UNL1        0.0080
      8  C          7.7090   -1.6700   -0.2030 C.2     1  UNL1        0.0540
      9  C          8.2070   -1.9830   -2.9030 C.2     1  UNL1        0.0510
     10  C          8.3140   -2.8360   -0.6660 C.2     1  UNL1        0.1660
     11  C          8.5580   -2.9820   -2.0150 C.2     1  UNL1        0.1650
     12  O          8.7780   -4.0000   -0.0520 O.2     1  UNL1       -0.4540
     13  O          9.1600   -4.2190   -2.2040 O.2     1  UNL1       -0.4540
     14  C          9.0590   -4.9880   -1.0090 C.3     1  UNL1        0.4680
@<TRIPOS>BOND
     1     9     7    1
     2     9    11    2
     3     7     6    2
     4    13    11    1
     5    13    14    1
     6    11    10    1
     7     6     5    1
     8     6     8    1
     9    14    12    1
    10    10     8    2
    11    10    12    1
    12     5     1    1
    13     3     2    1
    14     1     2    1
    15     2     4    2
