@<TRIPOS>MOLECULE
/home/cewinharhar/GITHUB/reincatalyze/data/processed/docking_pred/2023-May-31-1603_sub9_nm5_bs15_s42_ex16_mel10_mts1000_k50_ec05_g099_lra3e-4_lrc9e-3/2481e5cfc04dcfc4c7035fb6b8b96c3a7d203934_ligand_9.pdbqt
 14 15 0 0 0
SMALL
GASTEIGER

@<TRIPOS>ATOM
      1  C          5.8150    1.8140    1.4630 C.3     1  UNL1        0.0800
      2  C          5.2780    0.6100    2.1290 C.2     1  UNL1        0.1300
      3  C          6.1610   -0.5560    2.3310 C.3     1  UNL1        0.0870
      4  O          4.1290    0.6050    2.4960 O.2     1  UNL1       -0.3000
      5  C          5.6030    1.7510   -0.0360 C.3     1  UNL1        0.0430
      6  C          6.6850    0.9990   -0.6780 C.2     1  UNL1       -0.0440
      7  C          7.9870    1.4480   -0.6000 C.2     1  UNL1        0.0080
      8  C          6.4480   -0.1710   -1.3780 C.2     1  UNL1        0.0540
      9  C          9.0430    0.7630   -1.1960 C.2     1  UNL1        0.0510
     10  C          7.4840   -0.8770   -1.9850 C.2     1  UNL1        0.1660
     11  C          8.7750   -0.4030   -1.8880 C.2     1  UNL1        0.1650
     12  O          7.5500   -2.0520   -2.7340 O.2     1  UNL1       -0.4540
     13  O          9.6010   -1.2830   -2.5730 O.2     1  UNL1       -0.4540
     14  C          8.8090   -2.1840   -3.3410 C.3     1  UNL1        0.4680
@<TRIPOS>BOND
     1    14    12    1
     2    14    13    1
     3    12    10    1
     4    13    11    1
     5    10    11    2
     6    10     8    1
     7    11     9    1
     8     8     6    2
     9     9     7    2
    10     6     7    1
    11     6     5    1
    12     5     1    1
    13     1     2    1
    14     2     3    1
    15     2     4    2
