@<TRIPOS>MOLECULE
/home/cewinharhar/GITHUB/reincatalyze/data/processed/docking_pred/2023-May-31-1603_sub9_nm5_bs15_s42_ex16_mel10_mts1000_k50_ec05_g099_lra3e-4_lrc9e-3/2481e5cfc04dcfc4c7035fb6b8b96c3a7d203934_ligand_9.pdbqt
 14 15 0 0 0
SMALL
GASTEIGER

@<TRIPOS>ATOM
      1  C          5.3430   -0.0520    1.9990 C.3     1  UNL1        0.0800
      2  C          4.5190    1.1520    1.7710 C.2     1  UNL1        0.1300
      3  C          4.9200    2.1130    0.7250 C.3     1  UNL1        0.0870
      4  O          3.5330    1.3250    2.4450 O.2     1  UNL1       -0.3000
      5  C          6.7950    0.2030    1.6490 C.3     1  UNL1        0.0430
      6  C          7.2540   -0.7500    0.6340 C.2     1  UNL1       -0.0440
      7  C          7.0830   -0.4760   -0.7070 C.2     1  UNL1        0.0080
      8  C          7.8680   -1.9420    0.9740 C.2     1  UNL1        0.0540
      9  C          7.5040   -1.3550   -1.7020 C.2     1  UNL1        0.0510
     10  C          8.3010   -2.8410    0.0020 C.2     1  UNL1        0.1660
     11  C          8.1140   -2.5380   -1.3310 C.2     1  UNL1        0.1650
     12  O          8.9330   -4.0830    0.0400 O.2     1  UNL1       -0.4540
     13  O          8.6290   -3.5880   -2.0780 O.2     1  UNL1       -0.4540
     14  C          8.9050   -4.6940   -1.2240 C.3     1  UNL1        0.4680
@<TRIPOS>BOND
     1    13    11    1
     2    13    14    1
     3     9    11    2
     4     9     7    1
     5    11    10    1
     6    14    12    1
     7     7     6    2
     8    10    12    1
     9    10     8    2
    10     6     8    1
    11     6     5    1
    12     3     2    1
    13     5     1    1
    14     2     1    1
    15     2     4    2
