@<TRIPOS>MOLECULE
/home/cewinharhar/GITHUB/reincatalyze/data/processed/docking_pred/2023-May-31-1603_sub9_nm5_bs15_s42_ex16_mel10_mts1000_k50_ec05_g099_lra3e-4_lrc9e-3/2481e5cfc04dcfc4c7035fb6b8b96c3a7d203934_ligand_9.pdbqt
 14 15 0 0 0
SMALL
GASTEIGER

@<TRIPOS>ATOM
      1  C          6.2820    1.2700    0.9790 C.3     1  UNL1        0.0800
      2  C          5.5930    0.4350    1.9830 C.2     1  UNL1        0.1300
      3  C          6.2810   -0.7530    2.5270 C.3     1  UNL1        0.0870
      4  O          4.4810    0.7400    2.3380 O.2     1  UNL1       -0.3000
      5  C          5.7750    0.9790   -0.4190 C.3     1  UNL1        0.0430
      6  C          6.7130    0.1090   -1.1350 C.2     1  UNL1       -0.0440
      7  C          7.3400    0.5540   -2.2800 C.2     1  UNL1        0.0080
      8  C          7.0010   -1.1730   -0.7000 C.2     1  UNL1        0.0540
      9  C          8.2360   -0.2410   -2.9900 C.2     1  UNL1        0.0510
     10  C          7.8930   -1.9910   -1.3880 C.2     1  UNL1        0.1660
     11  C          8.5040   -1.5170   -2.5300 C.2     1  UNL1        0.1650
     12  O          8.3680   -3.2890   -1.1960 O.2     1  UNL1       -0.4540
     13  O          9.3330   -2.5200   -3.0140 O.2     1  UNL1       -0.4540
     14  C          9.0530   -3.7410   -2.3360 C.3     1  UNL1        0.4680
@<TRIPOS>BOND
     1    13    11    1
     2    13    14    1
     3     9    11    2
     4     9     7    1
     5    11    10    1
     6    14    12    1
     7     7     6    2
     8    10    12    1
     9    10     8    2
    10     6     8    1
    11     6     5    1
    12     5     1    1
    13     1     2    1
    14     2     4    2
    15     2     3    1
