@<TRIPOS>MOLECULE
/home/cewinharhar/GITHUB/reincatalyze/data/processed/docking_pred/2023-May-31-1603_sub9_nm5_bs15_s42_ex16_mel10_mts1000_k50_ec05_g099_lra3e-4_lrc9e-3/25ea22f039de2039e6eb222be1b9c38742a73e8b_ligand_9.pdbqt
 14 15 0 0 0
SMALL
GASTEIGER

@<TRIPOS>ATOM
      1  C          5.3800   -0.0480    1.9670 C.3     1  UNL1        0.0800
      2  C          4.5510    1.1560    1.7520 C.2     1  UNL1        0.1300
      3  C          4.9410    2.1210    0.7040 C.3     1  UNL1        0.0870
      4  O          3.5730    1.3250    2.4360 O.2     1  UNL1       -0.3000
      5  C          6.8270    0.2100    1.6040 C.3     1  UNL1        0.0430
      6  C          7.2880   -0.7580    0.6050 C.2     1  UNL1       -0.0440
      7  C          7.1120   -0.5080   -0.7410 C.2     1  UNL1        0.0080
      8  C          7.9060   -1.9430    0.9640 C.2     1  UNL1        0.0540
      9  C          7.5340   -1.4030   -1.7210 C.2     1  UNL1        0.0510
     10  C          8.3390   -2.8570    0.0060 C.2     1  UNL1        0.1660
     11  C          8.1490   -2.5780   -1.3310 C.2     1  UNL1        0.1650
     12  O          8.9750   -4.0970    0.0650 O.2     1  UNL1       -0.4540
     13  O          8.6650   -3.6390   -2.0610 O.2     1  UNL1       -0.4540
     14  C          8.9460   -4.7300   -1.1890 C.3     1  UNL1        0.4680
@<TRIPOS>BOND
     1    13    11    1
     2    13    14    1
     3     9    11    2
     4     9     7    1
     5    11    10    1
     6    14    12    1
     7     7     6    2
     8    10    12    1
     9    10     8    2
    10     6     8    1
    11     6     5    1
    12     3     2    1
    13     5     1    1
    14     2     1    1
    15     2     4    2
