@<TRIPOS>MOLECULE
/home/cewinharhar/GITHUB/reincatalyze/data/processed/docking_pred/2023-May-31-1603_sub9_nm5_bs15_s42_ex16_mel10_mts1000_k50_ec05_g099_lra3e-4_lrc9e-3/25f547df8c587039729a955c6f4cb3c83005f49c_ligand_9.pdbqt
 14 15 0 0 0
SMALL
GASTEIGER

@<TRIPOS>ATOM
      1  C          6.2310    1.3400    0.9370 C.3     1  UNL1        0.0800
      2  C          5.5540    0.4960    1.9420 C.2     1  UNL1        0.1300
      3  C          6.2710   -0.6620    2.5120 C.3     1  UNL1        0.0870
      4  O          4.4280    0.7700    2.2780 O.2     1  UNL1       -0.3000
      5  C          5.7380    1.0310   -0.4610 C.3     1  UNL1        0.0430
      6  C          6.6950    0.1740   -1.1670 C.2     1  UNL1       -0.0440
      7  C          7.3690    0.6470   -2.2740 C.2     1  UNL1        0.0080
      8  C          6.9560   -1.1230   -0.7600 C.2     1  UNL1        0.0540
      9  C          8.2850   -0.1340   -2.9720 C.2     1  UNL1        0.0510
     10  C          7.8680   -1.9280   -1.4390 C.2     1  UNL1        0.1660
     11  C          8.5260   -1.4250   -2.5420 C.2     1  UNL1        0.1650
     12  O          8.3240   -3.2350   -1.2680 O.2     1  UNL1       -0.4540
     13  O          9.3640   -2.4210   -3.0230 O.2     1  UNL1       -0.4540
     14  C          9.0480   -3.6590   -2.3940 C.3     1  UNL1        0.4680
@<TRIPOS>BOND
     1    13    11    1
     2    13    14    1
     3     9    11    2
     4     9     7    1
     5    11    10    1
     6    14    12    1
     7     7     6    2
     8    10    12    1
     9    10     8    2
    10     6     8    1
    11     6     5    1
    12     5     1    1
    13     1     2    1
    14     2     4    2
    15     2     3    1
