@<TRIPOS>MOLECULE
/home/cewinharhar/GITHUB/reincatalyze/data/processed/docking_pred/2023-May-31-1603_sub9_nm5_bs15_s42_ex16_mel10_mts1000_k50_ec05_g099_lra3e-4_lrc9e-3/25fd2f55844bdf9fb92a90adf0bdb598f7a2ad59_ligand_9.pdbqt
 14 15 0 0 0
SMALL
GASTEIGER

@<TRIPOS>ATOM
      1  C          5.7060    1.3850   -0.2590 C.3     1  UNL1        0.0800
      2  C          5.0790    1.2820    1.0740 C.2     1  UNL1        0.1300
      3  C          5.4430    0.1560    1.9570 C.3     1  UNL1        0.0870
      4  O          4.2830    2.1220    1.4150 O.2     1  UNL1       -0.3000
      5  C          7.2090    1.2130   -0.1730 C.3     1  UNL1        0.0430
      6  C          7.6170   -0.0570   -0.7800 C.2     1  UNL1       -0.0440
      7  C          7.6510   -0.1940   -2.1530 C.2     1  UNL1        0.0080
      8  C          7.9790   -1.1520   -0.0150 C.2     1  UNL1        0.0540
      9  C          8.0320   -1.3830   -2.7680 C.2     1  UNL1        0.0510
     10  C          8.3650   -2.3540   -0.6030 C.2     1  UNL1        0.1660
     11  C          8.3880   -2.4590   -1.9780 C.2     1  UNL1        0.1650
     12  O          8.7720   -3.5920   -0.1050 O.2     1  UNL1       -0.4540
     13  O          8.8030   -3.7450   -2.2960 O.2     1  UNL1       -0.4540
     14  C          8.7890   -4.5560   -1.1250 C.3     1  UNL1        0.4680
@<TRIPOS>BOND
     1     9     7    1
     2     9    11    2
     3    13    11    1
     4    13    14    1
     5     7     6    2
     6    11    10    1
     7    14    12    1
     8     6     5    1
     9     6     8    1
    10    10    12    1
    11    10     8    2
    12     1     5    1
    13     1     2    1
    14     2     4    2
    15     2     3    1
