MODEL 1
REMARK VINA RESULT:      -7.5      0.000      0.000
REMARK SMILES CC(=O)CCc1ccc2c(c1)OCO2
REMARK SMILES IDX 4 1 2 2 1 3 3 4 5 5 6 6 7 7 11 8 8 9 10 10 9 11 12 12 14 13
REMARK SMILES IDX 13 14
REMARK H PARENT
REMARK Flexibility Score: inf
ROOT
ATOM      1  C   UNL     1       5.624   1.811   1.355  1.00  0.00     0.080 C 
ENDROOT
BRANCH   1   2
ATOM      2  C   UNL     1       5.139   0.618   2.077  1.00  0.00     0.130 C 
ATOM      3  C   UNL     1       6.046  -0.535   2.254  1.00  0.00     0.087 C 
ATOM      4  O   UNL     1       4.012   0.608   2.506  1.00  0.00    -0.300 OA
ENDBRANCH   1   2
BRANCH   1   5
ATOM      5  C   UNL     1       5.436   1.663  -0.140  1.00  0.00     0.043 C 
BRANCH   5   6
ATOM      6  C   UNL     1       6.568   0.943  -0.732  1.00  0.00    -0.044 A 
ATOM      7  C   UNL     1       7.854   1.413  -0.569  1.00  0.00     0.008 A 
ATOM      8  C   UNL     1       6.394  -0.216  -1.468  1.00  0.00     0.054 A 
ATOM      9  C   UNL     1       8.956   0.760  -1.116  1.00  0.00     0.051 A 
ATOM     10  C   UNL     1       7.476  -0.891  -2.027  1.00  0.00     0.166 A 
ATOM     11  C   UNL     1       8.751  -0.396  -1.845  1.00  0.00     0.165 A 
ATOM     12  O   UNL     1       7.607  -2.049  -2.794  1.00  0.00    -0.454 OA
ATOM     13  O   UNL     1       9.631  -1.248  -2.497  1.00  0.00    -0.454 OA
ATOM     14  C   UNL     1       8.902  -2.146  -3.328  1.00  0.00     0.468 C 
ENDBRANCH   5   6
ENDBRANCH   1   5
TORSDOF 3
ENDMDL
MODEL 2
REMARK VINA RESULT:      -7.3      2.053      2.628
REMARK SMILES CC(=O)CCc1ccc2c(c1)OCO2
REMARK SMILES IDX 4 1 2 2 1 3 3 4 5 5 6 6 7 7 11 8 8 9 10 10 9 11 12 12 14 13
REMARK SMILES IDX 13 14
REMARK H PARENT
REMARK Flexibility Score: inf
ROOT
ATOM      1  C   UNL     1       5.361  -0.041   1.969  1.00  0.00     0.080 C 
ENDROOT
BRANCH   1   2
ATOM      2  C   UNL     1       4.536   1.166   1.762  1.00  0.00     0.130 C 
ATOM      3  C   UNL     1       4.920   2.129   0.710  1.00  0.00     0.087 C 
ATOM      4  O   UNL     1       3.565   1.340   2.455  1.00  0.00    -0.300 OA
ENDBRANCH   1   2
BRANCH   1   5
ATOM      5  C   UNL     1       6.811   0.217   1.612  1.00  0.00     0.043 C 
BRANCH   5   6
ATOM      6  C   UNL     1       7.274  -0.748   0.610  1.00  0.00    -0.044 A 
ATOM      7  C   UNL     1       7.100  -0.493  -0.734  1.00  0.00     0.008 A 
ATOM      8  C   UNL     1       7.892  -1.933   0.966  1.00  0.00     0.054 A 
ATOM      9  C   UNL     1       7.524  -1.383  -1.717  1.00  0.00     0.051 A 
ATOM     10  C   UNL     1       8.328  -2.843   0.005  1.00  0.00     0.166 A 
ATOM     11  C   UNL     1       8.139  -2.559  -1.331  1.00  0.00     0.165 A 
ATOM     12  O   UNL     1       8.965  -4.082   0.060  1.00  0.00    -0.454 OA
ATOM     13  O   UNL     1       8.658  -3.617  -2.065  1.00  0.00    -0.454 OA
ATOM     14  C   UNL     1       8.939  -4.710  -1.196  1.00  0.00     0.468 C 
ENDBRANCH   5   6
ENDBRANCH   1   5
TORSDOF 3
ENDMDL
MODEL 3
REMARK VINA RESULT:      -7.3      1.825      2.251
REMARK SMILES CC(=O)CCc1ccc2c(c1)OCO2
REMARK SMILES IDX 4 1 2 2 1 3 3 4 5 5 6 6 7 7 11 8 8 9 10 10 9 11 12 12 14 13
REMARK SMILES IDX 13 14
REMARK H PARENT
REMARK Flexibility Score: inf
ROOT
ATOM      1  C   UNL     1       5.706   1.385  -0.259  1.00  0.00     0.080 C 
ENDROOT
BRANCH   1   2
ATOM      2  C   UNL     1       5.079   1.282   1.074  1.00  0.00     0.130 C 
ATOM      3  C   UNL     1       5.443   0.156   1.957  1.00  0.00     0.087 C 
ATOM      4  O   UNL     1       4.283   2.122   1.415  1.00  0.00    -0.300 OA
ENDBRANCH   1   2
BRANCH   1   5
ATOM      5  C   UNL     1       7.209   1.213  -0.173  1.00  0.00     0.043 C 
BRANCH   5   6
ATOM      6  C   UNL     1       7.617  -0.057  -0.780  1.00  0.00    -0.044 A 
ATOM      7  C   UNL     1       7.651  -0.194  -2.153  1.00  0.00     0.008 A 
ATOM      8  C   UNL     1       7.979  -1.152  -0.015  1.00  0.00     0.054 A 
ATOM      9  C   UNL     1       8.032  -1.383  -2.768  1.00  0.00     0.051 A 
ATOM     10  C   UNL     1       8.365  -2.354  -0.603  1.00  0.00     0.166 A 
ATOM     11  C   UNL     1       8.388  -2.459  -1.978  1.00  0.00     0.165 A 
ATOM     12  O   UNL     1       8.772  -3.592  -0.105  1.00  0.00    -0.454 OA
ATOM     13  O   UNL     1       8.803  -3.745  -2.296  1.00  0.00    -0.454 OA
ATOM     14  C   UNL     1       8.789  -4.556  -1.125  1.00  0.00     0.468 C 
ENDBRANCH   5   6
ENDBRANCH   1   5
TORSDOF 3
ENDMDL
MODEL 4
REMARK VINA RESULT:      -7.1      1.246      1.435
REMARK SMILES CC(=O)CCc1ccc2c(c1)OCO2
REMARK SMILES IDX 4 1 2 2 1 3 3 4 5 5 6 6 7 7 11 8 8 9 10 10 9 11 12 12 14 13
REMARK SMILES IDX 13 14
REMARK H PARENT
REMARK Flexibility Score: inf
ROOT
ATOM      1  C   UNL     1       6.323   1.229   0.967  1.00  0.00     0.080 C 
ENDROOT
BRANCH   1   2
ATOM      2  C   UNL     1       5.598   0.410   1.959  1.00  0.00     0.130 C 
ATOM      3  C   UNL     1       6.251  -0.791   2.518  1.00  0.00     0.087 C 
ATOM      4  O   UNL     1       4.487   0.740   2.294  1.00  0.00    -0.300 OA
ENDBRANCH   1   2
BRANCH   1   5
ATOM      5  C   UNL     1       5.822   0.960  -0.437  1.00  0.00     0.043 C 
BRANCH   5   6
ATOM      6  C   UNL     1       6.750   0.081  -1.156  1.00  0.00    -0.044 A 
ATOM      7  C   UNL     1       7.377   0.520  -2.303  1.00  0.00     0.008 A 
ATOM      8  C   UNL     1       7.029  -1.202  -0.720  1.00  0.00     0.054 A 
ATOM      9  C   UNL     1       8.264  -0.284  -3.015  1.00  0.00     0.051 A 
ATOM     10  C   UNL     1       7.911  -2.029  -1.411  1.00  0.00     0.166 A 
ATOM     11  C   UNL     1       8.523  -1.561  -2.555  1.00  0.00     0.165 A 
ATOM     12  O   UNL     1       8.375  -3.330  -1.219  1.00  0.00    -0.454 OA
ATOM     13  O   UNL     1       9.341  -2.571  -3.040  1.00  0.00    -0.454 OA
ATOM     14  C   UNL     1       9.053  -3.790  -2.360  1.00  0.00     0.468 C 
ENDBRANCH   5   6
ENDBRANCH   1   5
TORSDOF 3
ENDMDL
MODEL 5
REMARK VINA RESULT:      -7.0      1.879      2.511
REMARK SMILES CC(=O)CCc1ccc2c(c1)OCO2
REMARK SMILES IDX 4 1 2 2 1 3 3 4 5 5 6 6 7 7 11 8 8 9 10 10 9 11 12 12 14 13
REMARK SMILES IDX 13 14
REMARK H PARENT
REMARK Flexibility Score: inf
ROOT
ATOM      1  C   UNL     1       6.732   0.580   0.919  1.00  0.00     0.080 C 
ENDROOT
BRANCH   1   2
ATOM      2  C   UNL     1       5.408   1.021   1.404  1.00  0.00     0.130 C 
ATOM      3  C   UNL     1       4.733   2.148   0.731  1.00  0.00     0.087 C 
ATOM      4  O   UNL     1       4.906   0.450   2.340  1.00  0.00    -0.300 OA
ENDBRANCH   1   2
BRANCH   1   5
ATOM      5  C   UNL     1       6.809   0.637  -0.592  1.00  0.00     0.043 C 
BRANCH   5   6
ATOM      6  C   UNL     1       7.468  -0.562  -1.119  1.00  0.00    -0.044 A 
ATOM      7  C   UNL     1       7.833  -0.630  -2.448  1.00  0.00     0.008 A 
ATOM      8  C   UNL     1       7.745  -1.657  -0.319  1.00  0.00     0.054 A 
ATOM      9  C   UNL     1       8.459  -1.750  -2.987  1.00  0.00     0.051 A 
ATOM     10  C   UNL     1       8.370  -2.792  -0.831  1.00  0.00     0.166 A 
ATOM     11  C   UNL     1       8.723  -2.828  -2.164  1.00  0.00     0.165 A 
ATOM     12  O   UNL     1       8.766  -4.012  -0.284  1.00  0.00    -0.454 OA
ATOM     13  O   UNL     1       9.321  -4.056  -2.409  1.00  0.00    -0.454 OA
ATOM     14  C   UNL     1       9.113  -4.921  -1.296  1.00  0.00     0.468 C 
ENDBRANCH   5   6
ENDBRANCH   1   5
TORSDOF 3
ENDMDL
