@<TRIPOS>MOLECULE
/home/cewinharhar/GITHUB/reincatalyze/data/processed/docking_pred/2023-May-31-1603_sub9_nm5_bs15_s42_ex16_mel10_mts1000_k50_ec05_g099_lra3e-4_lrc9e-3/287d700aa29cdd08db1558ad291e1b5912b75232_ligand_9.pdbqt
 14 15 0 0 0
SMALL
GASTEIGER

@<TRIPOS>ATOM
      1  C          5.6990    1.2440   -0.1940 C.3     1  UNL1        0.0800
      2  C          5.0840    1.2330    1.1480 C.2     1  UNL1        0.1300
      3  C          5.3710    0.1100    2.0640 C.3     1  UNL1        0.0870
      4  O          4.3600    2.1420    1.4700 O.2     1  UNL1       -0.3000
      5  C          7.2010    1.0720   -0.1110 C.3     1  UNL1        0.0430
      6  C          7.6070   -0.2090   -0.6970 C.2     1  UNL1       -0.0440
      7  C          7.6110   -0.3790   -2.0660 C.2     1  UNL1        0.0080
      8  C          7.9940   -1.2820    0.0860 C.2     1  UNL1        0.0540
      9  C          7.9880   -1.5790   -2.6610 C.2     1  UNL1        0.0510
     10  C          8.3770   -2.4950   -0.4810 C.2     1  UNL1        0.1660
     11  C          8.3700   -2.6340   -1.8530 C.2     1  UNL1        0.1650
     12  O          8.8040   -3.7180    0.0370 O.2     1  UNL1       -0.4540
     13  O          8.7890   -3.9230   -2.1500 O.2     1  UNL1       -0.4540
     14  C          8.8070   -4.7060   -0.9600 C.3     1  UNL1        0.4680
@<TRIPOS>BOND
     1     9     7    1
     2     9    11    2
     3    13    11    1
     4    13    14    1
     5     7     6    2
     6    11    10    1
     7    14    12    1
     8     6     5    1
     9     6     8    1
    10    10    12    1
    11    10     8    2
    12     1     5    1
    13     1     2    1
    14     2     4    2
    15     2     3    1
