@<TRIPOS>MOLECULE
/home/cewinharhar/GITHUB/reincatalyze/data/processed/docking_pred/2023-May-31-1603_sub9_nm5_bs15_s42_ex16_mel10_mts1000_k50_ec05_g099_lra3e-4_lrc9e-3/2b606219d5526e18d91eeb9dfd7a568ae4147191_ligand_9.pdbqt
 14 15 0 0 0
SMALL
GASTEIGER

@<TRIPOS>ATOM
      1  C          6.2830    1.2740    0.9560 C.3     1  UNL1        0.0800
      2  C          5.5910    0.4360    1.9550 C.2     1  UNL1        0.1300
      3  C          6.2750   -0.7580    2.4910 C.3     1  UNL1        0.0870
      4  O          4.4810    0.7430    2.3130 O.2     1  UNL1       -0.3000
      5  C          5.7790    0.9890   -0.4440 C.3     1  UNL1        0.0430
      6  C          6.7250    0.1320   -1.1660 C.2     1  UNL1       -0.0440
      7  C          7.3740    0.6030   -2.2880 C.2     1  UNL1        0.0080
      8  C          6.9990   -1.1620   -0.7600 C.2     1  UNL1        0.0540
      9  C          8.2780   -0.1780   -3.0030 C.2     1  UNL1        0.0510
     10  C          7.8980   -1.9670   -1.4540 C.2     1  UNL1        0.1660
     11  C          8.5320   -1.4670   -2.5720 C.2     1  UNL1        0.1650
     12  O          8.3620   -3.2720   -1.2870 O.2     1  UNL1       -0.4540
     13  O          9.3630   -2.4610   -3.0670 O.2     1  UNL1       -0.4540
     14  C          9.0650   -3.6980   -2.4260 C.3     1  UNL1        0.4680
@<TRIPOS>BOND
     1    13    11    1
     2    13    14    1
     3     9    11    2
     4     9     7    1
     5    11    10    1
     6    14    12    1
     7     7     6    2
     8    10    12    1
     9    10     8    2
    10     6     8    1
    11     6     5    1
    12     5     1    1
    13     1     2    1
    14     2     4    2
    15     2     3    1
