@<TRIPOS>MOLECULE
/home/cewinharhar/GITHUB/reincatalyze/data/processed/docking_pred/2023-May-31-1603_sub9_nm5_bs15_s42_ex16_mel10_mts1000_k50_ec05_g099_lra3e-4_lrc9e-3/2b606219d5526e18d91eeb9dfd7a568ae4147191_ligand_9.pdbqt
 14 15 0 0 0
SMALL
GASTEIGER

@<TRIPOS>ATOM
      1  C          5.7730    1.7890    1.4670 C.3     1  UNL1        0.0800
      2  C          5.2390    0.5810    2.1270 C.2     1  UNL1        0.1300
      3  C          6.1220   -0.5880    2.3120 C.3     1  UNL1        0.0870
      4  O          4.0920    0.5740    2.5000 O.2     1  UNL1       -0.3000
      5  C          5.5740    1.7290   -0.0330 C.3     1  UNL1        0.0430
      6  C          6.6680    0.9890   -0.6690 C.2     1  UNL1       -0.0440
      7  C          7.9690    1.4350   -0.5570 C.2     1  UNL1        0.0080
      8  C          6.4450   -0.1680   -1.3950 C.2     1  UNL1        0.0540
      9  C          9.0360    0.7620   -1.1460 C.2     1  UNL1        0.0510
     10  C          7.4920   -0.8630   -1.9950 C.2     1  UNL1        0.1660
     11  C          8.7810   -0.3910   -1.8650 C.2     1  UNL1        0.1650
     12  O          7.5720   -2.0230   -2.7650 O.2     1  UNL1       -0.4540
     13  O          9.6200   -1.2580   -2.5500 O.2     1  UNL1       -0.4540
     14  C          8.8430   -2.1440   -3.3510 C.3     1  UNL1        0.4680
@<TRIPOS>BOND
     1    14    12    1
     2    14    13    1
     3    12    10    1
     4    13    11    1
     5    10    11    2
     6    10     8    1
     7    11     9    1
     8     8     6    2
     9     9     7    2
    10     6     7    1
    11     6     5    1
    12     5     1    1
    13     1     2    1
    14     2     3    1
    15     2     4    2
