@<TRIPOS>MOLECULE
/home/cewinharhar/GITHUB/reincatalyze/data/processed/docking_pred/2023-May-31-1603_sub9_nm5_bs15_s42_ex16_mel10_mts1000_k50_ec05_g099_lra3e-4_lrc9e-3/2b611616233e02901686b2fc0a6dd8ec9c570ff2_ligand_9.pdbqt
 14 15 0 0 0
SMALL
GASTEIGER

@<TRIPOS>ATOM
      1  C          5.7620    1.1190   -0.2420 C.3     1  UNL1        0.0800
      2  C          5.2720    1.1630    1.1510 C.2     1  UNL1        0.1300
      3  C          5.4940   -0.0030    2.0300 C.3     1  UNL1        0.0870
      4  O          4.7000    2.1500    1.5420 O.2     1  UNL1       -0.3000
      5  C          7.2730    1.0350   -0.2890 C.3     1  UNL1        0.0430
      6  C          7.7000   -0.2600   -0.8290 C.2     1  UNL1       -0.0440
      7  C          7.8010   -0.4470   -2.1920 C.2     1  UNL1        0.0080
      8  C          8.0130   -1.3280   -0.0080 C.2     1  UNL1        0.0540
      9  C          8.2010   -1.6600   -2.7450 C.2     1  UNL1        0.0510
     10  C          8.4170   -2.5540   -0.5320 C.2     1  UNL1        0.1660
     11  C          8.5080   -2.7100   -1.8990 C.2     1  UNL1        0.1650
     12  O          8.7870   -3.7760    0.0300 O.2     1  UNL1       -0.4540
     13  O          8.9270   -4.0090   -2.1500 O.2     1  UNL1       -0.4540
     14  C          8.8470   -4.7770   -0.9520 C.3     1  UNL1        0.4680
@<TRIPOS>BOND
     1     9     7    1
     2     9    11    2
     3     7     6    2
     4    13    11    1
     5    13    14    1
     6    11    10    1
     7    14    12    1
     8     6     5    1
     9     6     8    1
    10    10     8    2
    11    10    12    1
    12     5     1    1
    13     1     2    1
    14     2     4    2
    15     2     3    1
