@<TRIPOS>MOLECULE
/home/cewinharhar/GITHUB/reincatalyze/data/processed/docking_pred/2023-May-31-1603_sub9_nm5_bs15_s42_ex16_mel10_mts1000_k50_ec05_g099_lra3e-4_lrc9e-3/2b611616233e02901686b2fc0a6dd8ec9c570ff2_ligand_9.pdbqt
 14 15 0 0 0
SMALL
GASTEIGER

@<TRIPOS>ATOM
      1  C          6.7730    0.7480    0.8920 C.3     1  UNL1        0.0800
      2  C          5.4270    1.0530    1.4180 C.2     1  UNL1        0.1300
      3  C          4.6470    2.1500    0.8100 C.3     1  UNL1        0.0870
      4  O          4.9930    0.4000    2.3340 O.2     1  UNL1       -0.3000
      5  C          6.7690    0.6830   -0.6210 C.3     1  UNL1        0.0430
      6  C          7.3980   -0.5570   -1.0850 C.2     1  UNL1       -0.0440
      7  C          7.7050   -0.7250   -2.4190 C.2     1  UNL1        0.0080
      8  C          7.7020   -1.5920   -0.2190 C.2     1  UNL1        0.0540
      9  C          8.3020   -1.8880   -2.9000 C.2     1  UNL1        0.0510
     10  C          8.2990   -2.7670   -0.6700 C.2     1  UNL1        0.1660
     11  C          8.5950   -2.9040   -2.0110 C.2     1  UNL1        0.1650
     12  O          8.7120   -3.9470   -0.0520 O.2     1  UNL1       -0.4540
     13  O          9.1760   -4.1520   -2.1890 O.2     1  UNL1       -0.4540
     14  C          9.0100   -4.9310   -1.0080 C.3     1  UNL1        0.4680
@<TRIPOS>BOND
     1     9     7    1
     2     9    11    2
     3     7     6    2
     4    13    11    1
     5    13    14    1
     6    11    10    1
     7     6     5    1
     8     6     8    1
     9    14    12    1
    10    10     8    2
    11    10    12    1
    12     5     1    1
    13     3     2    1
    14     1     2    1
    15     2     4    2
