MODEL 1
REMARK VINA RESULT:      -7.5      0.000      0.000
REMARK SMILES CC(=O)CCc1ccc2c(c1)OCO2
REMARK SMILES IDX 4 1 2 2 1 3 3 4 5 5 6 6 7 7 11 8 8 9 10 10 9 11 12 12 14 13
REMARK SMILES IDX 13 14
REMARK H PARENT
REMARK Flexibility Score: inf
ROOT
ATOM      1  C   UNL     1       5.633   1.823   1.344  1.00  0.00     0.080 C 
ENDROOT
BRANCH   1   2
ATOM      2  C   UNL     1       5.135   0.633   2.063  1.00  0.00     0.130 C 
ATOM      3  C   UNL     1       6.035  -0.522   2.254  1.00  0.00     0.087 C 
ATOM      4  O   UNL     1       4.003   0.629   2.479  1.00  0.00    -0.300 OA
ENDBRANCH   1   2
BRANCH   1   5
ATOM      5  C   UNL     1       5.448   1.678  -0.152  1.00  0.00     0.043 C 
BRANCH   5   6
ATOM      6  C   UNL     1       6.577   0.952  -0.742  1.00  0.00    -0.044 A 
ATOM      7  C   UNL     1       7.865   1.420  -0.584  1.00  0.00     0.008 A 
ATOM      8  C   UNL     1       6.399  -0.210  -1.472  1.00  0.00     0.054 A 
ATOM      9  C   UNL     1       8.964   0.761  -1.129  1.00  0.00     0.051 A 
ATOM     10  C   UNL     1       7.479  -0.891  -2.029  1.00  0.00     0.166 A 
ATOM     11  C   UNL     1       8.755  -0.398  -1.852  1.00  0.00     0.165 A 
ATOM     12  O   UNL     1       7.606  -2.053  -2.790  1.00  0.00    -0.454 OA
ATOM     13  O   UNL     1       9.632  -1.255  -2.501  1.00  0.00    -0.454 OA
ATOM     14  C   UNL     1       8.900  -2.156  -3.327  1.00  0.00     0.468 C 
ENDBRANCH   5   6
ENDBRANCH   1   5
TORSDOF 3
ENDMDL
MODEL 2
REMARK VINA RESULT:      -7.3      1.943      2.396
REMARK SMILES CC(=O)CCc1ccc2c(c1)OCO2
REMARK SMILES IDX 4 1 2 2 1 3 3 4 5 5 6 6 7 7 11 8 8 9 10 10 9 11 12 12 14 13
REMARK SMILES IDX 13 14
REMARK H PARENT
REMARK Flexibility Score: inf
ROOT
ATOM      1  C   UNL     1       5.762   1.119  -0.242  1.00  0.00     0.080 C 
ENDROOT
BRANCH   1   2
ATOM      2  C   UNL     1       5.272   1.163   1.151  1.00  0.00     0.130 C 
ATOM      3  C   UNL     1       5.494  -0.003   2.030  1.00  0.00     0.087 C 
ATOM      4  O   UNL     1       4.700   2.150   1.542  1.00  0.00    -0.300 OA
ENDBRANCH   1   2
BRANCH   1   5
ATOM      5  C   UNL     1       7.273   1.035  -0.289  1.00  0.00     0.043 C 
BRANCH   5   6
ATOM      6  C   UNL     1       7.700  -0.260  -0.829  1.00  0.00    -0.044 A 
ATOM      7  C   UNL     1       7.801  -0.447  -2.192  1.00  0.00     0.008 A 
ATOM      8  C   UNL     1       8.013  -1.328  -0.008  1.00  0.00     0.054 A 
ATOM      9  C   UNL     1       8.201  -1.660  -2.745  1.00  0.00     0.051 A 
ATOM     10  C   UNL     1       8.417  -2.554  -0.532  1.00  0.00     0.166 A 
ATOM     11  C   UNL     1       8.508  -2.710  -1.899  1.00  0.00     0.165 A 
ATOM     12  O   UNL     1       8.787  -3.776   0.030  1.00  0.00    -0.454 OA
ATOM     13  O   UNL     1       8.927  -4.009  -2.150  1.00  0.00    -0.454 OA
ATOM     14  C   UNL     1       8.847  -4.777  -0.952  1.00  0.00     0.468 C 
ENDBRANCH   5   6
ENDBRANCH   1   5
TORSDOF 3
ENDMDL
MODEL 3
REMARK VINA RESULT:      -7.3      2.086      2.633
REMARK SMILES CC(=O)CCc1ccc2c(c1)OCO2
REMARK SMILES IDX 4 1 2 2 1 3 3 4 5 5 6 6 7 7 11 8 8 9 10 10 9 11 12 12 14 13
REMARK SMILES IDX 13 14
REMARK H PARENT
REMARK Flexibility Score: inf
ROOT
ATOM      1  C   UNL     1       5.454   0.007   1.885  1.00  0.00     0.080 C 
ENDROOT
BRANCH   1   2
ATOM      2  C   UNL     1       4.617   1.197   1.636  1.00  0.00     0.130 C 
ATOM      3  C   UNL     1       5.013   2.148   0.578  1.00  0.00     0.087 C 
ATOM      4  O   UNL     1       3.626   1.369   2.302  1.00  0.00    -0.300 OA
ENDBRANCH   1   2
BRANCH   1   5
ATOM      5  C   UNL     1       6.895   0.256   1.490  1.00  0.00     0.043 C 
BRANCH   5   6
ATOM      6  C   UNL     1       7.340  -0.741   0.512  1.00  0.00    -0.044 A 
ATOM      7  C   UNL     1       7.169  -0.516  -0.839  1.00  0.00     0.008 A 
ATOM      8  C   UNL     1       7.939  -1.928   0.896  1.00  0.00     0.054 A 
ATOM      9  C   UNL     1       7.578  -1.437  -1.800  1.00  0.00     0.051 A 
ATOM     10  C   UNL     1       8.358  -2.868  -0.042  1.00  0.00     0.166 A 
ATOM     11  C   UNL     1       8.173  -2.613  -1.385  1.00  0.00     0.165 A 
ATOM     12  O   UNL     1       8.973  -4.116   0.042  1.00  0.00    -0.454 OA
ATOM     13  O   UNL     1       8.672  -3.697  -2.093  1.00  0.00    -0.454 OA
ATOM     14  C   UNL     1       8.935  -4.774  -1.198  1.00  0.00     0.468 C 
ENDBRANCH   5   6
ENDBRANCH   1   5
TORSDOF 3
ENDMDL
MODEL 4
REMARK VINA RESULT:      -7.1      1.190      1.346
REMARK SMILES CC(=O)CCc1ccc2c(c1)OCO2
REMARK SMILES IDX 4 1 2 2 1 3 3 4 5 5 6 6 7 7 11 8 8 9 10 10 9 11 12 12 14 13
REMARK SMILES IDX 13 14
REMARK H PARENT
REMARK Flexibility Score: inf
ROOT
ATOM      1  C   UNL     1       6.242   1.333   0.922  1.00  0.00     0.080 C 
ENDROOT
BRANCH   1   2
ATOM      2  C   UNL     1       5.568   0.501   1.938  1.00  0.00     0.130 C 
ATOM      3  C   UNL     1       6.274  -0.670   2.495  1.00  0.00     0.087 C 
ATOM      4  O   UNL     1       4.453   0.795   2.293  1.00  0.00    -0.300 OA
ENDBRANCH   1   2
BRANCH   1   5
ATOM      5  C   UNL     1       5.740   1.013  -0.471  1.00  0.00     0.043 C 
BRANCH   5   6
ATOM      6  C   UNL     1       6.697   0.158  -1.180  1.00  0.00    -0.044 A 
ATOM      7  C   UNL     1       7.369   0.635  -2.286  1.00  0.00     0.008 A 
ATOM      8  C   UNL     1       6.960  -1.139  -0.775  1.00  0.00     0.054 A 
ATOM      9  C   UNL     1       8.285  -0.145  -2.988  1.00  0.00     0.051 A 
ATOM     10  C   UNL     1       7.871  -1.942  -1.457  1.00  0.00     0.166 A 
ATOM     11  C   UNL     1       8.527  -1.437  -2.560  1.00  0.00     0.165 A 
ATOM     12  O   UNL     1       8.329  -3.248  -1.289  1.00  0.00    -0.454 OA
ATOM     13  O   UNL     1       9.366  -2.430  -3.044  1.00  0.00    -0.454 OA
ATOM     14  C   UNL     1       9.052  -3.670  -2.416  1.00  0.00     0.468 C 
ENDBRANCH   5   6
ENDBRANCH   1   5
TORSDOF 3
ENDMDL
MODEL 5
REMARK VINA RESULT:      -7.0      1.938      2.561
REMARK SMILES CC(=O)CCc1ccc2c(c1)OCO2
REMARK SMILES IDX 4 1 2 2 1 3 3 4 5 5 6 6 7 7 11 8 8 9 10 10 9 11 12 12 14 13
REMARK SMILES IDX 13 14
REMARK H PARENT
REMARK Flexibility Score: inf
ROOT
ATOM      1  C   UNL     1       6.773   0.748   0.892  1.00  0.00     0.080 C 
ENDROOT
BRANCH   1   2
ATOM      2  C   UNL     1       5.427   1.053   1.418  1.00  0.00     0.130 C 
ATOM      3  C   UNL     1       4.647   2.150   0.810  1.00  0.00     0.087 C 
ATOM      4  O   UNL     1       4.993   0.400   2.334  1.00  0.00    -0.300 OA
ENDBRANCH   1   2
BRANCH   1   5
ATOM      5  C   UNL     1       6.769   0.683  -0.621  1.00  0.00     0.043 C 
BRANCH   5   6
ATOM      6  C   UNL     1       7.398  -0.557  -1.085  1.00  0.00    -0.044 A 
ATOM      7  C   UNL     1       7.705  -0.725  -2.419  1.00  0.00     0.008 A 
ATOM      8  C   UNL     1       7.702  -1.592  -0.219  1.00  0.00     0.054 A 
ATOM      9  C   UNL     1       8.302  -1.888  -2.900  1.00  0.00     0.051 A 
ATOM     10  C   UNL     1       8.299  -2.767  -0.670  1.00  0.00     0.166 A 
ATOM     11  C   UNL     1       8.595  -2.904  -2.011  1.00  0.00     0.165 A 
ATOM     12  O   UNL     1       8.712  -3.947  -0.052  1.00  0.00    -0.454 OA
ATOM     13  O   UNL     1       9.176  -4.152  -2.189  1.00  0.00    -0.454 OA
ATOM     14  C   UNL     1       9.010  -4.931  -1.008  1.00  0.00     0.468 C 
ENDBRANCH   5   6
ENDBRANCH   1   5
TORSDOF 3
ENDMDL
