@<TRIPOS>MOLECULE
/home/cewinharhar/GITHUB/reincatalyze/data/processed/docking_pred/2023-May-31-1603_sub9_nm5_bs15_s42_ex16_mel10_mts1000_k50_ec05_g099_lra3e-4_lrc9e-3/2bd7ebd6000506c3611824cd415c5dddcf27ad2f_ligand_9.pdbqt
 14 15 0 0 0
SMALL
GASTEIGER

@<TRIPOS>ATOM
      1  C          6.7290    0.7230    0.7770 C.3     1  UNL1        0.0800
      2  C          5.4110    1.1210    1.3110 C.2     1  UNL1        0.1300
      3  C          4.6250    2.1480    0.5980 C.3     1  UNL1        0.0870
      4  O          5.0020    0.5980    2.3180 O.2     1  UNL1       -0.3000
      5  C          6.6980    0.6070   -0.7330 C.3     1  UNL1        0.0430
      6  C          7.3540   -0.6290   -1.1680 C.2     1  UNL1       -0.0440
      7  C          7.6790   -0.8160   -2.4950 C.2     1  UNL1        0.0080
      8  C          7.6680   -1.6430   -0.2800 C.2     1  UNL1        0.0540
      9  C          8.3020   -1.9750   -2.9490 C.2     1  UNL1        0.0510
     10  C          8.2910   -2.8140   -0.7040 C.2     1  UNL1        0.1660
     11  C          8.6040   -2.9700   -2.0380 C.2     1  UNL1        0.1650
     12  O          8.7180   -3.9760   -0.0600 O.2     1  UNL1       -0.4540
     13  O          9.2090   -4.2100   -2.1880 O.2     1  UNL1       -0.4540
     14  C          9.0450   -4.9710   -0.9950 C.3     1  UNL1        0.4680
@<TRIPOS>BOND
     1     9     7    1
     2     9    11    2
     3     7     6    2
     4    13    11    1
     5    13    14    1
     6    11    10    1
     7     6     5    1
     8     6     8    1
     9    14    12    1
    10     5     1    1
    11    10     8    2
    12    10    12    1
    13     3     2    1
    14     1     2    1
    15     2     4    2
