@<TRIPOS>MOLECULE
/home/cewinharhar/GITHUB/reincatalyze/data/processed/docking_pred/2023-May-31-1603_sub9_nm5_bs15_s42_ex16_mel10_mts1000_k50_ec05_g099_lra3e-4_lrc9e-3/2bd7ebd6000506c3611824cd415c5dddcf27ad2f_ligand_9.pdbqt
 14 15 0 0 0
SMALL
GASTEIGER

@<TRIPOS>ATOM
      1  C          5.6650    1.7980    1.3830 C.3     1  UNL1        0.0800
      2  C          5.1560    0.6000    2.0800 C.2     1  UNL1        0.1300
      3  C          6.0480   -0.5630    2.2590 C.3     1  UNL1        0.0870
      4  O          4.0210    0.5960    2.4890 O.2     1  UNL1       -0.3000
      5  C          5.4710    1.6860   -0.1150 C.3     1  UNL1        0.0430
      6  C          6.5870    0.9570   -0.7250 C.2     1  UNL1       -0.0440
      7  C          7.8810    1.4130   -0.5760 C.2     1  UNL1        0.0080
      8  C          6.3920   -0.1970   -1.4640 C.2     1  UNL1        0.0540
      9  C          8.9680    0.7510   -1.1400 C.2     1  UNL1        0.0510
     10  C          7.4600   -0.8800   -2.0400 C.2     1  UNL1        0.1660
     11  C          8.7420   -0.3990   -1.8720 C.2     1  UNL1        0.1650
     12  O          7.5700   -2.0350   -2.8140 O.2     1  UNL1       -0.4540
     13  O          9.6060   -1.2570   -2.5390 O.2     1  UNL1       -0.4540
     14  C          8.8570   -2.1440   -3.3660 C.3     1  UNL1        0.4680
@<TRIPOS>BOND
     1    14    12    1
     2    14    13    1
     3    12    10    1
     4    13    11    1
     5    10    11    2
     6    10     8    1
     7    11     9    1
     8     8     6    2
     9     9     7    2
    10     6     7    1
    11     6     5    1
    12     5     1    1
    13     1     2    1
    14     2     3    1
    15     2     4    2
