MODEL 1
REMARK VINA RESULT:      -7.5      0.000      0.000
REMARK SMILES CC(=O)CCc1ccc2c(c1)OCO2
REMARK SMILES IDX 4 1 2 2 1 3 3 4 5 5 6 6 7 7 11 8 8 9 10 10 9 11 12 12 14 13
REMARK SMILES IDX 13 14
REMARK H PARENT
REMARK Flexibility Score: inf
ROOT
ATOM      1  C   UNL     1       5.665   1.798   1.383  1.00  0.00     0.080 C 
ENDROOT
BRANCH   1   2
ATOM      2  C   UNL     1       5.156   0.600   2.080  1.00  0.00     0.130 C 
ATOM      3  C   UNL     1       6.048  -0.563   2.259  1.00  0.00     0.087 C 
ATOM      4  O   UNL     1       4.021   0.596   2.489  1.00  0.00    -0.300 OA
ENDBRANCH   1   2
BRANCH   1   5
ATOM      5  C   UNL     1       5.471   1.686  -0.115  1.00  0.00     0.043 C 
BRANCH   5   6
ATOM      6  C   UNL     1       6.587   0.957  -0.725  1.00  0.00    -0.044 A 
ATOM      7  C   UNL     1       7.881   1.413  -0.576  1.00  0.00     0.008 A 
ATOM      8  C   UNL     1       6.392  -0.197  -1.464  1.00  0.00     0.054 A 
ATOM      9  C   UNL     1       8.968   0.751  -1.140  1.00  0.00     0.051 A 
ATOM     10  C   UNL     1       7.460  -0.880  -2.040  1.00  0.00     0.166 A 
ATOM     11  C   UNL     1       8.742  -0.399  -1.872  1.00  0.00     0.165 A 
ATOM     12  O   UNL     1       7.570  -2.035  -2.814  1.00  0.00    -0.454 OA
ATOM     13  O   UNL     1       9.606  -1.257  -2.539  1.00  0.00    -0.454 OA
ATOM     14  C   UNL     1       8.857  -2.144  -3.366  1.00  0.00     0.468 C 
ENDBRANCH   5   6
ENDBRANCH   1   5
TORSDOF 3
ENDMDL
MODEL 2
REMARK VINA RESULT:      -7.3      1.875      2.321
REMARK SMILES CC(=O)CCc1ccc2c(c1)OCO2
REMARK SMILES IDX 4 1 2 2 1 3 3 4 5 5 6 6 7 7 11 8 8 9 10 10 9 11 12 12 14 13
REMARK SMILES IDX 13 14
REMARK H PARENT
REMARK Flexibility Score: inf
ROOT
ATOM      1  C   UNL     1       5.638   1.353  -0.252  1.00  0.00     0.080 C 
ENDROOT
BRANCH   1   2
ATOM      2  C   UNL     1       5.024   1.255   1.087  1.00  0.00     0.130 C 
ATOM      3  C   UNL     1       5.386   0.123   1.964  1.00  0.00     0.087 C 
ATOM      4  O   UNL     1       4.239   2.101   1.438  1.00  0.00    -0.300 OA
ENDBRANCH   1   2
BRANCH   1   5
ATOM      5  C   UNL     1       7.140   1.172  -0.182  1.00  0.00     0.043 C 
BRANCH   5   6
ATOM      6  C   UNL     1       7.531  -0.116  -0.763  1.00  0.00    -0.044 A 
ATOM      7  C   UNL     1       7.438  -0.323  -2.124  1.00  0.00     0.008 A 
ATOM      8  C   UNL     1       8.001  -1.158   0.016  1.00  0.00     0.054 A 
ATOM      9  C   UNL     1       7.798  -1.532  -2.714  1.00  0.00     0.051 A 
ATOM     10  C   UNL     1       8.369  -2.378  -0.546  1.00  0.00     0.166 A 
ATOM     11  C   UNL     1       8.264  -2.555  -1.910  1.00  0.00     0.165 A 
ATOM     12  O   UNL     1       8.862  -3.576  -0.030  1.00  0.00    -0.454 OA
ATOM     13  O   UNL     1       8.689  -3.842  -2.203  1.00  0.00    -0.454 OA
ATOM     14  C   UNL     1       8.814  -4.592  -0.998  1.00  0.00     0.468 C 
ENDBRANCH   5   6
ENDBRANCH   1   5
TORSDOF 3
ENDMDL
MODEL 3
REMARK VINA RESULT:      -7.1      2.090      2.612
REMARK SMILES CC(=O)CCc1ccc2c(c1)OCO2
REMARK SMILES IDX 4 1 2 2 1 3 3 4 5 5 6 6 7 7 11 8 8 9 10 10 9 11 12 12 14 13
REMARK SMILES IDX 13 14
REMARK H PARENT
REMARK Flexibility Score: inf
ROOT
ATOM      1  C   UNL     1       5.557   0.092   1.917  1.00  0.00     0.080 C 
ENDROOT
BRANCH   1   2
ATOM      2  C   UNL     1       4.640   1.212   1.624  1.00  0.00     0.130 C 
ATOM      3  C   UNL     1       4.973   2.150   0.533  1.00  0.00     0.087 C 
ATOM      4  O   UNL     1       3.636   1.337   2.282  1.00  0.00    -0.300 OA
ENDBRANCH   1   2
BRANCH   1   5
ATOM      5  C   UNL     1       6.954   0.380   1.410  1.00  0.00     0.043 C 
BRANCH   5   6
ATOM      6  C   UNL     1       7.377  -0.648   0.454  1.00  0.00    -0.044 A 
ATOM      7  C   UNL     1       7.200  -0.455  -0.900  1.00  0.00     0.008 A 
ATOM      8  C   UNL     1       7.961  -1.833   0.864  1.00  0.00     0.054 A 
ATOM      9  C   UNL     1       7.587  -1.406  -1.840  1.00  0.00     0.051 A 
ATOM     10  C   UNL     1       8.359  -2.804  -0.052  1.00  0.00     0.166 A 
ATOM     11  C   UNL     1       8.167  -2.581  -1.400  1.00  0.00     0.165 A 
ATOM     12  O   UNL     1       8.956  -4.059   0.060  1.00  0.00    -0.454 OA
ATOM     13  O   UNL     1       8.645  -3.690  -2.083  1.00  0.00    -0.454 OA
ATOM     14  C   UNL     1       8.899  -4.748  -1.163  1.00  0.00     0.468 C 
ENDBRANCH   5   6
ENDBRANCH   1   5
TORSDOF 3
ENDMDL
MODEL 4
REMARK VINA RESULT:      -6.9      1.957      2.621
REMARK SMILES CC(=O)CCc1ccc2c(c1)OCO2
REMARK SMILES IDX 4 1 2 2 1 3 3 4 5 5 6 6 7 7 11 8 8 9 10 10 9 11 12 12 14 13
REMARK SMILES IDX 13 14
REMARK H PARENT
REMARK Flexibility Score: inf
ROOT
ATOM      1  C   UNL     1       6.729   0.723   0.777  1.00  0.00     0.080 C 
ENDROOT
BRANCH   1   2
ATOM      2  C   UNL     1       5.411   1.121   1.311  1.00  0.00     0.130 C 
ATOM      3  C   UNL     1       4.625   2.148   0.598  1.00  0.00     0.087 C 
ATOM      4  O   UNL     1       5.002   0.598   2.318  1.00  0.00    -0.300 OA
ENDBRANCH   1   2
BRANCH   1   5
ATOM      5  C   UNL     1       6.698   0.607  -0.733  1.00  0.00     0.043 C 
BRANCH   5   6
ATOM      6  C   UNL     1       7.354  -0.629  -1.168  1.00  0.00    -0.044 A 
ATOM      7  C   UNL     1       7.679  -0.816  -2.495  1.00  0.00     0.008 A 
ATOM      8  C   UNL     1       7.668  -1.643  -0.280  1.00  0.00     0.054 A 
ATOM      9  C   UNL     1       8.302  -1.975  -2.949  1.00  0.00     0.051 A 
ATOM     10  C   UNL     1       8.291  -2.814  -0.704  1.00  0.00     0.166 A 
ATOM     11  C   UNL     1       8.604  -2.970  -2.038  1.00  0.00     0.165 A 
ATOM     12  O   UNL     1       8.718  -3.976  -0.060  1.00  0.00    -0.454 OA
ATOM     13  O   UNL     1       9.209  -4.210  -2.188  1.00  0.00    -0.454 OA
ATOM     14  C   UNL     1       9.045  -4.971  -0.995  1.00  0.00     0.468 C 
ENDBRANCH   5   6
ENDBRANCH   1   5
TORSDOF 3
ENDMDL
MODEL 5
REMARK VINA RESULT:      -6.9      1.200      5.180
REMARK SMILES CC(=O)CCc1ccc2c(c1)OCO2
REMARK SMILES IDX 4 1 2 2 1 3 3 4 5 5 6 6 7 7 11 8 8 9 10 10 9 11 12 12 14 13
REMARK SMILES IDX 13 14
REMARK H PARENT
REMARK Flexibility Score: inf
ROOT
ATOM      1  C   UNL     1       8.263   0.180  -2.634  1.00  0.00     0.080 C 
ENDROOT
BRANCH   1   2
ATOM      2  C   UNL     1       7.979  -1.265  -2.736  1.00  0.00     0.130 C 
ATOM      3  C   UNL     1       9.085  -2.199  -3.026  1.00  0.00     0.087 C 
ATOM      4  O   UNL     1       6.847  -1.653  -2.581  1.00  0.00    -0.300 OA
ENDBRANCH   1   2
BRANCH   1   5
ATOM      5  C   UNL     1       8.828   0.533  -1.274  1.00  0.00     0.043 C 
BRANCH   5   6
ATOM      6  C   UNL     1       7.788   0.445  -0.245  1.00  0.00    -0.044 A 
ATOM      7  C   UNL     1       7.828  -0.557   0.702  1.00  0.00     0.008 A 
ATOM      8  C   UNL     1       6.740   1.347  -0.184  1.00  0.00     0.054 A 
ATOM      9  C   UNL     1       6.859  -0.677   1.695  1.00  0.00     0.051 A 
ATOM     10  C   UNL     1       5.757   1.253   0.798  1.00  0.00     0.166 A 
ATOM     11  C   UNL     1       5.825   0.239   1.731  1.00  0.00     0.165 A 
ATOM     12  O   UNL     1       4.615   1.994   1.103  1.00  0.00    -0.454 OA
ATOM     13  O   UNL     1       4.737   0.374   2.581  1.00  0.00    -0.454 OA
ATOM     14  C   UNL     1       3.816   1.314   2.036  1.00  0.00     0.468 C 
ENDBRANCH   5   6
ENDBRANCH   1   5
TORSDOF 3
ENDMDL
