@<TRIPOS>MOLECULE
/home/cewinharhar/GITHUB/reincatalyze/data/processed/docking_pred/2023-May-31-1603_sub9_nm5_bs15_s42_ex16_mel10_mts1000_k50_ec05_g099_lra3e-4_lrc9e-3/2bd7ebd6000506c3611824cd415c5dddcf27ad2f_ligand_9.pdbqt
 14 15 0 0 0
SMALL
GASTEIGER

@<TRIPOS>ATOM
      1  C          8.2630    0.1800   -2.6340 C.3     1  UNL1        0.0800
      2  C          7.9790   -1.2650   -2.7360 C.2     1  UNL1        0.1300
      3  C          9.0850   -2.1990   -3.0260 C.3     1  UNL1        0.0870
      4  O          6.8470   -1.6530   -2.5810 O.2     1  UNL1       -0.3000
      5  C          8.8280    0.5330   -1.2740 C.3     1  UNL1        0.0430
      6  C          7.7880    0.4450   -0.2450 C.2     1  UNL1       -0.0440
      7  C          7.8280   -0.5570    0.7020 C.2     1  UNL1        0.0080
      8  C          6.7400    1.3470   -0.1840 C.2     1  UNL1        0.0540
      9  C          6.8590   -0.6770    1.6950 C.2     1  UNL1        0.0510
     10  C          5.7570    1.2530    0.7980 C.2     1  UNL1        0.1660
     11  C          5.8250    0.2390    1.7310 C.2     1  UNL1        0.1650
     12  O          4.6150    1.9940    1.1030 O.2     1  UNL1       -0.4540
     13  O          4.7370    0.3740    2.5810 O.2     1  UNL1       -0.4540
     14  C          3.8160    1.3140    2.0360 C.3     1  UNL1        0.4680
@<TRIPOS>BOND
     1     3     2    1
     2     2     1    1
     3     2     4    2
     4     1     5    1
     5     5     6    1
     6     6     8    2
     7     6     7    1
     8     8    10    1
     9     7     9    2
    10    10    12    1
    11    10    11    2
    12    12    14    1
    13     9    11    1
    14    11    13    1
    15    14    13    1
