@<TRIPOS>MOLECULE
/home/cewinharhar/GITHUB/reincatalyze/data/processed/docking_pred/2023-May-31-1603_sub9_nm5_bs15_s42_ex16_mel10_mts1000_k50_ec05_g099_lra3e-4_lrc9e-3/2bd7ebd6000506c3611824cd415c5dddcf27ad2f_ligand_9.pdbqt
 14 15 0 0 0
SMALL
GASTEIGER

@<TRIPOS>ATOM
      1  C          5.5570    0.0920    1.9170 C.3     1  UNL1        0.0800
      2  C          4.6400    1.2120    1.6240 C.2     1  UNL1        0.1300
      3  C          4.9730    2.1500    0.5330 C.3     1  UNL1        0.0870
      4  O          3.6360    1.3370    2.2820 O.2     1  UNL1       -0.3000
      5  C          6.9540    0.3800    1.4100 C.3     1  UNL1        0.0430
      6  C          7.3770   -0.6480    0.4540 C.2     1  UNL1       -0.0440
      7  C          7.2000   -0.4550   -0.9000 C.2     1  UNL1        0.0080
      8  C          7.9610   -1.8330    0.8640 C.2     1  UNL1        0.0540
      9  C          7.5870   -1.4060   -1.8400 C.2     1  UNL1        0.0510
     10  C          8.3590   -2.8040   -0.0520 C.2     1  UNL1        0.1660
     11  C          8.1670   -2.5810   -1.4000 C.2     1  UNL1        0.1650
     12  O          8.9560   -4.0590    0.0600 O.2     1  UNL1       -0.4540
     13  O          8.6450   -3.6900   -2.0830 O.2     1  UNL1       -0.4540
     14  C          8.8990   -4.7480   -1.1630 C.3     1  UNL1        0.4680
@<TRIPOS>BOND
     1    13    11    1
     2    13    14    1
     3     9    11    2
     4     9     7    1
     5    11    10    1
     6    14    12    1
     7     7     6    2
     8    10    12    1
     9    10     8    2
    10     6     8    1
    11     6     5    1
    12     3     2    1
    13     5     1    1
    14     2     1    1
    15     2     4    2
