@<TRIPOS>MOLECULE
/home/cewinharhar/GITHUB/reincatalyze/data/processed/docking_pred/2023-May-31-1603_sub9_nm5_bs15_s42_ex16_mel10_mts1000_k50_ec05_g099_lra3e-4_lrc9e-3/2cf69de7cf34ef354308742c6722c88054a527ce_ligand_9.pdbqt
 14 15 0 0 0
SMALL
GASTEIGER

@<TRIPOS>ATOM
      1  C          5.6300    1.8250    1.3630 C.3     1  UNL1        0.0800
      2  C          5.1460    0.6230    2.0710 C.2     1  UNL1        0.1300
      3  C          6.0590   -0.5240    2.2500 C.3     1  UNL1        0.0870
      4  O          4.0150    0.6020    2.4890 O.2     1  UNL1       -0.3000
      5  C          5.4410    1.6930   -0.1340 C.3     1  UNL1        0.0430
      6  C          6.5640    0.9650   -0.7320 C.2     1  UNL1       -0.0440
      7  C          7.8570    1.4150   -0.5610 C.2     1  UNL1        0.0080
      8  C          6.3760   -0.1840   -1.4810 C.2     1  UNL1        0.0540
      9  C          8.9500    0.7530   -1.1130 C.2     1  UNL1        0.0510
     10  C          7.4500   -0.8670   -2.0460 C.2     1  UNL1        0.1660
     11  C          8.7310   -0.3920   -1.8560 C.2     1  UNL1        0.1650
     12  O          7.5670   -2.0180   -2.8260 O.2     1  UNL1       -0.4540
     13  O          9.6010   -1.2480   -2.5160 O.2     1  UNL1       -0.4540
     14  C          8.8620   -2.1270   -3.3590 C.3     1  UNL1        0.4680
@<TRIPOS>BOND
     1    14    12    1
     2    14    13    1
     3    12    10    1
     4    13    11    1
     5    10    11    2
     6    10     8    1
     7    11     9    1
     8     8     6    2
     9     9     7    2
    10     6     7    1
    11     6     5    1
    12     5     1    1
    13     1     2    1
    14     2     3    1
    15     2     4    2
