MODEL 1
REMARK VINA RESULT:      -7.5      0.000      0.000
REMARK SMILES CC(=O)CCc1ccc2c(c1)OCO2
REMARK SMILES IDX 4 1 2 2 1 3 3 4 5 5 6 6 7 7 11 8 8 9 10 10 9 11 12 12 14 13
REMARK SMILES IDX 13 14
REMARK H PARENT
REMARK Flexibility Score: inf
ROOT
ATOM      1  C   UNL     1       5.630   1.825   1.363  1.00  0.00     0.080 C 
ENDROOT
BRANCH   1   2
ATOM      2  C   UNL     1       5.146   0.623   2.071  1.00  0.00     0.130 C 
ATOM      3  C   UNL     1       6.059  -0.524   2.250  1.00  0.00     0.087 C 
ATOM      4  O   UNL     1       4.015   0.602   2.489  1.00  0.00    -0.300 OA
ENDBRANCH   1   2
BRANCH   1   5
ATOM      5  C   UNL     1       5.441   1.693  -0.134  1.00  0.00     0.043 C 
BRANCH   5   6
ATOM      6  C   UNL     1       6.564   0.965  -0.732  1.00  0.00    -0.044 A 
ATOM      7  C   UNL     1       7.857   1.415  -0.561  1.00  0.00     0.008 A 
ATOM      8  C   UNL     1       6.376  -0.184  -1.481  1.00  0.00     0.054 A 
ATOM      9  C   UNL     1       8.950   0.753  -1.113  1.00  0.00     0.051 A 
ATOM     10  C   UNL     1       7.450  -0.867  -2.046  1.00  0.00     0.166 A 
ATOM     11  C   UNL     1       8.731  -0.392  -1.856  1.00  0.00     0.165 A 
ATOM     12  O   UNL     1       7.567  -2.018  -2.826  1.00  0.00    -0.454 OA
ATOM     13  O   UNL     1       9.601  -1.248  -2.516  1.00  0.00    -0.454 OA
ATOM     14  C   UNL     1       8.862  -2.127  -3.359  1.00  0.00     0.468 C 
ENDBRANCH   5   6
ENDBRANCH   1   5
TORSDOF 3
ENDMDL
MODEL 2
REMARK VINA RESULT:      -7.4      1.972      2.423
REMARK SMILES CC(=O)CCc1ccc2c(c1)OCO2
REMARK SMILES IDX 4 1 2 2 1 3 3 4 5 5 6 6 7 7 11 8 8 9 10 10 9 11 12 12 14 13
REMARK SMILES IDX 13 14
REMARK H PARENT
REMARK Flexibility Score: inf
ROOT
ATOM      1  C   UNL     1       5.672   1.104  -0.289  1.00  0.00     0.080 C 
ENDROOT
BRANCH   1   2
ATOM      2  C   UNL     1       5.159   1.160   1.095  1.00  0.00     0.130 C 
ATOM      3  C   UNL     1       5.373   0.005   1.990  1.00  0.00     0.087 C 
ATOM      4  O   UNL     1       4.576   2.149   1.466  1.00  0.00    -0.300 OA
ENDBRANCH   1   2
BRANCH   1   5
ATOM      5  C   UNL     1       7.184   1.028  -0.311  1.00  0.00     0.043 C 
BRANCH   5   6
ATOM      6  C   UNL     1       7.627  -0.266  -0.838  1.00  0.00    -0.044 A 
ATOM      7  C   UNL     1       7.719  -0.469  -2.200  1.00  0.00     0.008 A 
ATOM      8  C   UNL     1       7.964  -1.319  -0.006  1.00  0.00     0.054 A 
ATOM      9  C   UNL     1       8.134  -1.683  -2.741  1.00  0.00     0.051 A 
ATOM     10  C   UNL     1       8.383  -2.545  -0.518  1.00  0.00     0.166 A 
ATOM     11  C   UNL     1       8.464  -2.716  -1.885  1.00  0.00     0.165 A 
ATOM     12  O   UNL     1       8.777  -3.754   0.055  1.00  0.00    -0.454 OA
ATOM     13  O   UNL     1       8.901  -4.012  -2.123  1.00  0.00    -0.454 OA
ATOM     14  C   UNL     1       8.843  -4.766  -0.915  1.00  0.00     0.468 C 
ENDBRANCH   5   6
ENDBRANCH   1   5
TORSDOF 3
ENDMDL
MODEL 3
REMARK VINA RESULT:      -7.2      2.131      2.685
REMARK SMILES CC(=O)CCc1ccc2c(c1)OCO2
REMARK SMILES IDX 4 1 2 2 1 3 3 4 5 5 6 6 7 7 11 8 8 9 10 10 9 11 12 12 14 13
REMARK SMILES IDX 13 14
REMARK H PARENT
REMARK Flexibility Score: inf
ROOT
ATOM      1  C   UNL     1       5.387  -0.085   1.836  1.00  0.00     0.080 C 
ENDROOT
BRANCH   1   2
ATOM      2  C   UNL     1       4.637   1.167   1.614  1.00  0.00     0.130 C 
ATOM      3  C   UNL     1       5.072   2.089   0.545  1.00  0.00     0.087 C 
ATOM      4  O   UNL     1       3.683   1.413   2.311  1.00  0.00    -0.300 OA
ENDBRANCH   1   2
BRANCH   1   5
ATOM      5  C   UNL     1       6.867   0.109   1.580  1.00  0.00     0.043 C 
BRANCH   5   6
ATOM      6  C   UNL     1       7.346  -0.849   0.579  1.00  0.00    -0.044 A 
ATOM      7  C   UNL     1       7.222  -0.571  -0.767  1.00  0.00     0.008 A 
ATOM      8  C   UNL     1       7.932  -2.050   0.936  1.00  0.00     0.054 A 
ATOM      9  C   UNL     1       7.663  -1.454  -1.749  1.00  0.00     0.051 A 
ATOM     10  C   UNL     1       8.383  -2.953  -0.023  1.00  0.00     0.166 A 
ATOM     11  C   UNL     1       8.244  -2.647  -1.361  1.00  0.00     0.165 A 
ATOM     12  O   UNL     1       8.997  -4.205   0.034  1.00  0.00    -0.454 OA
ATOM     13  O   UNL     1       8.768  -3.703  -2.093  1.00  0.00    -0.454 OA
ATOM     14  C   UNL     1       9.001  -4.814  -1.232  1.00  0.00     0.468 C 
ENDBRANCH   5   6
ENDBRANCH   1   5
TORSDOF 3
ENDMDL
MODEL 4
REMARK VINA RESULT:      -7.0      1.982      2.626
REMARK SMILES CC(=O)CCc1ccc2c(c1)OCO2
REMARK SMILES IDX 4 1 2 2 1 3 3 4 5 5 6 6 7 7 11 8 8 9 10 10 9 11 12 12 14 13
REMARK SMILES IDX 13 14
REMARK H PARENT
REMARK Flexibility Score: inf
ROOT
ATOM      1  C   UNL     1       6.821   0.749   0.813  1.00  0.00     0.080 C 
ENDROOT
BRANCH   1   2
ATOM      2  C   UNL     1       5.490   1.066   1.368  1.00  0.00     0.130 C 
ATOM      3  C   UNL     1       4.693   2.149   0.756  1.00  0.00     0.087 C 
ATOM      4  O   UNL     1       5.081   0.436   2.311  1.00  0.00    -0.300 OA
ENDBRANCH   1   2
BRANCH   1   5
ATOM      5  C   UNL     1       6.772   0.630  -0.696  1.00  0.00     0.043 C 
BRANCH   5   6
ATOM      6  C   UNL     1       7.410  -0.614  -1.136  1.00  0.00    -0.044 A 
ATOM      7  C   UNL     1       7.746  -0.794  -2.461  1.00  0.00     0.008 A 
ATOM      8  C   UNL     1       7.695  -1.642  -0.254  1.00  0.00     0.054 A 
ATOM      9  C   UNL     1       8.352  -1.961  -2.919  1.00  0.00     0.051 A 
ATOM     10  C   UNL     1       8.301  -2.821  -0.683  1.00  0.00     0.166 A 
ATOM     11  C   UNL     1       8.625  -2.970  -2.015  1.00  0.00     0.165 A 
ATOM     12  O   UNL     1       8.699  -3.996  -0.045  1.00  0.00    -0.454 OA
ATOM     13  O   UNL     1       9.208  -4.220  -2.170  1.00  0.00    -0.454 OA
ATOM     14  C   UNL     1       9.017  -4.989  -0.986  1.00  0.00     0.468 C 
ENDBRANCH   5   6
ENDBRANCH   1   5
TORSDOF 3
ENDMDL
MODEL 5
REMARK VINA RESULT:      -6.9      1.227      5.306
REMARK SMILES CC(=O)CCc1ccc2c(c1)OCO2
REMARK SMILES IDX 4 1 2 2 1 3 3 4 5 5 6 6 7 7 11 8 8 9 10 10 9 11 12 12 14 13
REMARK SMILES IDX 13 14
REMARK H PARENT
REMARK Flexibility Score: inf
ROOT
ATOM      1  C   UNL     1       8.425   0.301  -2.599  1.00  0.00     0.080 C 
ENDROOT
BRANCH   1   2
ATOM      2  C   UNL     1       8.528  -1.157  -2.804  1.00  0.00     0.130 C 
ATOM      3  C   UNL     1       7.292  -1.953  -2.951  1.00  0.00     0.087 C 
ATOM      4  O   UNL     1       9.619  -1.669  -2.848  1.00  0.00    -0.300 OA
ENDBRANCH   1   2
BRANCH   1   5
ATOM      5  C   UNL     1       8.935   0.701  -1.230  1.00  0.00     0.043 C 
BRANCH   5   6
ATOM      6  C   UNL     1       7.881   0.544  -0.223  1.00  0.00    -0.044 A 
ATOM      7  C   UNL     1       7.910  -0.520   0.655  1.00  0.00     0.008 A 
ATOM      8  C   UNL     1       6.833   1.440  -0.114  1.00  0.00     0.054 A 
ATOM      9  C   UNL     1       6.928  -0.706   1.625  1.00  0.00     0.051 A 
ATOM     10  C   UNL     1       5.837   1.281   0.847  1.00  0.00     0.166 A 
ATOM     11  C   UNL     1       5.894   0.207   1.710  1.00  0.00     0.165 A 
ATOM     12  O   UNL     1       4.692   2.001   1.187  1.00  0.00    -0.454 OA
ATOM     13  O   UNL     1       4.795   0.285   2.554  1.00  0.00    -0.454 OA
ATOM     14  C   UNL     1       3.881   1.260   2.062  1.00  0.00     0.468 C 
ENDBRANCH   5   6
ENDBRANCH   1   5
TORSDOF 3
ENDMDL
