@<TRIPOS>MOLECULE
/home/cewinharhar/GITHUB/reincatalyze/data/processed/docking_pred/2023-May-31-1603_sub9_nm5_bs15_s42_ex16_mel10_mts1000_k50_ec05_g099_lra3e-4_lrc9e-3/2f41e52dfc6618f39d2325611a45b0a1c53476a0_ligand_9.pdbqt
 14 15 0 0 0
SMALL
GASTEIGER

@<TRIPOS>ATOM
      1  C          5.6700    1.8200    1.3080 C.3     1  UNL1        0.0800
      2  C          5.1770    0.6380    2.0440 C.2     1  UNL1        0.1300
      3  C          6.0880   -0.5020    2.2700 C.3     1  UNL1        0.0870
      4  O          4.0400    0.6280    2.4450 O.2     1  UNL1       -0.3000
      5  C          5.4830    1.6540   -0.1860 C.3     1  UNL1        0.0430
      6  C          6.6130    0.9240   -0.7680 C.2     1  UNL1       -0.0440
      7  C          7.8990    1.4040   -0.6290 C.2     1  UNL1        0.0080
      8  C          6.4400   -0.2560   -1.4700 C.2     1  UNL1        0.0540
      9  C          8.9990    0.7420   -1.1680 C.2     1  UNL1        0.0510
     10  C          7.5210   -0.9410   -2.0200 C.2     1  UNL1        0.1660
     11  C          8.7940   -0.4340   -1.8630 C.2     1  UNL1        0.1650
     12  O          7.6510   -2.1180   -2.7570 O.2     1  UNL1       -0.4540
     13  O          9.6730   -1.2990   -2.4990 O.2     1  UNL1       -0.4540
     14  C          8.9420   -2.2230   -3.3000 C.3     1  UNL1        0.4680
@<TRIPOS>BOND
     1    14    12    1
     2    14    13    1
     3    12    10    1
     4    13    11    1
     5    10    11    2
     6    10     8    1
     7    11     9    1
     8     8     6    2
     9     9     7    2
    10     6     7    1
    11     6     5    1
    12     5     1    1
    13     1     2    1
    14     2     3    1
    15     2     4    2
