@<TRIPOS>MOLECULE
/home/cewinharhar/GITHUB/reincatalyze/data/processed/docking_pred/2023-May-31-1603_sub9_nm5_bs15_s42_ex16_mel10_mts1000_k50_ec05_g099_lra3e-4_lrc9e-3/306d1dfeb5e1085b4f3e24b09348dc81ae645662_ligand_9.pdbqt
 14 15 0 0 0
SMALL
GASTEIGER

@<TRIPOS>ATOM
      1  C          5.3740   -0.0200    1.9730 C.3     1  UNL1        0.0800
      2  C          4.5240    1.1700    1.7680 C.2     1  UNL1        0.1300
      3  C          4.8830    2.1380    0.7120 C.3     1  UNL1        0.0870
      4  O          3.5540    1.3260    2.4670 O.2     1  UNL1       -0.3000
      5  C          6.8110    0.2570    1.5810 C.3     1  UNL1        0.0430
      6  C          7.2670   -0.7120    0.5800 C.2     1  UNL1       -0.0440
      7  C          7.0930   -0.4590   -0.7650 C.2     1  UNL1        0.0080
      8  C          7.8800   -1.9000    0.9370 C.2     1  UNL1        0.0540
      9  C          7.5120   -1.3530   -1.7470 C.2     1  UNL1        0.0510
     10  C          8.3100   -2.8140   -0.0220 C.2     1  UNL1        0.1660
     11  C          8.1210   -2.5320   -1.3590 C.2     1  UNL1        0.1650
     12  O          8.9400   -4.0570    0.0340 O.2     1  UNL1       -0.4540
     13  O          8.6330   -3.5930   -2.0910 O.2     1  UNL1       -0.4540
     14  C          8.9090   -4.6870   -1.2200 C.3     1  UNL1        0.4680
@<TRIPOS>BOND
     1    13    11    1
     2    13    14    1
     3     9    11    2
     4     9     7    1
     5    11    10    1
     6    14    12    1
     7     7     6    2
     8    10    12    1
     9    10     8    2
    10     6     8    1
    11     6     5    1
    12     3     2    1
    13     5     1    1
    14     2     1    1
    15     2     4    2
