MODEL 1
REMARK VINA RESULT:      -7.4      0.000      0.000
REMARK SMILES CC(=O)CCc1ccc2c(c1)OCO2
REMARK SMILES IDX 4 1 2 2 1 3 3 4 5 5 6 6 7 7 11 8 8 9 10 10 9 11 12 12 14 13
REMARK SMILES IDX 13 14
REMARK H PARENT
REMARK Flexibility Score: inf
ROOT
ATOM      1  C   UNL     1       5.689   1.781   1.415  1.00  0.00     0.080 C 
ENDROOT
BRANCH   1   2
ATOM      2  C   UNL     1       5.175   0.569   2.085  1.00  0.00     0.130 C 
ATOM      3  C   UNL     1       6.057  -0.606   2.226  1.00  0.00     0.087 C 
ATOM      4  O   UNL     1       4.044   0.565   2.504  1.00  0.00    -0.300 OA
ENDBRANCH   1   2
BRANCH   1   5
ATOM      5  C   UNL     1       5.501   1.700  -0.085  1.00  0.00     0.043 C 
BRANCH   5   6
ATOM      6  C   UNL     1       6.609   0.967  -0.704  1.00  0.00    -0.044 A 
ATOM      7  C   UNL     1       7.907   1.414  -0.561  1.00  0.00     0.008 A 
ATOM      8  C   UNL     1       6.403  -0.183  -1.446  1.00  0.00     0.054 A 
ATOM      9  C   UNL     1       8.987   0.748  -1.134  1.00  0.00     0.051 A 
ATOM     10  C   UNL     1       7.464  -0.871  -2.030  1.00  0.00     0.166 A 
ATOM     11  C   UNL     1       8.750  -0.399  -1.868  1.00  0.00     0.165 A 
ATOM     12  O   UNL     1       7.562  -2.024  -2.809  1.00  0.00    -0.454 OA
ATOM     13  O   UNL     1       9.604  -1.259  -2.543  1.00  0.00    -0.454 OA
ATOM     14  C   UNL     1       8.845  -2.138  -3.368  1.00  0.00     0.468 C 
ENDBRANCH   5   6
ENDBRANCH   1   5
TORSDOF 3
ENDMDL
MODEL 2
REMARK VINA RESULT:      -7.3      1.821      2.242
REMARK SMILES CC(=O)CCc1ccc2c(c1)OCO2
REMARK SMILES IDX 4 1 2 2 1 3 3 4 5 5 6 6 7 7 11 8 8 9 10 10 9 11 12 12 14 13
REMARK SMILES IDX 13 14
REMARK H PARENT
REMARK Flexibility Score: inf
ROOT
ATOM      1  C   UNL     1       5.625   1.292  -0.260  1.00  0.00     0.080 C 
ENDROOT
BRANCH   1   2
ATOM      2  C   UNL     1       5.048   1.241   1.099  1.00  0.00     0.130 C 
ATOM      3  C   UNL     1       5.367   0.095   1.975  1.00  0.00     0.087 C 
ATOM      4  O   UNL     1       4.327   2.136   1.465  1.00  0.00    -0.300 OA
ENDBRANCH   1   2
BRANCH   1   5
ATOM      5  C   UNL     1       7.135   1.181  -0.219  1.00  0.00     0.043 C 
BRANCH   5   6
ATOM      6  C   UNL     1       7.576  -0.076  -0.829  1.00  0.00    -0.044 A 
ATOM      7  C   UNL     1       7.653  -0.196  -2.201  1.00  0.00     0.008 A 
ATOM      8  C   UNL     1       7.926  -1.177  -0.067  1.00  0.00     0.054 A 
ATOM      9  C   UNL     1       8.065  -1.372  -2.820  1.00  0.00     0.051 A 
ATOM     10  C   UNL     1       8.343  -2.368  -0.657  1.00  0.00     0.166 A 
ATOM     11  C   UNL     1       8.409  -2.455  -2.032  1.00  0.00     0.165 A 
ATOM     12  O   UNL     1       8.748  -3.607  -0.163  1.00  0.00    -0.454 OA
ATOM     13  O   UNL     1       8.848  -3.732  -2.354  1.00  0.00    -0.454 OA
ATOM     14  C   UNL     1       8.807  -4.559  -1.194  1.00  0.00     0.468 C 
ENDBRANCH   5   6
ENDBRANCH   1   5
TORSDOF 3
ENDMDL
MODEL 3
REMARK VINA RESULT:      -7.3      2.048      2.613
REMARK SMILES CC(=O)CCc1ccc2c(c1)OCO2
REMARK SMILES IDX 4 1 2 2 1 3 3 4 5 5 6 6 7 7 11 8 8 9 10 10 9 11 12 12 14 13
REMARK SMILES IDX 13 14
REMARK H PARENT
REMARK Flexibility Score: inf
ROOT
ATOM      1  C   UNL     1       5.374  -0.020   1.973  1.00  0.00     0.080 C 
ENDROOT
BRANCH   1   2
ATOM      2  C   UNL     1       4.524   1.170   1.768  1.00  0.00     0.130 C 
ATOM      3  C   UNL     1       4.883   2.138   0.712  1.00  0.00     0.087 C 
ATOM      4  O   UNL     1       3.554   1.326   2.467  1.00  0.00    -0.300 OA
ENDBRANCH   1   2
BRANCH   1   5
ATOM      5  C   UNL     1       6.811   0.257   1.581  1.00  0.00     0.043 C 
BRANCH   5   6
ATOM      6  C   UNL     1       7.267  -0.712   0.580  1.00  0.00    -0.044 A 
ATOM      7  C   UNL     1       7.093  -0.459  -0.765  1.00  0.00     0.008 A 
ATOM      8  C   UNL     1       7.880  -1.900   0.937  1.00  0.00     0.054 A 
ATOM      9  C   UNL     1       7.512  -1.353  -1.747  1.00  0.00     0.051 A 
ATOM     10  C   UNL     1       8.310  -2.814  -0.022  1.00  0.00     0.166 A 
ATOM     11  C   UNL     1       8.121  -2.532  -1.359  1.00  0.00     0.165 A 
ATOM     12  O   UNL     1       8.940  -4.057   0.034  1.00  0.00    -0.454 OA
ATOM     13  O   UNL     1       8.633  -3.593  -2.091  1.00  0.00    -0.454 OA
ATOM     14  C   UNL     1       8.909  -4.687  -1.220  1.00  0.00     0.468 C 
ENDBRANCH   5   6
ENDBRANCH   1   5
TORSDOF 3
ENDMDL
MODEL 4
REMARK VINA RESULT:      -7.1      1.212      1.379
REMARK SMILES CC(=O)CCc1ccc2c(c1)OCO2
REMARK SMILES IDX 4 1 2 2 1 3 3 4 5 5 6 6 7 7 11 8 8 9 10 10 9 11 12 12 14 13
REMARK SMILES IDX 13 14
REMARK H PARENT
REMARK Flexibility Score: inf
ROOT
ATOM      1  C   UNL     1       6.259   1.308   0.936  1.00  0.00     0.080 C 
ENDROOT
BRANCH   1   2
ATOM      2  C   UNL     1       5.578   0.472   1.945  1.00  0.00     0.130 C 
ATOM      3  C   UNL     1       6.279  -0.704   2.499  1.00  0.00     0.087 C 
ATOM      4  O   UNL     1       4.463   0.767   2.297  1.00  0.00    -0.300 OA
ENDBRANCH   1   2
BRANCH   1   5
ATOM      5  C   UNL     1       5.759   0.999  -0.460  1.00  0.00     0.043 C 
BRANCH   5   6
ATOM      6  C   UNL     1       6.710   0.138  -1.169  1.00  0.00    -0.044 A 
ATOM      7  C   UNL     1       7.370   0.603  -2.288  1.00  0.00     0.008 A 
ATOM      8  C   UNL     1       6.979  -1.154  -0.753  1.00  0.00     0.054 A 
ATOM      9  C   UNL     1       8.280  -0.183  -2.990  1.00  0.00     0.051 A 
ATOM     10  C   UNL     1       7.884  -1.963  -1.435  1.00  0.00     0.166 A 
ATOM     11  C   UNL     1       8.528  -1.470  -2.550  1.00  0.00     0.165 A 
ATOM     12  O   UNL     1       8.346  -3.268  -1.258  1.00  0.00    -0.454 OA
ATOM     13  O   UNL     1       9.363  -2.467  -3.032  1.00  0.00    -0.454 OA
ATOM     14  C   UNL     1       9.058  -3.701  -2.388  1.00  0.00     0.468 C 
ENDBRANCH   5   6
ENDBRANCH   1   5
TORSDOF 3
ENDMDL
MODEL 5
REMARK VINA RESULT:      -7.0      1.989      2.554
REMARK SMILES CC(=O)CCc1ccc2c(c1)OCO2
REMARK SMILES IDX 4 1 2 2 1 3 3 4 5 5 6 6 7 7 11 8 8 9 10 10 9 11 12 12 14 13
REMARK SMILES IDX 13 14
REMARK H PARENT
REMARK Flexibility Score: inf
ROOT
ATOM      1  C   UNL     1       6.825   0.844   1.160  1.00  0.00     0.080 C 
ENDROOT
BRANCH   1   2
ATOM      2  C   UNL     1       5.410   1.116   1.484  1.00  0.00     0.130 C 
ATOM      3  C   UNL     1       4.682   2.150   0.721  1.00  0.00     0.087 C 
ATOM      4  O   UNL     1       4.878   0.488   2.366  1.00  0.00    -0.300 OA
ENDBRANCH   1   2
BRANCH   1   5
ATOM      5  C   UNL     1       7.071   0.921  -0.332  1.00  0.00     0.043 C 
BRANCH   5   6
ATOM      6  C   UNL     1       7.544  -0.369  -0.843  1.00  0.00    -0.044 A 
ATOM      7  C   UNL     1       7.638  -0.588  -2.202  1.00  0.00     0.008 A 
ATOM      8  C   UNL     1       7.909  -1.402   0.002  1.00  0.00     0.054 A 
ATOM      9  C   UNL     1       8.081  -1.799  -2.727  1.00  0.00     0.051 A 
ATOM     10  C   UNL     1       8.357  -2.624  -0.494  1.00  0.00     0.166 A 
ATOM     11  C   UNL     1       8.439  -2.812  -1.858  1.00  0.00     0.165 A 
ATOM     12  O   UNL     1       8.782  -3.814   0.095  1.00  0.00    -0.454 OA
ATOM     13  O   UNL     1       8.907  -4.099  -2.080  1.00  0.00    -0.454 OA
ATOM     14  C   UNL     1       8.871  -4.839  -0.862  1.00  0.00     0.468 C 
ENDBRANCH   5   6
ENDBRANCH   1   5
TORSDOF 3
ENDMDL
