MODEL 1
REMARK VINA RESULT:      -7.6      0.000      0.000
REMARK SMILES CC(=O)CCc1ccc2c(c1)OCO2
REMARK SMILES IDX 4 1 2 2 1 3 3 4 5 5 6 6 7 7 11 8 8 9 10 10 9 11 12 12 14 13
REMARK SMILES IDX 13 14
REMARK H PARENT
REMARK Flexibility Score: inf
ROOT
ATOM      1  C   UNL     1       5.564   1.893   1.296  1.00  0.00     0.080 C 
ENDROOT
BRANCH   1   2
ATOM      2  C   UNL     1       5.111   0.692   2.026  1.00  0.00     0.130 C 
ATOM      3  C   UNL     1       6.043  -0.441   2.198  1.00  0.00     0.087 C 
ATOM      4  O   UNL     1       3.989   0.661   2.468  1.00  0.00    -0.300 OA
ENDBRANCH   1   2
BRANCH   1   5
ATOM      5  C   UNL     1       5.390   1.724  -0.199  1.00  0.00     0.043 C 
BRANCH   5   6
ATOM      6  C   UNL     1       6.525   0.993  -0.770  1.00  0.00    -0.044 A 
ATOM      7  C   UNL     1       7.815   1.437  -0.561  1.00  0.00     0.008 A 
ATOM      8  C   UNL     1       6.353  -0.150  -1.530  1.00  0.00     0.054 A 
ATOM      9  C   UNL     1       8.920   0.772  -1.087  1.00  0.00     0.051 A 
ATOM     10  C   UNL     1       7.439  -0.836  -2.069  1.00  0.00     0.166 A 
ATOM     11  C   UNL     1       8.716  -0.367  -1.842  1.00  0.00     0.165 A 
ATOM     12  O   UNL     1       7.572  -1.982  -2.852  1.00  0.00    -0.454 OA
ATOM     13  O   UNL     1       9.600  -1.224  -2.482  1.00  0.00    -0.454 OA
ATOM     14  C   UNL     1       8.880  -2.095  -3.350  1.00  0.00     0.468 C 
ENDBRANCH   5   6
ENDBRANCH   1   5
TORSDOF 3
ENDMDL
MODEL 2
REMARK VINA RESULT:      -7.4      2.081      2.659
REMARK SMILES CC(=O)CCc1ccc2c(c1)OCO2
REMARK SMILES IDX 4 1 2 2 1 3 3 4 5 5 6 6 7 7 11 8 8 9 10 10 9 11 12 12 14 13
REMARK SMILES IDX 13 14
REMARK H PARENT
REMARK Flexibility Score: inf
ROOT
ATOM      1  C   UNL     1       5.363  -0.032   1.988  1.00  0.00     0.080 C 
ENDROOT
BRANCH   1   2
ATOM      2  C   UNL     1       4.528   1.165   1.767  1.00  0.00     0.130 C 
ATOM      3  C   UNL     1       4.908   2.123   0.710  1.00  0.00     0.087 C 
ATOM      4  O   UNL     1       3.552   1.336   2.455  1.00  0.00    -0.300 OA
ENDBRANCH   1   2
BRANCH   1   5
ATOM      5  C   UNL     1       6.808   0.230   1.618  1.00  0.00     0.043 C 
BRANCH   5   6
ATOM      6  C   UNL     1       7.266  -0.736   0.615  1.00  0.00    -0.044 A 
ATOM      7  C   UNL     1       7.086  -0.483  -0.729  1.00  0.00     0.008 A 
ATOM      8  C   UNL     1       7.887  -1.921   0.969  1.00  0.00     0.054 A 
ATOM      9  C   UNL     1       7.505  -1.374  -1.713  1.00  0.00     0.051 A 
ATOM     10  C   UNL     1       8.318  -2.832   0.008  1.00  0.00     0.166 A 
ATOM     11  C   UNL     1       8.122  -2.550  -1.328  1.00  0.00     0.165 A 
ATOM     12  O   UNL     1       8.955  -4.071   0.061  1.00  0.00    -0.454 OA
ATOM     13  O   UNL     1       8.637  -3.608  -2.063  1.00  0.00    -0.454 OA
ATOM     14  C   UNL     1       8.923  -4.701  -1.194  1.00  0.00     0.468 C 
ENDBRANCH   5   6
ENDBRANCH   1   5
TORSDOF 3
ENDMDL
MODEL 3
REMARK VINA RESULT:      -7.3      1.800      2.282
REMARK SMILES CC(=O)CCc1ccc2c(c1)OCO2
REMARK SMILES IDX 4 1 2 2 1 3 3 4 5 5 6 6 7 7 11 8 8 9 10 10 9 11 12 12 14 13
REMARK SMILES IDX 13 14
REMARK H PARENT
REMARK Flexibility Score: inf
ROOT
ATOM      1  C   UNL     1       6.555   1.278   0.401  1.00  0.00     0.080 C 
ENDROOT
BRANCH   1   2
ATOM      2  C   UNL     1       5.382   1.161   1.289  1.00  0.00     0.130 C 
ATOM      3  C   UNL     1       5.235  -0.041   2.134  1.00  0.00     0.087 C 
ATOM      4  O   UNL     1       4.566   2.050   1.306  1.00  0.00    -0.300 OA
ENDBRANCH   1   2
BRANCH   1   5
ATOM      5  C   UNL     1       6.218   0.856  -1.014  1.00  0.00     0.043 C 
BRANCH   5   6
ATOM      6  C   UNL     1       6.983  -0.336  -1.392  1.00  0.00    -0.044 A 
ATOM      7  C   UNL     1       7.368  -0.529  -2.703  1.00  0.00     0.008 A 
ATOM      8  C   UNL     1       7.343  -1.299  -0.466  1.00  0.00     0.054 A 
ATOM      9  C   UNL     1       8.095  -1.648  -3.103  1.00  0.00     0.051 A 
ATOM     10  C   UNL     1       8.070  -2.428  -0.837  1.00  0.00     0.166 A 
ATOM     11  C   UNL     1       8.441  -2.593  -2.155  1.00  0.00     0.165 A 
ATOM     12  O   UNL     1       8.563  -3.535  -0.147  1.00  0.00    -0.454 OA
ATOM     13  O   UNL     1       9.146  -3.784  -2.251  1.00  0.00    -0.454 OA
ATOM     14  C   UNL     1       8.999  -4.525  -1.043  1.00  0.00     0.468 C 
ENDBRANCH   5   6
ENDBRANCH   1   5
TORSDOF 3
ENDMDL
MODEL 4
REMARK VINA RESULT:      -7.2      1.996      2.576
REMARK SMILES CC(=O)CCc1ccc2c(c1)OCO2
REMARK SMILES IDX 4 1 2 2 1 3 3 4 5 5 6 6 7 7 11 8 8 9 10 10 9 11 12 12 14 13
REMARK SMILES IDX 13 14
REMARK H PARENT
REMARK Flexibility Score: inf
ROOT
ATOM      1  C   UNL     1       6.712   0.701   1.159  1.00  0.00     0.080 C 
ENDROOT
BRANCH   1   2
ATOM      2  C   UNL     1       5.315   1.126   1.377  1.00  0.00     0.130 C 
ATOM      3  C   UNL     1       4.718   2.131   0.474  1.00  0.00     0.087 C 
ATOM      4  O   UNL     1       4.688   0.644   2.288  1.00  0.00    -0.300 OA
ENDBRANCH   1   2
BRANCH   1   5
ATOM      5  C   UNL     1       7.116   0.866  -0.291  1.00  0.00     0.043 C 
BRANCH   5   6
ATOM      6  C   UNL     1       7.595  -0.406  -0.840  1.00  0.00    -0.044 A 
ATOM      7  C   UNL     1       7.734  -0.568  -2.203  1.00  0.00     0.008 A 
ATOM      8  C   UNL     1       7.920  -1.478  -0.028  1.00  0.00     0.054 A 
ATOM      9  C   UNL     1       8.184  -1.760  -2.765  1.00  0.00     0.051 A 
ATOM     10  C   UNL     1       8.373  -2.683  -0.561  1.00  0.00     0.166 A 
ATOM     11  C   UNL     1       8.501  -2.813  -1.928  1.00  0.00     0.165 A 
ATOM     12  O   UNL     1       8.766  -3.902  -0.010  1.00  0.00    -0.454 OA
ATOM     13  O   UNL     1       8.964  -4.095  -2.189  1.00  0.00    -0.454 OA
ATOM     14  C   UNL     1       8.879  -4.885  -1.006  1.00  0.00     0.468 C 
ENDBRANCH   5   6
ENDBRANCH   1   5
TORSDOF 3
ENDMDL
MODEL 5
REMARK VINA RESULT:      -7.1      1.226      1.385
REMARK SMILES CC(=O)CCc1ccc2c(c1)OCO2
REMARK SMILES IDX 4 1 2 2 1 3 3 4 5 5 6 6 7 7 11 8 8 9 10 10 9 11 12 12 14 13
REMARK SMILES IDX 13 14
REMARK H PARENT
REMARK Flexibility Score: inf
ROOT
ATOM      1  C   UNL     1       6.246   1.312   0.940  1.00  0.00     0.080 C 
ENDROOT
BRANCH   1   2
ATOM      2  C   UNL     1       5.576   0.472   1.953  1.00  0.00     0.130 C 
ATOM      3  C   UNL     1       6.281  -0.710   2.489  1.00  0.00     0.087 C 
ATOM      4  O   UNL     1       4.467   0.768   2.322  1.00  0.00    -0.300 OA
ENDBRANCH   1   2
BRANCH   1   5
ATOM      5  C   UNL     1       5.742   0.998  -0.454  1.00  0.00     0.043 C 
BRANCH   5   6
ATOM      6  C   UNL     1       6.702   0.154  -1.171  1.00  0.00    -0.044 A 
ATOM      7  C   UNL     1       7.373   0.643  -2.273  1.00  0.00     0.008 A 
ATOM      8  C   UNL     1       6.969  -1.146  -0.779  1.00  0.00     0.054 A 
ATOM      9  C   UNL     1       8.291  -0.127  -2.982  1.00  0.00     0.051 A 
ATOM     10  C   UNL     1       7.883  -1.940  -1.468  1.00  0.00     0.166 A 
ATOM     11  C   UNL     1       8.537  -1.422  -2.566  1.00  0.00     0.165 A 
ATOM     12  O   UNL     1       8.345  -3.247  -1.313  1.00  0.00    -0.454 OA
ATOM     13  O   UNL     1       9.379  -2.408  -3.060  1.00  0.00    -0.454 OA
ATOM     14  C   UNL     1       9.069  -3.656  -2.444  1.00  0.00     0.468 C 
ENDBRANCH   5   6
ENDBRANCH   1   5
TORSDOF 3
ENDMDL
