@<TRIPOS>MOLECULE
/home/cewinharhar/GITHUB/reincatalyze/data/processed/docking_pred/2023-May-31-1603_sub9_nm5_bs15_s42_ex16_mel10_mts1000_k50_ec05_g099_lra3e-4_lrc9e-3/31018d4d3337f577513d0037205f1d699057d88b_ligand_9.pdbqt
 14 15 0 0 0
SMALL
GASTEIGER

@<TRIPOS>ATOM
      1  C          5.5640    1.8930    1.2960 C.3     1  UNL1        0.0800
      2  C          5.1110    0.6920    2.0260 C.2     1  UNL1        0.1300
      3  C          6.0430   -0.4410    2.1980 C.3     1  UNL1        0.0870
      4  O          3.9890    0.6610    2.4680 O.2     1  UNL1       -0.3000
      5  C          5.3900    1.7240   -0.1990 C.3     1  UNL1        0.0430
      6  C          6.5250    0.9930   -0.7700 C.2     1  UNL1       -0.0440
      7  C          7.8150    1.4370   -0.5610 C.2     1  UNL1        0.0080
      8  C          6.3530   -0.1500   -1.5300 C.2     1  UNL1        0.0540
      9  C          8.9200    0.7720   -1.0870 C.2     1  UNL1        0.0510
     10  C          7.4390   -0.8360   -2.0690 C.2     1  UNL1        0.1660
     11  C          8.7160   -0.3670   -1.8420 C.2     1  UNL1        0.1650
     12  O          7.5720   -1.9820   -2.8520 O.2     1  UNL1       -0.4540
     13  O          9.6000   -1.2240   -2.4820 O.2     1  UNL1       -0.4540
     14  C          8.8800   -2.0950   -3.3500 C.3     1  UNL1        0.4680
@<TRIPOS>BOND
     1    14    12    1
     2    14    13    1
     3    12    10    1
     4    13    11    1
     5    10    11    2
     6    10     8    1
     7    11     9    1
     8     8     6    2
     9     9     7    2
    10     6     7    1
    11     6     5    1
    12     5     1    1
    13     1     2    1
    14     2     3    1
    15     2     4    2
