MODEL 1
REMARK VINA RESULT:      -7.1      0.000      0.000
REMARK SMILES CC(=O)CCc1ccc2c(c1)OCO2
REMARK SMILES IDX 4 1 2 2 1 3 3 4 5 5 6 6 7 7 11 8 8 9 10 10 9 11 12 12 14 13
REMARK SMILES IDX 13 14
REMARK H PARENT
REMARK Flexibility Score: inf
ROOT
ATOM      1  C   UNL     1       9.741   1.313   2.616  1.00  0.00     0.080 C 
ENDROOT
BRANCH   1   2
ATOM      2  C   UNL     1      11.175   0.960   2.657  1.00  0.00     0.130 C 
ATOM      3  C   UNL     1      12.079   1.722   3.541  1.00  0.00     0.087 C 
ATOM      4  O   UNL     1      11.578   0.057   1.966  1.00  0.00    -0.300 OA
ENDBRANCH   1   2
BRANCH   1   5
ATOM      5  C   UNL     1       9.394   2.055   1.342  1.00  0.00     0.043 C 
BRANCH   5   6
ATOM      6  C   UNL     1       8.664   1.180   0.419  1.00  0.00    -0.044 A 
ATOM      7  C   UNL     1       7.302   1.008   0.554  1.00  0.00     0.008 A 
ATOM      8  C   UNL     1       9.301   0.503  -0.606  1.00  0.00     0.054 A 
ATOM      9  C   UNL     1       6.573   0.186  -0.301  1.00  0.00     0.051 A 
ATOM     10  C   UNL     1       8.598  -0.325  -1.477  1.00  0.00     0.166 A 
ATOM     11  C   UNL     1       7.236  -0.477  -1.316  1.00  0.00     0.165 A 
ATOM     12  O   UNL     1       8.956  -1.113  -2.571  1.00  0.00    -0.454 OA
ATOM     13  O   UNL     1       6.789  -1.345  -2.302  1.00  0.00    -0.454 OA
ATOM     14  C   UNL     1       7.903  -1.967  -2.935  1.00  0.00     0.468 C 
ENDBRANCH   5   6
ENDBRANCH   1   5
TORSDOF 3
ENDMDL
MODEL 2
REMARK VINA RESULT:      -7.1      2.777      5.470
REMARK SMILES CC(=O)CCc1ccc2c(c1)OCO2
REMARK SMILES IDX 4 1 2 2 1 3 3 4 5 5 6 6 7 7 11 8 8 9 10 10 9 11 12 12 14 13
REMARK SMILES IDX 13 14
REMARK H PARENT
REMARK Flexibility Score: inf
ROOT
ATOM      1  C   UNL     1       5.940   0.077   1.651  1.00  0.00     0.080 C 
ENDROOT
BRANCH   1   2
ATOM      2  C   UNL     1       4.912   1.122   1.478  1.00  0.00     0.130 C 
ATOM      3  C   UNL     1       5.041   2.085   0.366  1.00  0.00     0.087 C 
ATOM      4  O   UNL     1       3.986   1.168   2.250  1.00  0.00    -0.300 OA
ENDBRANCH   1   2
BRANCH   1   5
ATOM      5  C   UNL     1       7.076   0.257   0.664  1.00  0.00     0.043 C 
BRANCH   5   6
ATOM      6  C   UNL     1       8.319   0.592   1.366  1.00  0.00    -0.044 A 
ATOM      7  C   UNL     1       8.372   1.687   2.204  1.00  0.00     0.008 A 
ATOM      8  C   UNL     1       9.470  -0.161   1.218  1.00  0.00     0.054 A 
ATOM      9  C   UNL     1       9.532   2.040   2.887  1.00  0.00     0.051 A 
ATOM     10  C   UNL     1      10.645   0.167   1.888  1.00  0.00     0.166 A 
ATOM     11  C   UNL     1      10.666   1.268   2.719  1.00  0.00     0.165 A 
ATOM     12  O   UNL     1      11.924  -0.388   1.936  1.00  0.00    -0.454 OA
ATOM     13  O   UNL     1      11.942   1.369   3.255  1.00  0.00    -0.454 OA
ATOM     14  C   UNL     1      12.824   0.490   2.561  1.00  0.00     0.468 C 
ENDBRANCH   5   6
ENDBRANCH   1   5
TORSDOF 3
ENDMDL
MODEL 3
REMARK VINA RESULT:      -7.0      2.719      3.972
REMARK SMILES CC(=O)CCc1ccc2c(c1)OCO2
REMARK SMILES IDX 4 1 2 2 1 3 3 4 5 5 6 6 7 7 11 8 8 9 10 10 9 11 12 12 14 13
REMARK SMILES IDX 13 14
REMARK H PARENT
REMARK Flexibility Score: inf
ROOT
ATOM      1  C   UNL     1       5.525   1.897   1.340  1.00  0.00     0.080 C 
ENDROOT
BRANCH   1   2
ATOM      2  C   UNL     1       5.023   0.695   2.035  1.00  0.00     0.130 C 
ATOM      3  C   UNL     1       5.900  -0.487   2.155  1.00  0.00     0.087 C 
ATOM      4  O   UNL     1       3.906   0.703   2.491  1.00  0.00    -0.300 OA
ENDBRANCH   1   2
BRANCH   1   5
ATOM      5  C   UNL     1       5.368   1.769  -0.161  1.00  0.00     0.043 C 
BRANCH   5   6
ATOM      6  C   UNL     1       6.497   1.031  -0.735  1.00  0.00    -0.044 A 
ATOM      7  C   UNL     1       7.792   1.433  -0.486  1.00  0.00     0.008 A 
ATOM      8  C   UNL     1       6.311  -0.081  -1.539  1.00  0.00     0.054 A 
ATOM      9  C   UNL     1       8.891   0.759  -1.013  1.00  0.00     0.051 A 
ATOM     10  C   UNL     1       7.391  -0.775  -2.080  1.00  0.00     0.166 A 
ATOM     11  C   UNL     1       8.674  -0.348  -1.812  1.00  0.00     0.165 A 
ATOM     12  O   UNL     1       7.511  -1.896  -2.900  1.00  0.00    -0.454 OA
ATOM     13  O   UNL     1       9.550  -1.204  -2.464  1.00  0.00    -0.454 OA
ATOM     14  C   UNL     1       8.826  -2.025  -3.377  1.00  0.00     0.468 C 
ENDBRANCH   5   6
ENDBRANCH   1   5
TORSDOF 3
ENDMDL
MODEL 4
REMARK VINA RESULT:      -7.0      3.308      4.341
REMARK SMILES CC(=O)CCc1ccc2c(c1)OCO2
REMARK SMILES IDX 4 1 2 2 1 3 3 4 5 5 6 6 7 7 11 8 8 9 10 10 9 11 12 12 14 13
REMARK SMILES IDX 13 14
REMARK H PARENT
REMARK Flexibility Score: inf
ROOT
ATOM      1  C   UNL     1       6.551   1.263   0.403  1.00  0.00     0.080 C 
ENDROOT
BRANCH   1   2
ATOM      2  C   UNL     1       5.364   1.171   1.277  1.00  0.00     0.130 C 
ATOM      3  C   UNL     1       5.177  -0.030   2.116  1.00  0.00     0.087 C 
ATOM      4  O   UNL     1       4.570   2.080   1.287  1.00  0.00    -0.300 OA
ENDBRANCH   1   2
BRANCH   1   5
ATOM      5  C   UNL     1       6.224   0.837  -1.013  1.00  0.00     0.043 C 
BRANCH   5   6
ATOM      6  C   UNL     1       6.990  -0.358  -1.381  1.00  0.00    -0.044 A 
ATOM      7  C   UNL     1       7.383  -0.558  -2.688  1.00  0.00     0.008 A 
ATOM      8  C   UNL     1       7.343  -1.318  -0.449  1.00  0.00     0.054 A 
ATOM      9  C   UNL     1       8.111  -1.679  -3.079  1.00  0.00     0.051 A 
ATOM     10  C   UNL     1       8.070  -2.449  -0.810  1.00  0.00     0.166 A 
ATOM     11  C   UNL     1       8.449  -2.620  -2.125  1.00  0.00     0.165 A 
ATOM     12  O   UNL     1       8.557  -3.554  -0.112  1.00  0.00    -0.454 OA
ATOM     13  O   UNL     1       9.153  -3.813  -2.211  1.00  0.00    -0.454 OA
ATOM     14  C   UNL     1       8.997  -4.549  -1.001  1.00  0.00     0.468 C 
ENDBRANCH   5   6
ENDBRANCH   1   5
TORSDOF 3
ENDMDL
MODEL 5
REMARK VINA RESULT:      -7.0      1.351      5.162
REMARK SMILES CC(=O)CCc1ccc2c(c1)OCO2
REMARK SMILES IDX 4 1 2 2 1 3 3 4 5 5 6 6 7 7 11 8 8 9 10 10 9 11 12 12 14 13
REMARK SMILES IDX 13 14
REMARK H PARENT
REMARK Flexibility Score: inf
ROOT
ATOM      1  C   UNL     1       6.471   0.468  -1.012  1.00  0.00     0.080 C 
ENDROOT
BRANCH   1   2
ATOM      2  C   UNL     1       7.120  -0.406  -2.009  1.00  0.00     0.130 C 
ATOM      3  C   UNL     1       8.249   0.119  -2.803  1.00  0.00     0.087 C 
ATOM      4  O   UNL     1       6.714  -1.533  -2.155  1.00  0.00    -0.300 OA
ENDBRANCH   1   2
BRANCH   1   5
ATOM      5  C   UNL     1       6.536  -0.138   0.375  1.00  0.00     0.043 C 
BRANCH   5   6
ATOM      6  C   UNL     1       7.746   0.303   1.074  1.00  0.00    -0.044 A 
ATOM      7  C   UNL     1       7.732   1.454   1.833  1.00  0.00     0.008 A 
ATOM      8  C   UNL     1       8.933  -0.405   1.001  1.00  0.00     0.054 A 
ATOM      9  C   UNL     1       8.860   1.908   2.511  1.00  0.00     0.051 A 
ATOM     10  C   UNL     1      10.077   0.023   1.669  1.00  0.00     0.166 A 
ATOM     11  C   UNL     1      10.031   1.179   2.420  1.00  0.00     0.165 A 
ATOM     12  O   UNL     1      11.378  -0.467   1.779  1.00  0.00    -0.454 OA
ATOM     13  O   UNL     1      11.289   1.376   2.971  1.00  0.00    -0.454 OA
ATOM     14  C   UNL     1      12.224   0.493   2.358  1.00  0.00     0.468 C 
ENDBRANCH   5   6
ENDBRANCH   1   5
TORSDOF 3
ENDMDL
