@<TRIPOS>MOLECULE
/home/cewinharhar/GITHUB/reincatalyze/data/processed/docking_pred/2023-May-31-1603_sub9_nm5_bs15_s42_ex16_mel10_mts1000_k50_ec05_g099_lra3e-4_lrc9e-3/3109bb1a4c888d48ff6ee722b945383cff227a99_ligand_9.pdbqt
 14 15 0 0 0
SMALL
GASTEIGER

@<TRIPOS>ATOM
      1  C          9.7410    1.3130    2.6160 C.3     1  UNL1        0.0800
      2  C         11.1750    0.9600    2.6570 C.2     1  UNL1        0.1300
      3  C         12.0790    1.7220    3.5410 C.3     1  UNL1        0.0870
      4  O         11.5780    0.0570    1.9660 O.2     1  UNL1       -0.3000
      5  C          9.3940    2.0550    1.3420 C.3     1  UNL1        0.0430
      6  C          8.6640    1.1800    0.4190 C.2     1  UNL1       -0.0440
      7  C          7.3020    1.0080    0.5540 C.2     1  UNL1        0.0080
      8  C          9.3010    0.5030   -0.6060 C.2     1  UNL1        0.0540
      9  C          6.5730    0.1860   -0.3010 C.2     1  UNL1        0.0510
     10  C          8.5980   -0.3250   -1.4770 C.2     1  UNL1        0.1660
     11  C          7.2360   -0.4770   -1.3160 C.2     1  UNL1        0.1650
     12  O          8.9560   -1.1130   -2.5710 O.2     1  UNL1       -0.4540
     13  O          6.7890   -1.3450   -2.3020 O.2     1  UNL1       -0.4540
     14  C          7.9030   -1.9670   -2.9350 C.3     1  UNL1        0.4680
@<TRIPOS>BOND
     1    14    12    1
     2    14    13    1
     3    12    10    1
     4    13    11    1
     5    10    11    2
     6    10     8    1
     7    11     9    1
     8     8     6    2
     9     9     7    2
    10     6     7    1
    11     6     5    1
    12     5     1    1
    13     4     2    2
    14     1     2    1
    15     2     3    1
