@<TRIPOS>MOLECULE
/home/cewinharhar/GITHUB/reincatalyze/data/processed/docking_pred/2023-May-31-1603_sub9_nm5_bs15_s42_ex16_mel10_mts1000_k50_ec05_g099_lra3e-4_lrc9e-3/3109bb1a4c888d48ff6ee722b945383cff227a99_ligand_9.pdbqt
 14 15 0 0 0
SMALL
GASTEIGER

@<TRIPOS>ATOM
      1  C          6.5510    1.2630    0.4030 C.3     1  UNL1        0.0800
      2  C          5.3640    1.1710    1.2770 C.2     1  UNL1        0.1300
      3  C          5.1770   -0.0300    2.1160 C.3     1  UNL1        0.0870
      4  O          4.5700    2.0800    1.2870 O.2     1  UNL1       -0.3000
      5  C          6.2240    0.8370   -1.0130 C.3     1  UNL1        0.0430
      6  C          6.9900   -0.3580   -1.3810 C.2     1  UNL1       -0.0440
      7  C          7.3830   -0.5580   -2.6880 C.2     1  UNL1        0.0080
      8  C          7.3430   -1.3180   -0.4490 C.2     1  UNL1        0.0540
      9  C          8.1110   -1.6790   -3.0790 C.2     1  UNL1        0.0510
     10  C          8.0700   -2.4490   -0.8100 C.2     1  UNL1        0.1660
     11  C          8.4490   -2.6200   -2.1250 C.2     1  UNL1        0.1650
     12  O          8.5570   -3.5540   -0.1120 O.2     1  UNL1       -0.4540
     13  O          9.1530   -3.8130   -2.2110 O.2     1  UNL1       -0.4540
     14  C          8.9970   -4.5490   -1.0010 C.3     1  UNL1        0.4680
@<TRIPOS>BOND
     1     9     7    1
     2     9    11    2
     3     7     6    2
     4    13    11    1
     5    13    14    1
     6    11    10    1
     7     6     5    1
     8     6     8    1
     9     5     1    1
    10    14    12    1
    11    10     8    2
    12    10    12    1
    13     1     2    1
    14     2     4    2
    15     2     3    1
