@<TRIPOS>MOLECULE
/home/cewinharhar/GITHUB/reincatalyze/data/processed/docking_pred/2023-May-31-1603_sub9_nm5_bs15_s42_ex16_mel10_mts1000_k50_ec05_g099_lra3e-4_lrc9e-3/3109bb1a4c888d48ff6ee722b945383cff227a99_ligand_9.pdbqt
 14 15 0 0 0
SMALL
GASTEIGER

@<TRIPOS>ATOM
      1  C          5.5250    1.8970    1.3400 C.3     1  UNL1        0.0800
      2  C          5.0230    0.6950    2.0350 C.2     1  UNL1        0.1300
      3  C          5.9000   -0.4870    2.1550 C.3     1  UNL1        0.0870
      4  O          3.9060    0.7030    2.4910 O.2     1  UNL1       -0.3000
      5  C          5.3680    1.7690   -0.1610 C.3     1  UNL1        0.0430
      6  C          6.4970    1.0310   -0.7350 C.2     1  UNL1       -0.0440
      7  C          7.7920    1.4330   -0.4860 C.2     1  UNL1        0.0080
      8  C          6.3110   -0.0810   -1.5390 C.2     1  UNL1        0.0540
      9  C          8.8910    0.7590   -1.0130 C.2     1  UNL1        0.0510
     10  C          7.3910   -0.7750   -2.0800 C.2     1  UNL1        0.1660
     11  C          8.6740   -0.3480   -1.8120 C.2     1  UNL1        0.1650
     12  O          7.5110   -1.8960   -2.9000 O.2     1  UNL1       -0.4540
     13  O          9.5500   -1.2040   -2.4640 O.2     1  UNL1       -0.4540
     14  C          8.8260   -2.0250   -3.3770 C.3     1  UNL1        0.4680
@<TRIPOS>BOND
     1    14    12    1
     2    14    13    1
     3    12    10    1
     4    13    11    1
     5    10    11    2
     6    10     8    1
     7    11     9    1
     8     8     6    2
     9     9     7    2
    10     6     7    1
    11     6     5    1
    12     5     1    1
    13     1     2    1
    14     2     3    1
    15     2     4    2
