MODEL 1
REMARK VINA RESULT:      -7.1      0.000      0.000
REMARK SMILES CC(=O)CCc1ccc2c(c1)OCO2
REMARK SMILES IDX 4 1 2 2 1 3 3 4 5 5 6 6 7 7 11 8 8 9 10 10 9 11 12 12 14 13
REMARK SMILES IDX 13 14
REMARK H PARENT
REMARK Flexibility Score: inf
ROOT
ATOM      1  C   UNL     1       9.740   1.179   2.653  1.00  0.00     0.080 C 
ENDROOT
BRANCH   1   2
ATOM      2  C   UNL     1      11.196   0.936   2.659  1.00  0.00     0.130 C 
ATOM      3  C   UNL     1      12.061   1.768   3.520  1.00  0.00     0.087 C 
ATOM      4  O   UNL     1      11.650   0.064   1.961  1.00  0.00    -0.300 OA
ENDBRANCH   1   2
BRANCH   1   5
ATOM      5  C   UNL     1       9.320   1.969   1.430  1.00  0.00     0.043 C 
BRANCH   5   6
ATOM      6  C   UNL     1       8.607   1.109   0.481  1.00  0.00    -0.044 A 
ATOM      7  C   UNL     1       7.246   0.922   0.597  1.00  0.00     0.008 A 
ATOM      8  C   UNL     1       9.260   0.459  -0.552  1.00  0.00     0.054 A 
ATOM      9  C   UNL     1       6.532   0.112  -0.283  1.00  0.00     0.051 A 
ATOM     10  C   UNL     1       8.573  -0.356  -1.448  1.00  0.00     0.166 A 
ATOM     11  C   UNL     1       7.212  -0.523  -1.305  1.00  0.00     0.165 A 
ATOM     12  O   UNL     1       8.950  -1.116  -2.555  1.00  0.00    -0.454 OA
ATOM     13  O   UNL     1       6.782  -1.373  -2.314  1.00  0.00    -0.454 OA
ATOM     14  C   UNL     1       7.908  -1.972  -2.948  1.00  0.00     0.468 C 
ENDBRANCH   5   6
ENDBRANCH   1   5
TORSDOF 3
ENDMDL
MODEL 2
REMARK VINA RESULT:      -7.0      3.311      4.353
REMARK SMILES CC(=O)CCc1ccc2c(c1)OCO2
REMARK SMILES IDX 4 1 2 2 1 3 3 4 5 5 6 6 7 7 11 8 8 9 10 10 9 11 12 12 14 13
REMARK SMILES IDX 13 14
REMARK H PARENT
REMARK Flexibility Score: inf
ROOT
ATOM      1  C   UNL     1       6.529   1.310   0.409  1.00  0.00     0.080 C 
ENDROOT
BRANCH   1   2
ATOM      2  C   UNL     1       5.351   1.209   1.294  1.00  0.00     0.130 C 
ATOM      3  C   UNL     1       5.200   0.021   2.160  1.00  0.00     0.087 C 
ATOM      4  O   UNL     1       4.537   2.098   1.293  1.00  0.00    -0.300 OA
ENDBRANCH   1   2
BRANCH   1   5
ATOM      5  C   UNL     1       6.205   0.836  -0.992  1.00  0.00     0.043 C 
BRANCH   5   6
ATOM      6  C   UNL     1       6.962  -0.377  -1.314  1.00  0.00    -0.044 A 
ATOM      7  C   UNL     1       7.341  -0.637  -2.614  1.00  0.00     0.008 A 
ATOM      8  C   UNL     1       7.319  -1.296  -0.343  1.00  0.00     0.054 A 
ATOM      9  C   UNL     1       8.060  -1.778  -2.962  1.00  0.00     0.051 A 
ATOM     10  C   UNL     1       8.038  -2.446  -0.660  1.00  0.00     0.166 A 
ATOM     11  C   UNL     1       8.403  -2.677  -1.970  1.00  0.00     0.165 A 
ATOM     12  O   UNL     1       8.527  -3.521   0.082  1.00  0.00    -0.454 OA
ATOM     13  O   UNL     1       9.100  -3.876  -2.009  1.00  0.00    -0.454 OA
ATOM     14  C   UNL     1       8.953  -4.557  -0.765  1.00  0.00     0.468 C 
ENDBRANCH   5   6
ENDBRANCH   1   5
TORSDOF 3
ENDMDL
MODEL 3
REMARK VINA RESULT:      -7.0      2.759      3.972
REMARK SMILES CC(=O)CCc1ccc2c(c1)OCO2
REMARK SMILES IDX 4 1 2 2 1 3 3 4 5 5 6 6 7 7 11 8 8 9 10 10 9 11 12 12 14 13
REMARK SMILES IDX 13 14
REMARK H PARENT
REMARK Flexibility Score: inf
ROOT
ATOM      1  C   UNL     1       5.527   1.903   1.274  1.00  0.00     0.080 C 
ENDROOT
BRANCH   1   2
ATOM      2  C   UNL     1       5.066   0.719   2.025  1.00  0.00     0.130 C 
ATOM      3  C   UNL     1       5.986  -0.422   2.207  1.00  0.00     0.087 C 
ATOM      4  O   UNL     1       3.947   0.707   2.475  1.00  0.00    -0.300 OA
ENDBRANCH   1   2
BRANCH   1   5
ATOM      5  C   UNL     1       5.359   1.707  -0.219  1.00  0.00     0.043 C 
BRANCH   5   6
ATOM      6  C   UNL     1       6.504   0.981  -0.775  1.00  0.00    -0.044 A 
ATOM      7  C   UNL     1       7.788   1.441  -0.568  1.00  0.00     0.008 A 
ATOM      8  C   UNL     1       6.348  -0.176  -1.518  1.00  0.00     0.054 A 
ATOM      9  C   UNL     1       8.902   0.782  -1.080  1.00  0.00     0.051 A 
ATOM     10  C   UNL     1       7.443  -0.857  -2.043  1.00  0.00     0.166 A 
ATOM     11  C   UNL     1       8.714  -0.371  -1.818  1.00  0.00     0.165 A 
ATOM     12  O   UNL     1       7.592  -2.014  -2.808  1.00  0.00    -0.454 OA
ATOM     13  O   UNL     1       9.610  -1.227  -2.443  1.00  0.00    -0.454 OA
ATOM     14  C   UNL     1       8.903  -2.119  -3.300  1.00  0.00     0.468 C 
ENDBRANCH   5   6
ENDBRANCH   1   5
TORSDOF 3
ENDMDL
MODEL 4
REMARK VINA RESULT:      -6.9      2.702      5.288
REMARK SMILES CC(=O)CCc1ccc2c(c1)OCO2
REMARK SMILES IDX 4 1 2 2 1 3 3 4 5 5 6 6 7 7 11 8 8 9 10 10 9 11 12 12 14 13
REMARK SMILES IDX 13 14
REMARK H PARENT
REMARK Flexibility Score: inf
ROOT
ATOM      1  C   UNL     1       5.736   0.754   0.305  1.00  0.00     0.080 C 
ENDROOT
BRANCH   1   2
ATOM      2  C   UNL     1       5.476   0.162   1.633  1.00  0.00     0.130 C 
ATOM      3  C   UNL     1       6.245  -1.027   2.054  1.00  0.00     0.087 C 
ATOM      4  O   UNL     1       4.641   0.660   2.346  1.00  0.00    -0.300 OA
ENDBRANCH   1   2
BRANCH   1   5
ATOM      5  C   UNL     1       6.467   2.076   0.428  1.00  0.00     0.043 C 
BRANCH   5   6
ATOM      6  C   UNL     1       7.885   1.854   0.727  1.00  0.00    -0.044 A 
ATOM      7  C   UNL     1       8.727   1.336  -0.235  1.00  0.00     0.008 A 
ATOM      8  C   UNL     1       8.427   2.150   1.966  1.00  0.00     0.054 A 
ATOM      9  C   UNL     1      10.079   1.109   0.010  1.00  0.00     0.051 A 
ATOM     10  C   UNL     1       9.775   1.935   2.239  1.00  0.00     0.166 A 
ATOM     11  C   UNL     1      10.591   1.415   1.256  1.00  0.00     0.165 A 
ATOM     12  O   UNL     1      10.582   2.131   3.360  1.00  0.00    -0.454 OA
ATOM     13  O   UNL     1      11.869   1.302   1.785  1.00  0.00    -0.454 OA
ATOM     14  C   UNL     1      11.824   1.496   3.196  1.00  0.00     0.468 C 
ENDBRANCH   5   6
ENDBRANCH   1   5
TORSDOF 3
ENDMDL
MODEL 5
REMARK VINA RESULT:      -6.8      3.067      4.405
REMARK SMILES CC(=O)CCc1ccc2c(c1)OCO2
REMARK SMILES IDX 4 1 2 2 1 3 3 4 5 5 6 6 7 7 11 8 8 9 10 10 9 11 12 12 14 13
REMARK SMILES IDX 13 14
REMARK H PARENT
REMARK Flexibility Score: inf
ROOT
ATOM      1  C   UNL     1       5.514   0.034   1.892  1.00  0.00     0.080 C 
ENDROOT
BRANCH   1   2
ATOM      2  C   UNL     1       4.645   1.193   1.607  1.00  0.00     0.130 C 
ATOM      3  C   UNL     1       5.013   2.119   0.517  1.00  0.00     0.087 C 
ATOM      4  O   UNL     1       3.651   1.359   2.269  1.00  0.00    -0.300 OA
ENDBRANCH   1   2
BRANCH   1   5
ATOM      5  C   UNL     1       6.940   0.296   1.454  1.00  0.00     0.043 C 
BRANCH   5   6
ATOM      6  C   UNL     1       7.375  -0.714   0.486  1.00  0.00    -0.044 A 
ATOM      7  C   UNL     1       7.215  -0.497  -0.867  1.00  0.00     0.008 A 
ATOM      8  C   UNL     1       7.955  -1.907   0.882  1.00  0.00     0.054 A 
ATOM      9  C   UNL     1       7.614  -1.431  -1.819  1.00  0.00     0.051 A 
ATOM     10  C   UNL     1       8.364  -2.860  -0.048  1.00  0.00     0.166 A 
ATOM     11  C   UNL     1       8.190  -2.613  -1.393  1.00  0.00     0.165 A 
ATOM     12  O   UNL     1       8.961  -4.117   0.049  1.00  0.00    -0.454 OA
ATOM     13  O   UNL     1       8.676  -3.709  -2.090  1.00  0.00    -0.454 OA
ATOM     14  C   UNL     1       8.919  -4.783  -1.186  1.00  0.00     0.468 C 
ENDBRANCH   5   6
ENDBRANCH   1   5
TORSDOF 3
ENDMDL
