@<TRIPOS>MOLECULE
/home/cewinharhar/GITHUB/reincatalyze/data/processed/docking_pred/2023-May-31-1603_sub9_nm5_bs15_s42_ex16_mel10_mts1000_k50_ec05_g099_lra3e-4_lrc9e-3/3110d36e974f17e9d190d2a4a051583463654b40_ligand_9.pdbqt
 14 15 0 0 0
SMALL
GASTEIGER

@<TRIPOS>ATOM
      1  C          9.7400    1.1790    2.6530 C.3     1  UNL1        0.0800
      2  C         11.1960    0.9360    2.6590 C.2     1  UNL1        0.1300
      3  C         12.0610    1.7680    3.5200 C.3     1  UNL1        0.0870
      4  O         11.6500    0.0640    1.9610 O.2     1  UNL1       -0.3000
      5  C          9.3200    1.9690    1.4300 C.3     1  UNL1        0.0430
      6  C          8.6070    1.1090    0.4810 C.2     1  UNL1       -0.0440
      7  C          7.2460    0.9220    0.5970 C.2     1  UNL1        0.0080
      8  C          9.2600    0.4590   -0.5520 C.2     1  UNL1        0.0540
      9  C          6.5320    0.1120   -0.2830 C.2     1  UNL1        0.0510
     10  C          8.5730   -0.3560   -1.4480 C.2     1  UNL1        0.1660
     11  C          7.2120   -0.5230   -1.3050 C.2     1  UNL1        0.1650
     12  O          8.9500   -1.1160   -2.5550 O.2     1  UNL1       -0.4540
     13  O          6.7820   -1.3730   -2.3140 O.2     1  UNL1       -0.4540
     14  C          7.9080   -1.9720   -2.9480 C.3     1  UNL1        0.4680
@<TRIPOS>BOND
     1    14    12    1
     2    14    13    1
     3    12    10    1
     4    13    11    1
     5    10    11    2
     6    10     8    1
     7    11     9    1
     8     8     6    2
     9     9     7    2
    10     6     7    1
    11     6     5    1
    12     5     1    1
    13     4     2    2
    14     1     2    1
    15     2     3    1
