@<TRIPOS>MOLECULE
/home/cewinharhar/GITHUB/reincatalyze/data/processed/docking_pred/2023-May-31-1603_sub9_nm5_bs15_s42_ex16_mel10_mts1000_k50_ec05_g099_lra3e-4_lrc9e-3/3162da3d825baae428df1736f889259fa2bb10a2_ligand_9.pdbqt
 14 15 0 0 0
SMALL
GASTEIGER

@<TRIPOS>ATOM
      1  C          6.8130    0.8100    0.7680 C.3     1  UNL1        0.0800
      2  C          5.4900    1.1140    1.3490 C.2     1  UNL1        0.1300
      3  C          4.6470    2.1490    0.7180 C.3     1  UNL1        0.0870
      4  O          5.1250    0.5100    2.3270 O.2     1  UNL1       -0.3000
      5  C          6.7310    0.6660   -0.7380 C.3     1  UNL1        0.0430
      6  C          7.3790   -0.5750   -1.1720 C.2     1  UNL1       -0.0440
      7  C          7.7240   -0.7550   -2.4960 C.2     1  UNL1        0.0080
      8  C          7.6660   -1.6000   -0.2880 C.2     1  UNL1        0.0540
      9  C          8.3390   -1.9190   -2.9490 C.2     1  UNL1        0.0510
     10  C          8.2820   -2.7760   -0.7110 C.2     1  UNL1        0.1660
     11  C          8.6140   -2.9250   -2.0420 C.2     1  UNL1        0.1650
     12  O          8.6840   -3.9470   -0.0700 O.2     1  UNL1       -0.4540
     13  O          9.2060   -4.1710   -2.1920 O.2     1  UNL1       -0.4540
     14  C          9.0130   -4.9390   -1.0080 C.3     1  UNL1        0.4680
@<TRIPOS>BOND
     1     9     7    1
     2     9    11    2
     3     7     6    2
     4    13    11    1
     5    13    14    1
     6    11    10    1
     7     6     5    1
     8     6     8    1
     9    14    12    1
    10     5     1    1
    11    10     8    2
    12    10    12    1
    13     3     2    1
    14     1     2    1
    15     2     4    2
