@<TRIPOS>MOLECULE
/home/cewinharhar/GITHUB/reincatalyze/data/processed/docking_pred/2023-May-31-1603_sub9_nm5_bs15_s42_ex16_mel10_mts1000_k50_ec05_g099_lra3e-4_lrc9e-3/3162da3d825baae428df1736f889259fa2bb10a2_ligand_9.pdbqt
 14 15 0 0 0
SMALL
GASTEIGER

@<TRIPOS>ATOM
      1  C          6.3600    1.2070    0.9790 C.3     1  UNL1        0.0800
      2  C          5.6250    0.4040    1.9760 C.2     1  UNL1        0.1300
      3  C          6.2740   -0.7860    2.5620 C.3     1  UNL1        0.0870
      4  O          4.5090    0.7350    2.2910 O.2     1  UNL1       -0.3000
      5  C          5.8550    0.9370   -0.4240 C.3     1  UNL1        0.0430
      6  C          6.7640    0.0320   -1.1330 C.2     1  UNL1       -0.0440
      7  C          7.3180    0.4060   -2.3400 C.2     1  UNL1        0.0080
      8  C          7.0970   -1.2130   -0.6300 C.2     1  UNL1        0.0540
      9  C          8.1850   -0.4250   -3.0450 C.2     1  UNL1        0.0510
     10  C          7.9620   -2.0660   -1.3120 C.2     1  UNL1        0.1660
     11  C          8.4990   -1.6630   -2.5170 C.2     1  UNL1        0.1650
     12  O          8.4670   -3.3410   -1.0610 O.2     1  UNL1       -0.4540
     13  O          9.3150   -2.6860   -2.9790 O.2     1  UNL1       -0.4540
     14  C          9.0940   -3.8620   -2.2050 C.3     1  UNL1        0.4680
@<TRIPOS>BOND
     1     9    11    2
     2     9     7    1
     3    13    11    1
     4    13    14    1
     5    11    10    1
     6     7     6    2
     7    14    12    1
     8    10    12    1
     9    10     8    2
    10     6     8    1
    11     6     5    1
    12     5     1    1
    13     1     2    1
    14     2     4    2
    15     2     3    1
