@<TRIPOS>MOLECULE
/home/cewinharhar/GITHUB/reincatalyze/data/processed/docking_pred/2023-May-31-1603_sub9_nm5_bs15_s42_ex16_mel10_mts1000_k50_ec05_g099_lra3e-4_lrc9e-3/3162da3d825baae428df1736f889259fa2bb10a2_ligand_9.pdbqt
 14 15 0 0 0
SMALL
GASTEIGER

@<TRIPOS>ATOM
      1  C          5.3590   -0.0390    1.9640 C.3     1  UNL1        0.0800
      2  C          4.5280    1.1630    1.7530 C.2     1  UNL1        0.1300
      3  C          4.9130    2.1310    0.7060 C.3     1  UNL1        0.0870
      4  O          3.5510    1.3310    2.4410 O.2     1  UNL1       -0.3000
      5  C          6.8050    0.2230    1.6000 C.3     1  UNL1        0.0430
      6  C          7.2680   -0.7430    0.5990 C.2     1  UNL1       -0.0440
      7  C          7.1070   -0.4850   -0.7460 C.2     1  UNL1        0.0080
      8  C          7.8740   -1.9350    0.9580 C.2     1  UNL1        0.0540
      9  C          7.5310   -1.3760   -1.7270 C.2     1  UNL1        0.0510
     10  C          8.3090   -2.8460   -0.0010 C.2     1  UNL1        0.1660
     11  C          8.1340   -2.5580   -1.3390 C.2     1  UNL1        0.1650
     12  O          8.9360   -4.0910    0.0560 O.2     1  UNL1       -0.4540
     13  O          8.6490   -3.6190   -2.0700 O.2     1  UNL1       -0.4540
     14  C          8.9140   -4.7160   -1.2010 C.3     1  UNL1        0.4680
@<TRIPOS>BOND
     1    13    11    1
     2    13    14    1
     3     9    11    2
     4     9     7    1
     5    11    10    1
     6    14    12    1
     7     7     6    2
     8    10    12    1
     9    10     8    2
    10     6     8    1
    11     6     5    1
    12     3     2    1
    13     5     1    1
    14     2     1    1
    15     2     4    2
