@<TRIPOS>MOLECULE
/home/cewinharhar/GITHUB/reincatalyze/data/processed/docking_pred/2023-May-31-1603_sub9_nm5_bs15_s42_ex16_mel10_mts1000_k50_ec05_g099_lra3e-4_lrc9e-3/3162da3d825baae428df1736f889259fa2bb10a2_ligand_9.pdbqt
 14 15 0 0 0
SMALL
GASTEIGER

@<TRIPOS>ATOM
      1  C          5.5870    1.8710    1.3090 C.3     1  UNL1        0.0800
      2  C          5.1280    0.6740    2.0410 C.2     1  UNL1        0.1300
      3  C          6.0550   -0.4620    2.2180 C.3     1  UNL1        0.0870
      4  O          4.0050    0.6480    2.4800 O.2     1  UNL1       -0.3000
      5  C          5.4070    1.7040   -0.1860 C.3     1  UNL1        0.0430
      6  C          6.5390    0.9730   -0.7620 C.2     1  UNL1       -0.0440
      7  C          7.8300    1.4150   -0.5580 C.2     1  UNL1        0.0080
      8  C          6.3630   -0.1700   -1.5220 C.2     1  UNL1        0.0540
      9  C          8.9330    0.7500   -1.0890 C.2     1  UNL1        0.0510
     10  C          7.4460   -0.8570   -2.0650 C.2     1  UNL1        0.1660
     11  C          8.7250   -0.3890   -1.8430 C.2     1  UNL1        0.1650
     12  O          7.5750   -2.0030   -2.8490 O.2     1  UNL1       -0.4540
     13  O          9.6050   -1.2460   -2.4870 O.2     1  UNL1       -0.4540
     14  C          8.8810   -2.1160   -3.3530 C.3     1  UNL1        0.4680
@<TRIPOS>BOND
     1    14    12    1
     2    14    13    1
     3    12    10    1
     4    13    11    1
     5    10    11    2
     6    10     8    1
     7    11     9    1
     8     8     6    2
     9     9     7    2
    10     6     7    1
    11     6     5    1
    12     5     1    1
    13     1     2    1
    14     2     3    1
    15     2     4    2
