MODEL 1
REMARK VINA RESULT:      -7.5      0.000      0.000
REMARK SMILES CC(=O)CCc1ccc2c(c1)OCO2
REMARK SMILES IDX 4 1 2 2 1 3 3 4 5 5 6 6 7 7 11 8 8 9 10 10 9 11 12 12 14 13
REMARK SMILES IDX 13 14
REMARK H PARENT
REMARK Flexibility Score: inf
ROOT
ATOM      1  C   UNL     1       5.633   1.823   1.344  1.00  0.00     0.080 C 
ENDROOT
BRANCH   1   2
ATOM      2  C   UNL     1       5.135   0.633   2.063  1.00  0.00     0.130 C 
ATOM      3  C   UNL     1       6.035  -0.522   2.254  1.00  0.00     0.087 C 
ATOM      4  O   UNL     1       4.003   0.629   2.479  1.00  0.00    -0.300 OA
ENDBRANCH   1   2
BRANCH   1   5
ATOM      5  C   UNL     1       5.448   1.678  -0.152  1.00  0.00     0.043 C 
BRANCH   5   6
ATOM      6  C   UNL     1       6.577   0.952  -0.742  1.00  0.00    -0.044 A 
ATOM      7  C   UNL     1       7.865   1.420  -0.584  1.00  0.00     0.008 A 
ATOM      8  C   UNL     1       6.399  -0.210  -1.472  1.00  0.00     0.054 A 
ATOM      9  C   UNL     1       8.964   0.761  -1.129  1.00  0.00     0.051 A 
ATOM     10  C   UNL     1       7.479  -0.891  -2.029  1.00  0.00     0.166 A 
ATOM     11  C   UNL     1       8.755  -0.398  -1.852  1.00  0.00     0.165 A 
ATOM     12  O   UNL     1       7.606  -2.053  -2.790  1.00  0.00    -0.454 OA
ATOM     13  O   UNL     1       9.632  -1.255  -2.501  1.00  0.00    -0.454 OA
ATOM     14  C   UNL     1       8.900  -2.156  -3.327  1.00  0.00     0.468 C 
ENDBRANCH   5   6
ENDBRANCH   1   5
TORSDOF 3
ENDMDL
MODEL 2
REMARK VINA RESULT:      -7.3      1.770      2.256
REMARK SMILES CC(=O)CCc1ccc2c(c1)OCO2
REMARK SMILES IDX 4 1 2 2 1 3 3 4 5 5 6 6 7 7 11 8 8 9 10 10 9 11 12 12 14 13
REMARK SMILES IDX 13 14
REMARK H PARENT
REMARK Flexibility Score: inf
ROOT
ATOM      1  C   UNL     1       6.568   1.297   0.383  1.00  0.00     0.080 C 
ENDROOT
BRANCH   1   2
ATOM      2  C   UNL     1       5.397   1.207   1.279  1.00  0.00     0.130 C 
ATOM      3  C   UNL     1       5.231   0.012   2.130  1.00  0.00     0.087 C 
ATOM      4  O   UNL     1       4.600   2.112   1.296  1.00  0.00    -0.300 OA
ENDBRANCH   1   2
BRANCH   1   5
ATOM      5  C   UNL     1       6.220   0.851  -1.022  1.00  0.00     0.043 C 
BRANCH   5   6
ATOM      6  C   UNL     1       6.990  -0.341  -1.390  1.00  0.00    -0.044 A 
ATOM      7  C   UNL     1       7.401  -0.530  -2.693  1.00  0.00     0.008 A 
ATOM      8  C   UNL     1       7.330  -1.309  -0.461  1.00  0.00     0.054 A 
ATOM      9  C   UNL     1       8.133  -1.648  -3.083  1.00  0.00     0.051 A 
ATOM     10  C   UNL     1       8.061  -2.438  -0.822  1.00  0.00     0.166 A 
ATOM     11  C   UNL     1       8.458  -2.598  -2.133  1.00  0.00     0.165 A 
ATOM     12  O   UNL     1       8.538  -3.549  -0.127  1.00  0.00    -0.454 OA
ATOM     13  O   UNL     1       9.162  -3.790  -2.219  1.00  0.00    -0.454 OA
ATOM     14  C   UNL     1       8.989  -4.536  -1.018  1.00  0.00     0.468 C 
ENDBRANCH   5   6
ENDBRANCH   1   5
TORSDOF 3
ENDMDL
MODEL 3
REMARK VINA RESULT:      -7.3      2.086      2.633
REMARK SMILES CC(=O)CCc1ccc2c(c1)OCO2
REMARK SMILES IDX 4 1 2 2 1 3 3 4 5 5 6 6 7 7 11 8 8 9 10 10 9 11 12 12 14 13
REMARK SMILES IDX 13 14
REMARK H PARENT
REMARK Flexibility Score: inf
ROOT
ATOM      1  C   UNL     1       5.454   0.007   1.885  1.00  0.00     0.080 C 
ENDROOT
BRANCH   1   2
ATOM      2  C   UNL     1       4.617   1.197   1.636  1.00  0.00     0.130 C 
ATOM      3  C   UNL     1       5.013   2.148   0.578  1.00  0.00     0.087 C 
ATOM      4  O   UNL     1       3.626   1.369   2.302  1.00  0.00    -0.300 OA
ENDBRANCH   1   2
BRANCH   1   5
ATOM      5  C   UNL     1       6.895   0.256   1.490  1.00  0.00     0.043 C 
BRANCH   5   6
ATOM      6  C   UNL     1       7.340  -0.741   0.512  1.00  0.00    -0.044 A 
ATOM      7  C   UNL     1       7.169  -0.516  -0.839  1.00  0.00     0.008 A 
ATOM      8  C   UNL     1       7.939  -1.928   0.896  1.00  0.00     0.054 A 
ATOM      9  C   UNL     1       7.578  -1.437  -1.800  1.00  0.00     0.051 A 
ATOM     10  C   UNL     1       8.358  -2.868  -0.042  1.00  0.00     0.166 A 
ATOM     11  C   UNL     1       8.173  -2.613  -1.385  1.00  0.00     0.165 A 
ATOM     12  O   UNL     1       8.973  -4.116   0.042  1.00  0.00    -0.454 OA
ATOM     13  O   UNL     1       8.672  -3.697  -2.093  1.00  0.00    -0.454 OA
ATOM     14  C   UNL     1       8.935  -4.774  -1.198  1.00  0.00     0.468 C 
ENDBRANCH   5   6
ENDBRANCH   1   5
TORSDOF 3
ENDMDL
MODEL 4
REMARK VINA RESULT:      -7.1      1.187      1.336
REMARK SMILES CC(=O)CCc1ccc2c(c1)OCO2
REMARK SMILES IDX 4 1 2 2 1 3 3 4 5 5 6 6 7 7 11 8 8 9 10 10 9 11 12 12 14 13
REMARK SMILES IDX 13 14
REMARK H PARENT
REMARK Flexibility Score: inf
ROOT
ATOM      1  C   UNL     1       6.231   1.340   0.937  1.00  0.00     0.080 C 
ENDROOT
BRANCH   1   2
ATOM      2  C   UNL     1       5.554   0.496   1.942  1.00  0.00     0.130 C 
ATOM      3  C   UNL     1       6.271  -0.662   2.512  1.00  0.00     0.087 C 
ATOM      4  O   UNL     1       4.428   0.770   2.278  1.00  0.00    -0.300 OA
ENDBRANCH   1   2
BRANCH   1   5
ATOM      5  C   UNL     1       5.738   1.031  -0.461  1.00  0.00     0.043 C 
BRANCH   5   6
ATOM      6  C   UNL     1       6.695   0.174  -1.167  1.00  0.00    -0.044 A 
ATOM      7  C   UNL     1       7.369   0.647  -2.274  1.00  0.00     0.008 A 
ATOM      8  C   UNL     1       6.956  -1.123  -0.760  1.00  0.00     0.054 A 
ATOM      9  C   UNL     1       8.285  -0.134  -2.972  1.00  0.00     0.051 A 
ATOM     10  C   UNL     1       7.868  -1.928  -1.439  1.00  0.00     0.166 A 
ATOM     11  C   UNL     1       8.526  -1.425  -2.542  1.00  0.00     0.165 A 
ATOM     12  O   UNL     1       8.324  -3.235  -1.268  1.00  0.00    -0.454 OA
ATOM     13  O   UNL     1       9.364  -2.421  -3.023  1.00  0.00    -0.454 OA
ATOM     14  C   UNL     1       9.048  -3.659  -2.394  1.00  0.00     0.468 C 
ENDBRANCH   5   6
ENDBRANCH   1   5
TORSDOF 3
ENDMDL
MODEL 5
REMARK VINA RESULT:      -7.0      1.951      2.522
REMARK SMILES CC(=O)CCc1ccc2c(c1)OCO2
REMARK SMILES IDX 4 1 2 2 1 3 3 4 5 5 6 6 7 7 11 8 8 9 10 10 9 11 12 12 14 13
REMARK SMILES IDX 13 14
REMARK H PARENT
REMARK Flexibility Score: inf
ROOT
ATOM      1  C   UNL     1       6.852   0.764   1.153  1.00  0.00     0.080 C 
ENDROOT
BRANCH   1   2
ATOM      2  C   UNL     1       5.443   1.049   1.487  1.00  0.00     0.130 C 
ATOM      3  C   UNL     1       4.745   2.150   0.792  1.00  0.00     0.087 C 
ATOM      4  O   UNL     1       4.889   0.377   2.322  1.00  0.00    -0.300 OA
ENDBRANCH   1   2
BRANCH   1   5
ATOM      5  C   UNL     1       7.095   0.872  -0.339  1.00  0.00     0.043 C 
BRANCH   5   6
ATOM      6  C   UNL     1       7.595  -0.399  -0.872  1.00  0.00    -0.044 A 
ATOM      7  C   UNL     1       7.781  -0.560  -2.229  1.00  0.00     0.008 A 
ATOM      8  C   UNL     1       7.894  -1.471  -0.050  1.00  0.00     0.054 A 
ATOM      9  C   UNL     1       8.253  -1.750  -2.776  1.00  0.00     0.051 A 
ATOM     10  C   UNL     1       8.368  -2.674  -0.567  1.00  0.00     0.166 A 
ATOM     11  C   UNL     1       8.544  -2.803  -1.929  1.00  0.00     0.165 A 
ATOM     12  O   UNL     1       8.745  -3.893  -0.003  1.00  0.00    -0.454 OA
ATOM     13  O   UNL     1       9.018  -4.084  -2.174  1.00  0.00    -0.454 OA
ATOM     14  C   UNL     1       8.894  -4.875  -0.996  1.00  0.00     0.468 C 
ENDBRANCH   5   6
ENDBRANCH   1   5
TORSDOF 3
ENDMDL
