MODEL 1
REMARK VINA RESULT:      -7.1      0.000      0.000
REMARK SMILES CC(=O)CCc1ccc2c(c1)OCO2
REMARK SMILES IDX 4 1 2 2 1 3 3 4 5 5 6 6 7 7 11 8 8 9 10 10 9 11 12 12 14 13
REMARK SMILES IDX 13 14
REMARK H PARENT
REMARK Flexibility Score: inf
ROOT
ATOM      1  C   UNL     1       5.871   0.070   1.479  1.00  0.00     0.080 C 
ENDROOT
BRANCH   1   2
ATOM      2  C   UNL     1       4.919   1.190   1.333  1.00  0.00     0.130 C 
ATOM      3  C   UNL     1       5.097   2.147   0.223  1.00  0.00     0.087 C 
ATOM      4  O   UNL     1       4.015   1.299   2.124  1.00  0.00    -0.300 OA
ENDBRANCH   1   2
BRANCH   1   5
ATOM      5  C   UNL     1       7.039   0.215   0.526  1.00  0.00     0.043 C 
BRANCH   5   6
ATOM      6  C   UNL     1       8.261   0.559   1.259  1.00  0.00    -0.044 A 
ATOM      7  C   UNL     1       8.276   1.632   2.125  1.00  0.00     0.008 A 
ATOM      8  C   UNL     1       9.431  -0.167   1.113  1.00  0.00     0.054 A 
ATOM      9  C   UNL     1       9.416   1.991   2.839  1.00  0.00     0.051 A 
ATOM     10  C   UNL     1      10.587   0.169   1.814  1.00  0.00     0.166 A 
ATOM     11  C   UNL     1      10.569   1.248   2.673  1.00  0.00     0.165 A 
ATOM     12  O   UNL     1      11.876  -0.361   1.870  1.00  0.00    -0.454 OA
ATOM     13  O   UNL     1      11.833   1.361   3.235  1.00  0.00    -0.454 OA
ATOM     14  C   UNL     1      12.745   0.519   2.535  1.00  0.00     0.468 C 
ENDBRANCH   5   6
ENDBRANCH   1   5
TORSDOF 3
ENDMDL
MODEL 2
REMARK VINA RESULT:      -7.1      2.729      5.434
REMARK SMILES CC(=O)CCc1ccc2c(c1)OCO2
REMARK SMILES IDX 4 1 2 2 1 3 3 4 5 5 6 6 7 7 11 8 8 9 10 10 9 11 12 12 14 13
REMARK SMILES IDX 13 14
REMARK H PARENT
REMARK Flexibility Score: inf
ROOT
ATOM      1  C   UNL     1       9.728   1.327   2.603  1.00  0.00     0.080 C 
ENDROOT
BRANCH   1   2
ATOM      2  C   UNL     1      11.159   0.968   2.659  1.00  0.00     0.130 C 
ATOM      3  C   UNL     1      12.061   1.734   3.542  1.00  0.00     0.087 C 
ATOM      4  O   UNL     1      11.562   0.055   1.981  1.00  0.00    -0.300 OA
ENDBRANCH   1   2
BRANCH   1   5
ATOM      5  C   UNL     1       9.396   2.062   1.321  1.00  0.00     0.043 C 
BRANCH   5   6
ATOM      6  C   UNL     1       8.666   1.187   0.399  1.00  0.00    -0.044 A 
ATOM      7  C   UNL     1       7.301   1.028   0.524  1.00  0.00     0.008 A 
ATOM      8  C   UNL     1       9.305   0.496  -0.615  1.00  0.00     0.054 A 
ATOM      9  C   UNL     1       6.571   0.206  -0.330  1.00  0.00     0.051 A 
ATOM     10  C   UNL     1       8.601  -0.333  -1.485  1.00  0.00     0.166 A 
ATOM     11  C   UNL     1       7.237  -0.472  -1.334  1.00  0.00     0.165 A 
ATOM     12  O   UNL     1       8.961  -1.133  -2.569  1.00  0.00    -0.454 OA
ATOM     13  O   UNL     1       6.789  -1.343  -2.317  1.00  0.00    -0.454 OA
ATOM     14  C   UNL     1       7.903  -1.981  -2.935  1.00  0.00     0.468 C 
ENDBRANCH   5   6
ENDBRANCH   1   5
TORSDOF 3
ENDMDL
MODEL 3
REMARK VINA RESULT:      -7.0      3.386      4.360
REMARK SMILES CC(=O)CCc1ccc2c(c1)OCO2
REMARK SMILES IDX 4 1 2 2 1 3 3 4 5 5 6 6 7 7 11 8 8 9 10 10 9 11 12 12 14 13
REMARK SMILES IDX 13 14
REMARK H PARENT
REMARK Flexibility Score: inf
ROOT
ATOM      1  C   UNL     1       5.543   1.900   1.354  1.00  0.00     0.080 C 
ENDROOT
BRANCH   1   2
ATOM      2  C   UNL     1       5.061   0.687   2.045  1.00  0.00     0.130 C 
ATOM      3  C   UNL     1       5.969  -0.468   2.190  1.00  0.00     0.087 C 
ATOM      4  O   UNL     1       3.935   0.666   2.477  1.00  0.00    -0.300 OA
ENDBRANCH   1   2
BRANCH   1   5
ATOM      5  C   UNL     1       5.385   1.777  -0.147  1.00  0.00     0.043 C 
BRANCH   5   6
ATOM      6  C   UNL     1       6.510   1.037  -0.725  1.00  0.00    -0.044 A 
ATOM      7  C   UNL     1       7.806   1.451  -0.498  1.00  0.00     0.008 A 
ATOM      8  C   UNL     1       6.322  -0.089  -1.508  1.00  0.00     0.054 A 
ATOM      9  C   UNL     1       8.903   0.777  -1.029  1.00  0.00     0.051 A 
ATOM     10  C   UNL     1       7.399  -0.784  -2.052  1.00  0.00     0.166 A 
ATOM     11  C   UNL     1       8.683  -0.344  -1.808  1.00  0.00     0.165 A 
ATOM     12  O   UNL     1       7.516  -1.917  -2.856  1.00  0.00    -0.454 OA
ATOM     13  O   UNL     1       9.556  -1.204  -2.458  1.00  0.00    -0.454 OA
ATOM     14  C   UNL     1       8.826  -2.045  -3.348  1.00  0.00     0.468 C 
ENDBRANCH   5   6
ENDBRANCH   1   5
TORSDOF 3
ENDMDL
MODEL 4
REMARK VINA RESULT:      -7.0      3.481      4.592
REMARK SMILES CC(=O)CCc1ccc2c(c1)OCO2
REMARK SMILES IDX 4 1 2 2 1 3 3 4 5 5 6 6 7 7 11 8 8 9 10 10 9 11 12 12 14 13
REMARK SMILES IDX 13 14
REMARK H PARENT
REMARK Flexibility Score: inf
ROOT
ATOM      1  C   UNL     1       5.664   1.180  -0.248  1.00  0.00     0.080 C 
ENDROOT
BRANCH   1   2
ATOM      2  C   UNL     1       5.130   1.182   1.129  1.00  0.00     0.130 C 
ATOM      3  C   UNL     1       5.347   0.000   1.988  1.00  0.00     0.087 C 
ATOM      4  O   UNL     1       4.529   2.150   1.524  1.00  0.00    -0.300 OA
ENDBRANCH   1   2
BRANCH   1   5
ATOM      5  C   UNL     1       7.175   1.081  -0.251  1.00  0.00     0.043 C 
BRANCH   5   6
ATOM      6  C   UNL     1       7.606  -0.213  -0.787  1.00  0.00    -0.044 A 
ATOM      7  C   UNL     1       7.680  -0.413  -2.150  1.00  0.00     0.008 A 
ATOM      8  C   UNL     1       7.949  -1.270   0.038  1.00  0.00     0.054 A 
ATOM      9  C   UNL     1       8.083  -1.627  -2.699  1.00  0.00     0.051 A 
ATOM     10  C   UNL     1       8.357  -2.496  -0.482  1.00  0.00     0.166 A 
ATOM     11  C   UNL     1       8.420  -2.664  -1.850  1.00  0.00     0.165 A 
ATOM     12  O   UNL     1       8.753  -3.707   0.084  1.00  0.00    -0.454 OA
ATOM     13  O   UNL     1       8.849  -3.960  -2.097  1.00  0.00    -0.454 OA
ATOM     14  C   UNL     1       8.804  -4.718  -0.890  1.00  0.00     0.468 C 
ENDBRANCH   5   6
ENDBRANCH   1   5
TORSDOF 3
ENDMDL
MODEL 5
REMARK VINA RESULT:      -6.9      3.440      4.338
REMARK SMILES CC(=O)CCc1ccc2c(c1)OCO2
REMARK SMILES IDX 4 1 2 2 1 3 3 4 5 5 6 6 7 7 11 8 8 9 10 10 9 11 12 12 14 13
REMARK SMILES IDX 13 14
REMARK H PARENT
REMARK Flexibility Score: inf
ROOT
ATOM      1  C   UNL     1       5.305  -0.088   1.950  1.00  0.00     0.080 C 
ENDROOT
BRANCH   1   2
ATOM      2  C   UNL     1       4.507   1.143   1.777  1.00  0.00     0.130 C 
ATOM      3  C   UNL     1       4.922   2.135   0.766  1.00  0.00     0.087 C 
ATOM      4  O   UNL     1       3.532   1.312   2.467  1.00  0.00    -0.300 OA
ENDBRANCH   1   2
BRANCH   1   5
ATOM      5  C   UNL     1       6.766   0.157   1.635  1.00  0.00     0.043 C 
BRANCH   5   6
ATOM      6  C   UNL     1       7.233  -0.773   0.603  1.00  0.00    -0.044 A 
ATOM      7  C   UNL     1       7.080  -0.465  -0.733  1.00  0.00     0.008 A 
ATOM      8  C   UNL     1       7.835  -1.978   0.920  1.00  0.00     0.054 A 
ATOM      9  C   UNL     1       7.509  -1.321  -1.744  1.00  0.00     0.051 A 
ATOM     10  C   UNL     1       8.275  -2.854  -0.069  1.00  0.00     0.166 A 
ATOM     11  C   UNL     1       8.107  -2.517  -1.396  1.00  0.00     0.165 A 
ATOM     12  O   UNL     1       8.899  -4.101  -0.054  1.00  0.00    -0.454 OA
ATOM     13  O   UNL     1       8.625  -3.551  -2.163  1.00  0.00    -0.454 OA
ATOM     14  C   UNL     1       8.884  -4.680  -1.334  1.00  0.00     0.468 C 
ENDBRANCH   5   6
ENDBRANCH   1   5
TORSDOF 3
ENDMDL
