@<TRIPOS>MOLECULE
/home/cewinharhar/GITHUB/reincatalyze/data/processed/docking_pred/2023-May-31-1603_sub9_nm5_bs15_s42_ex16_mel10_mts1000_k50_ec05_g099_lra3e-4_lrc9e-3/31de0aabf4a391366091aaa04775d5537fef7eaf_ligand_9.pdbqt
 14 15 0 0 0
SMALL
GASTEIGER

@<TRIPOS>ATOM
      1  C          9.7280    1.3270    2.6030 C.3     1  UNL1        0.0800
      2  C         11.1590    0.9680    2.6590 C.2     1  UNL1        0.1300
      3  C         12.0610    1.7340    3.5420 C.3     1  UNL1        0.0870
      4  O         11.5620    0.0550    1.9810 O.2     1  UNL1       -0.3000
      5  C          9.3960    2.0620    1.3210 C.3     1  UNL1        0.0430
      6  C          8.6660    1.1870    0.3990 C.2     1  UNL1       -0.0440
      7  C          7.3010    1.0280    0.5240 C.2     1  UNL1        0.0080
      8  C          9.3050    0.4960   -0.6150 C.2     1  UNL1        0.0540
      9  C          6.5710    0.2060   -0.3300 C.2     1  UNL1        0.0510
     10  C          8.6010   -0.3330   -1.4850 C.2     1  UNL1        0.1660
     11  C          7.2370   -0.4720   -1.3340 C.2     1  UNL1        0.1650
     12  O          8.9610   -1.1330   -2.5690 O.2     1  UNL1       -0.4540
     13  O          6.7890   -1.3430   -2.3170 O.2     1  UNL1       -0.4540
     14  C          7.9030   -1.9810   -2.9350 C.3     1  UNL1        0.4680
@<TRIPOS>BOND
     1    14    12    1
     2    14    13    1
     3    12    10    1
     4    13    11    1
     5    10    11    2
     6    10     8    1
     7    11     9    1
     8     8     6    2
     9     9     7    2
    10     6     7    1
    11     6     5    1
    12     5     1    1
    13     4     2    2
    14     1     2    1
    15     2     3    1
