@<TRIPOS>MOLECULE
/home/cewinharhar/GITHUB/reincatalyze/data/processed/docking_pred/2023-May-31-1603_sub9_nm5_bs15_s42_ex16_mel10_mts1000_k50_ec05_g099_lra3e-4_lrc9e-3/31de0aabf4a391366091aaa04775d5537fef7eaf_ligand_9.pdbqt
 14 15 0 0 0
SMALL
GASTEIGER

@<TRIPOS>ATOM
      1  C          5.8710    0.0700    1.4790 C.3     1  UNL1        0.0800
      2  C          4.9190    1.1900    1.3330 C.2     1  UNL1        0.1300
      3  C          5.0970    2.1470    0.2230 C.3     1  UNL1        0.0870
      4  O          4.0150    1.2990    2.1240 O.2     1  UNL1       -0.3000
      5  C          7.0390    0.2150    0.5260 C.3     1  UNL1        0.0430
      6  C          8.2610    0.5590    1.2590 C.2     1  UNL1       -0.0440
      7  C          8.2760    1.6320    2.1250 C.2     1  UNL1        0.0080
      8  C          9.4310   -0.1670    1.1130 C.2     1  UNL1        0.0540
      9  C          9.4160    1.9910    2.8390 C.2     1  UNL1        0.0510
     10  C         10.5870    0.1690    1.8140 C.2     1  UNL1        0.1660
     11  C         10.5690    1.2480    2.6730 C.2     1  UNL1        0.1650
     12  O         11.8760   -0.3610    1.8700 O.2     1  UNL1       -0.4540
     13  O         11.8330    1.3610    3.2350 O.2     1  UNL1       -0.4540
     14  C         12.7450    0.5190    2.5350 C.3     1  UNL1        0.4680
@<TRIPOS>BOND
     1     3     2    1
     2     5     6    1
     3     5     1    1
     4     8     6    2
     5     8    10    1
     6     6     7    1
     7     2     1    1
     8     2     4    2
     9    10    12    1
    10    10    11    2
    11    12    14    1
    12     7     9    2
    13    14    13    1
    14    11     9    1
    15    11    13    1
