@<TRIPOS>MOLECULE
/home/cewinharhar/GITHUB/reincatalyze/data/processed/docking_pred/2023-May-31-1603_sub9_nm5_bs15_s42_ex16_mel10_mts1000_k50_ec05_g099_lra3e-4_lrc9e-3/31de0aabf4a391366091aaa04775d5537fef7eaf_ligand_9.pdbqt
 14 15 0 0 0
SMALL
GASTEIGER

@<TRIPOS>ATOM
      1  C          5.6640    1.1800   -0.2480 C.3     1  UNL1        0.0800
      2  C          5.1300    1.1820    1.1290 C.2     1  UNL1        0.1300
      3  C          5.3470    0.0000    1.9880 C.3     1  UNL1        0.0870
      4  O          4.5290    2.1500    1.5240 O.2     1  UNL1       -0.3000
      5  C          7.1750    1.0810   -0.2510 C.3     1  UNL1        0.0430
      6  C          7.6060   -0.2130   -0.7870 C.2     1  UNL1       -0.0440
      7  C          7.6800   -0.4130   -2.1500 C.2     1  UNL1        0.0080
      8  C          7.9490   -1.2700    0.0380 C.2     1  UNL1        0.0540
      9  C          8.0830   -1.6270   -2.6990 C.2     1  UNL1        0.0510
     10  C          8.3570   -2.4960   -0.4820 C.2     1  UNL1        0.1660
     11  C          8.4200   -2.6640   -1.8500 C.2     1  UNL1        0.1650
     12  O          8.7530   -3.7070    0.0840 O.2     1  UNL1       -0.4540
     13  O          8.8490   -3.9600   -2.0970 O.2     1  UNL1       -0.4540
     14  C          8.8040   -4.7180   -0.8900 C.3     1  UNL1        0.4680
@<TRIPOS>BOND
     1     9     7    1
     2     9    11    2
     3     7     6    2
     4    13    11    1
     5    13    14    1
     6    11    10    1
     7    14    12    1
     8     6     5    1
     9     6     8    1
    10    10     8    2
    11    10    12    1
    12     5     1    1
    13     1     2    1
    14     2     4    2
    15     2     3    1
