@<TRIPOS>MOLECULE
/home/cewinharhar/GITHUB/reincatalyze/data/processed/docking_pred/2023-May-31-1603_sub9_nm5_bs15_s42_ex16_mel10_mts1000_k50_ec05_g099_lra3e-4_lrc9e-3/31de0aabf4a391366091aaa04775d5537fef7eaf_ligand_9.pdbqt
 14 15 0 0 0
SMALL
GASTEIGER

@<TRIPOS>ATOM
      1  C          5.3050   -0.0880    1.9500 C.3     1  UNL1        0.0800
      2  C          4.5070    1.1430    1.7770 C.2     1  UNL1        0.1300
      3  C          4.9220    2.1350    0.7660 C.3     1  UNL1        0.0870
      4  O          3.5320    1.3120    2.4670 O.2     1  UNL1       -0.3000
      5  C          6.7660    0.1570    1.6350 C.3     1  UNL1        0.0430
      6  C          7.2330   -0.7730    0.6030 C.2     1  UNL1       -0.0440
      7  C          7.0800   -0.4650   -0.7330 C.2     1  UNL1        0.0080
      8  C          7.8350   -1.9780    0.9200 C.2     1  UNL1        0.0540
      9  C          7.5090   -1.3210   -1.7440 C.2     1  UNL1        0.0510
     10  C          8.2750   -2.8540   -0.0690 C.2     1  UNL1        0.1660
     11  C          8.1070   -2.5170   -1.3960 C.2     1  UNL1        0.1650
     12  O          8.8990   -4.1010   -0.0540 O.2     1  UNL1       -0.4540
     13  O          8.6250   -3.5510   -2.1630 O.2     1  UNL1       -0.4540
     14  C          8.8840   -4.6800   -1.3340 C.3     1  UNL1        0.4680
@<TRIPOS>BOND
     1    13    11    1
     2    13    14    1
     3     9    11    2
     4     9     7    1
     5    11    10    1
     6    14    12    1
     7     7     6    2
     8    10    12    1
     9    10     8    2
    10     6     8    1
    11     6     5    1
    12     3     2    1
    13     5     1    1
    14     2     1    1
    15     2     4    2
