@<TRIPOS>MOLECULE
/home/cewinharhar/GITHUB/reincatalyze/data/processed/docking_pred/2023-May-31-1603_sub9_nm5_bs15_s42_ex16_mel10_mts1000_k50_ec05_g099_lra3e-4_lrc9e-3/31de0aabf4a391366091aaa04775d5537fef7eaf_ligand_9.pdbqt
 14 15 0 0 0
SMALL
GASTEIGER

@<TRIPOS>ATOM
      1  C          5.5430    1.9000    1.3540 C.3     1  UNL1        0.0800
      2  C          5.0610    0.6870    2.0450 C.2     1  UNL1        0.1300
      3  C          5.9690   -0.4680    2.1900 C.3     1  UNL1        0.0870
      4  O          3.9350    0.6660    2.4770 O.2     1  UNL1       -0.3000
      5  C          5.3850    1.7770   -0.1470 C.3     1  UNL1        0.0430
      6  C          6.5100    1.0370   -0.7250 C.2     1  UNL1       -0.0440
      7  C          7.8060    1.4510   -0.4980 C.2     1  UNL1        0.0080
      8  C          6.3220   -0.0890   -1.5080 C.2     1  UNL1        0.0540
      9  C          8.9030    0.7770   -1.0290 C.2     1  UNL1        0.0510
     10  C          7.3990   -0.7840   -2.0520 C.2     1  UNL1        0.1660
     11  C          8.6830   -0.3440   -1.8080 C.2     1  UNL1        0.1650
     12  O          7.5160   -1.9170   -2.8560 O.2     1  UNL1       -0.4540
     13  O          9.5560   -1.2040   -2.4580 O.2     1  UNL1       -0.4540
     14  C          8.8260   -2.0450   -3.3480 C.3     1  UNL1        0.4680
@<TRIPOS>BOND
     1    14    12    1
     2    14    13    1
     3    12    10    1
     4    13    11    1
     5    10    11    2
     6    10     8    1
     7    11     9    1
     8     8     6    2
     9     9     7    2
    10     6     7    1
    11     6     5    1
    12     5     1    1
    13     1     2    1
    14     2     3    1
    15     2     4    2
