MODEL 1
REMARK VINA RESULT:      -7.5      0.000      0.000
REMARK SMILES CC(=O)CCc1ccc2c(c1)OCO2
REMARK SMILES IDX 4 1 2 2 1 3 3 4 5 5 6 6 7 7 11 8 8 9 10 10 9 11 12 12 14 13
REMARK SMILES IDX 13 14
REMARK H PARENT
REMARK Flexibility Score: inf
ROOT
ATOM      1  C   UNL     1       5.644   1.836   1.360  1.00  0.00     0.080 C 
ENDROOT
BRANCH   1   2
ATOM      2  C   UNL     1       5.159   0.636   2.072  1.00  0.00     0.130 C 
ATOM      3  C   UNL     1       6.078  -0.501   2.277  1.00  0.00     0.087 C 
ATOM      4  O   UNL     1       4.021   0.610   2.471  1.00  0.00    -0.300 OA
ENDBRANCH   1   2
BRANCH   1   5
ATOM      5  C   UNL     1       5.453   1.701  -0.136  1.00  0.00     0.043 C 
BRANCH   5   6
ATOM      6  C   UNL     1       6.574   0.971  -0.734  1.00  0.00    -0.044 A 
ATOM      7  C   UNL     1       7.867   1.422  -0.569  1.00  0.00     0.008 A 
ATOM      8  C   UNL     1       6.385  -0.181  -1.478  1.00  0.00     0.054 A 
ATOM      9  C   UNL     1       8.960   0.759  -1.121  1.00  0.00     0.051 A 
ATOM     10  C   UNL     1       7.458  -0.867  -2.042  1.00  0.00     0.166 A 
ATOM     11  C   UNL     1       8.739  -0.390  -1.858  1.00  0.00     0.165 A 
ATOM     12  O   UNL     1       7.573  -2.020  -2.817  1.00  0.00    -0.454 OA
ATOM     13  O   UNL     1       9.608  -1.248  -2.517  1.00  0.00    -0.454 OA
ATOM     14  C   UNL     1       8.867  -2.131  -3.354  1.00  0.00     0.468 C 
ENDBRANCH   5   6
ENDBRANCH   1   5
TORSDOF 3
ENDMDL
MODEL 2
REMARK VINA RESULT:      -7.3      2.063      2.630
REMARK SMILES CC(=O)CCc1ccc2c(c1)OCO2
REMARK SMILES IDX 4 1 2 2 1 3 3 4 5 5 6 6 7 7 11 8 8 9 10 10 9 11 12 12 14 13
REMARK SMILES IDX 13 14
REMARK H PARENT
REMARK Flexibility Score: inf
ROOT
ATOM      1  C   UNL     1       5.368  -0.029   1.970  1.00  0.00     0.080 C 
ENDROOT
BRANCH   1   2
ATOM      2  C   UNL     1       4.532   1.170   1.762  1.00  0.00     0.130 C 
ATOM      3  C   UNL     1       4.910   2.138   0.713  1.00  0.00     0.087 C 
ATOM      4  O   UNL     1       3.558   1.334   2.454  1.00  0.00    -0.300 OA
ENDBRANCH   1   2
BRANCH   1   5
ATOM      5  C   UNL     1       6.812   0.236   1.597  1.00  0.00     0.043 C 
BRANCH   5   6
ATOM      6  C   UNL     1       7.271  -0.730   0.595  1.00  0.00    -0.044 A 
ATOM      7  C   UNL     1       7.104  -0.472  -0.749  1.00  0.00     0.008 A 
ATOM      8  C   UNL     1       7.881  -1.920   0.951  1.00  0.00     0.054 A 
ATOM      9  C   UNL     1       7.525  -1.364  -1.732  1.00  0.00     0.051 A 
ATOM     10  C   UNL     1       8.313  -2.832  -0.009  1.00  0.00     0.166 A 
ATOM     11  C   UNL     1       8.130  -2.545  -1.346  1.00  0.00     0.165 A 
ATOM     12  O   UNL     1       8.941  -4.076   0.046  1.00  0.00    -0.454 OA
ATOM     13  O   UNL     1       8.643  -3.605  -2.079  1.00  0.00    -0.454 OA
ATOM     14  C   UNL     1       8.914  -4.702  -1.211  1.00  0.00     0.468 C 
ENDBRANCH   5   6
ENDBRANCH   1   5
TORSDOF 3
ENDMDL
MODEL 3
REMARK VINA RESULT:      -7.3      1.878      2.327
REMARK SMILES CC(=O)CCc1ccc2c(c1)OCO2
REMARK SMILES IDX 4 1 2 2 1 3 3 4 5 5 6 6 7 7 11 8 8 9 10 10 9 11 12 12 14 13
REMARK SMILES IDX 13 14
REMARK H PARENT
REMARK Flexibility Score: inf
ROOT
ATOM      1  C   UNL     1       5.651   1.360  -0.261  1.00  0.00     0.080 C 
ENDROOT
BRANCH   1   2
ATOM      2  C   UNL     1       5.031   1.260   1.075  1.00  0.00     0.130 C 
ATOM      3  C   UNL     1       5.387   0.126   1.952  1.00  0.00     0.087 C 
ATOM      4  O   UNL     1       4.246   2.108   1.424  1.00  0.00    -0.300 OA
ENDBRANCH   1   2
BRANCH   1   5
ATOM      5  C   UNL     1       7.152   1.172  -0.186  1.00  0.00     0.043 C 
BRANCH   5   6
ATOM      6  C   UNL     1       7.539  -0.116  -0.768  1.00  0.00    -0.044 A 
ATOM      7  C   UNL     1       7.447  -0.321  -2.129  1.00  0.00     0.008 A 
ATOM      8  C   UNL     1       8.005  -1.161   0.011  1.00  0.00     0.054 A 
ATOM      9  C   UNL     1       7.804  -1.530  -2.721  1.00  0.00     0.051 A 
ATOM     10  C   UNL     1       8.370  -2.381  -0.553  1.00  0.00     0.166 A 
ATOM     11  C   UNL     1       8.266  -2.555  -1.917  1.00  0.00     0.165 A 
ATOM     12  O   UNL     1       8.859  -3.581  -0.037  1.00  0.00    -0.454 OA
ATOM     13  O   UNL     1       8.688  -3.844  -2.212  1.00  0.00    -0.454 OA
ATOM     14  C   UNL     1       8.809  -4.596  -1.007  1.00  0.00     0.468 C 
ENDBRANCH   5   6
ENDBRANCH   1   5
TORSDOF 3
ENDMDL
MODEL 4
REMARK VINA RESULT:      -7.1      1.321      1.551
REMARK SMILES CC(=O)CCc1ccc2c(c1)OCO2
REMARK SMILES IDX 4 1 2 2 1 3 3 4 5 5 6 6 7 7 11 8 8 9 10 10 9 11 12 12 14 13
REMARK SMILES IDX 13 14
REMARK H PARENT
REMARK Flexibility Score: inf
ROOT
ATOM      1  C   UNL     1       6.371   1.205   0.959  1.00  0.00     0.080 C 
ENDROOT
BRANCH   1   2
ATOM      2  C   UNL     1       5.626   0.418   1.962  1.00  0.00     0.130 C 
ATOM      3  C   UNL     1       6.250  -0.789   2.541  1.00  0.00     0.087 C 
ATOM      4  O   UNL     1       4.522   0.778   2.289  1.00  0.00    -0.300 OA
ENDBRANCH   1   2
BRANCH   1   5
ATOM      5  C   UNL     1       5.871   0.922  -0.442  1.00  0.00     0.043 C 
BRANCH   5   6
ATOM      6  C   UNL     1       6.783   0.011  -1.141  1.00  0.00    -0.044 A 
ATOM      7  C   UNL     1       7.345   0.378  -2.346  1.00  0.00     0.008 A 
ATOM      8  C   UNL     1       7.110  -1.232  -0.629  1.00  0.00     0.054 A 
ATOM      9  C   UNL     1       8.214  -0.458  -3.042  1.00  0.00     0.051 A 
ATOM     10  C   UNL     1       7.978  -2.089  -1.302  1.00  0.00     0.166 A 
ATOM     11  C   UNL     1       8.523  -1.694  -2.506  1.00  0.00     0.165 A 
ATOM     12  O   UNL     1       8.479  -3.364  -1.041  1.00  0.00    -0.454 OA
ATOM     13  O   UNL     1       9.340  -2.720  -2.957  1.00  0.00    -0.454 OA
ATOM     14  C   UNL     1       9.111  -3.892  -2.179  1.00  0.00     0.468 C 
ENDBRANCH   5   6
ENDBRANCH   1   5
TORSDOF 3
ENDMDL
MODEL 5
REMARK VINA RESULT:      -6.9      1.203      5.186
REMARK SMILES CC(=O)CCc1ccc2c(c1)OCO2
REMARK SMILES IDX 4 1 2 2 1 3 3 4 5 5 6 6 7 7 11 8 8 9 10 10 9 11 12 12 14 13
REMARK SMILES IDX 13 14
REMARK H PARENT
REMARK Flexibility Score: inf
ROOT
ATOM      1  C   UNL     1       8.288   0.194  -2.573  1.00  0.00     0.080 C 
ENDROOT
BRANCH   1   2
ATOM      2  C   UNL     1       7.970  -1.242  -2.709  1.00  0.00     0.130 C 
ATOM      3  C   UNL     1       9.056  -2.193  -3.021  1.00  0.00     0.087 C 
ATOM      4  O   UNL     1       6.831  -1.609  -2.563  1.00  0.00    -0.300 OA
ENDBRANCH   1   2
BRANCH   1   5
ATOM      5  C   UNL     1       8.839   0.506  -1.197  1.00  0.00     0.043 C 
BRANCH   5   6
ATOM      6  C   UNL     1       7.780   0.425  -0.187  1.00  0.00    -0.044 A 
ATOM      7  C   UNL     1       7.791  -0.582   0.755  1.00  0.00     0.008 A 
ATOM      8  C   UNL     1       6.743   1.340  -0.139  1.00  0.00     0.054 A 
ATOM      9  C   UNL     1       6.804  -0.694   1.730  1.00  0.00     0.051 A 
ATOM     10  C   UNL     1       5.741   1.254   0.825  1.00  0.00     0.166 A 
ATOM     11  C   UNL     1       5.781   0.235   1.753  1.00  0.00     0.165 A 
ATOM     12  O   UNL     1       4.604   2.008   1.113  1.00  0.00    -0.454 OA
ATOM     13  O   UNL     1       4.680   0.379   2.586  1.00  0.00    -0.454 OA
ATOM     14  C   UNL     1       3.780   1.333   2.029  1.00  0.00     0.468 C 
ENDBRANCH   5   6
ENDBRANCH   1   5
TORSDOF 3
ENDMDL
