@<TRIPOS>MOLECULE
/home/cewinharhar/GITHUB/reincatalyze/data/processed/docking_pred/2023-May-31-1603_sub9_nm5_bs15_s42_ex16_mel10_mts1000_k50_ec05_g099_lra3e-4_lrc9e-3/354626f0a3e222b5e9865005b72eb67019ec4e19_ligand_9.pdbqt
 14 15 0 0 0
SMALL
GASTEIGER

@<TRIPOS>ATOM
      1  C          6.3710    1.2050    0.9590 C.3     1  UNL1        0.0800
      2  C          5.6260    0.4180    1.9620 C.2     1  UNL1        0.1300
      3  C          6.2500   -0.7890    2.5410 C.3     1  UNL1        0.0870
      4  O          4.5220    0.7780    2.2890 O.2     1  UNL1       -0.3000
      5  C          5.8710    0.9220   -0.4420 C.3     1  UNL1        0.0430
      6  C          6.7830    0.0110   -1.1410 C.2     1  UNL1       -0.0440
      7  C          7.3450    0.3780   -2.3460 C.2     1  UNL1        0.0080
      8  C          7.1100   -1.2320   -0.6290 C.2     1  UNL1        0.0540
      9  C          8.2140   -0.4580   -3.0420 C.2     1  UNL1        0.0510
     10  C          7.9780   -2.0890   -1.3020 C.2     1  UNL1        0.1660
     11  C          8.5230   -1.6940   -2.5060 C.2     1  UNL1        0.1650
     12  O          8.4790   -3.3640   -1.0410 O.2     1  UNL1       -0.4540
     13  O          9.3400   -2.7200   -2.9570 O.2     1  UNL1       -0.4540
     14  C          9.1110   -3.8920   -2.1790 C.3     1  UNL1        0.4680
@<TRIPOS>BOND
     1     9    11    2
     2     9     7    1
     3    13    11    1
     4    13    14    1
     5    11    10    1
     6     7     6    2
     7    14    12    1
     8    10    12    1
     9    10     8    2
    10     6     8    1
    11     6     5    1
    12     5     1    1
    13     1     2    1
    14     2     4    2
    15     2     3    1
