@<TRIPOS>MOLECULE
/home/cewinharhar/GITHUB/reincatalyze/data/processed/docking_pred/2023-May-31-1603_sub9_nm5_bs15_s42_ex16_mel10_mts1000_k50_ec05_g099_lra3e-4_lrc9e-3/354626f0a3e222b5e9865005b72eb67019ec4e19_ligand_9.pdbqt
 14 15 0 0 0
SMALL
GASTEIGER

@<TRIPOS>ATOM
      1  C          5.6440    1.8360    1.3600 C.3     1  UNL1        0.0800
      2  C          5.1590    0.6360    2.0720 C.2     1  UNL1        0.1300
      3  C          6.0780   -0.5010    2.2770 C.3     1  UNL1        0.0870
      4  O          4.0210    0.6100    2.4710 O.2     1  UNL1       -0.3000
      5  C          5.4530    1.7010   -0.1360 C.3     1  UNL1        0.0430
      6  C          6.5740    0.9710   -0.7340 C.2     1  UNL1       -0.0440
      7  C          7.8670    1.4220   -0.5690 C.2     1  UNL1        0.0080
      8  C          6.3850   -0.1810   -1.4780 C.2     1  UNL1        0.0540
      9  C          8.9600    0.7590   -1.1210 C.2     1  UNL1        0.0510
     10  C          7.4580   -0.8670   -2.0420 C.2     1  UNL1        0.1660
     11  C          8.7390   -0.3900   -1.8580 C.2     1  UNL1        0.1650
     12  O          7.5730   -2.0200   -2.8170 O.2     1  UNL1       -0.4540
     13  O          9.6080   -1.2480   -2.5170 O.2     1  UNL1       -0.4540
     14  C          8.8670   -2.1310   -3.3540 C.3     1  UNL1        0.4680
@<TRIPOS>BOND
     1    14    12    1
     2    14    13    1
     3    12    10    1
     4    13    11    1
     5    10    11    2
     6    10     8    1
     7    11     9    1
     8     8     6    2
     9     9     7    2
    10     6     7    1
    11     6     5    1
    12     5     1    1
    13     1     2    1
    14     2     3    1
    15     2     4    2
