@<TRIPOS>MOLECULE
/home/cewinharhar/GITHUB/reincatalyze/data/processed/docking_pred/2023-May-31-1603_sub9_nm5_bs15_s42_ex16_mel10_mts1000_k50_ec05_g099_lra3e-4_lrc9e-3/354626f0a3e222b5e9865005b72eb67019ec4e19_ligand_9.pdbqt
 14 15 0 0 0
SMALL
GASTEIGER

@<TRIPOS>ATOM
      1  C          5.6510    1.3600   -0.2610 C.3     1  UNL1        0.0800
      2  C          5.0310    1.2600    1.0750 C.2     1  UNL1        0.1300
      3  C          5.3870    0.1260    1.9520 C.3     1  UNL1        0.0870
      4  O          4.2460    2.1080    1.4240 O.2     1  UNL1       -0.3000
      5  C          7.1520    1.1720   -0.1860 C.3     1  UNL1        0.0430
      6  C          7.5390   -0.1160   -0.7680 C.2     1  UNL1       -0.0440
      7  C          7.4470   -0.3210   -2.1290 C.2     1  UNL1        0.0080
      8  C          8.0050   -1.1610    0.0110 C.2     1  UNL1        0.0540
      9  C          7.8040   -1.5300   -2.7210 C.2     1  UNL1        0.0510
     10  C          8.3700   -2.3810   -0.5530 C.2     1  UNL1        0.1660
     11  C          8.2660   -2.5550   -1.9170 C.2     1  UNL1        0.1650
     12  O          8.8590   -3.5810   -0.0370 O.2     1  UNL1       -0.4540
     13  O          8.6880   -3.8440   -2.2120 O.2     1  UNL1       -0.4540
     14  C          8.8090   -4.5960   -1.0070 C.3     1  UNL1        0.4680
@<TRIPOS>BOND
     1     9     7    1
     2     9    11    2
     3    13    11    1
     4    13    14    1
     5     7     6    2
     6    11    10    1
     7    14    12    1
     8     6     5    1
     9     6     8    1
    10    10    12    1
    11    10     8    2
    12     1     5    1
    13     1     2    1
    14     2     4    2
    15     2     3    1
