@<TRIPOS>MOLECULE
/home/cewinharhar/GITHUB/reincatalyze/data/processed/docking_pred/2023-May-31-1603_sub9_nm5_bs15_s42_ex16_mel10_mts1000_k50_ec05_g099_lra3e-4_lrc9e-3/354626f0a3e222b5e9865005b72eb67019ec4e19_ligand_9.pdbqt
 14 15 0 0 0
SMALL
GASTEIGER

@<TRIPOS>ATOM
      1  C          8.2880    0.1940   -2.5730 C.3     1  UNL1        0.0800
      2  C          7.9700   -1.2420   -2.7090 C.2     1  UNL1        0.1300
      3  C          9.0560   -2.1930   -3.0210 C.3     1  UNL1        0.0870
      4  O          6.8310   -1.6090   -2.5630 O.2     1  UNL1       -0.3000
      5  C          8.8390    0.5060   -1.1970 C.3     1  UNL1        0.0430
      6  C          7.7800    0.4250   -0.1870 C.2     1  UNL1       -0.0440
      7  C          7.7910   -0.5820    0.7550 C.2     1  UNL1        0.0080
      8  C          6.7430    1.3400   -0.1390 C.2     1  UNL1        0.0540
      9  C          6.8040   -0.6940    1.7300 C.2     1  UNL1        0.0510
     10  C          5.7410    1.2540    0.8250 C.2     1  UNL1        0.1660
     11  C          5.7810    0.2350    1.7530 C.2     1  UNL1        0.1650
     12  O          4.6040    2.0080    1.1130 O.2     1  UNL1       -0.4540
     13  O          4.6800    0.3790    2.5860 O.2     1  UNL1       -0.4540
     14  C          3.7800    1.3330    2.0290 C.3     1  UNL1        0.4680
@<TRIPOS>BOND
     1     3     2    1
     2     2     1    1
     3     2     4    2
     4     1     5    1
     5     5     6    1
     6     6     8    2
     7     6     7    1
     8     8    10    1
     9     7     9    2
    10    10    12    1
    11    10    11    2
    12    12    14    1
    13     9    11    1
    14    11    13    1
    15    14    13    1
