@<TRIPOS>MOLECULE
/home/cewinharhar/GITHUB/reincatalyze/data/processed/docking_pred/2023-May-31-1603_sub9_nm5_bs15_s42_ex16_mel10_mts1000_k50_ec05_g099_lra3e-4_lrc9e-3/36543b95c0c748273319382419c31c9b55863a9a_ligand_9.pdbqt
 14 15 0 0 0
SMALL
GASTEIGER

@<TRIPOS>ATOM
      1  C          8.7940   -3.6040    0.9130 C.3     1  UNL1        0.0800
      2  C          8.6930   -4.8700    0.1590 C.2     1  UNL1        0.1300
      3  C          9.2410   -4.9380   -1.2110 C.3     1  UNL1        0.0870
      4  O          8.1660   -5.8220    0.6780 O.2     1  UNL1       -0.3000
      5  C          7.6240   -3.4340    1.8590 C.3     1  UNL1        0.0430
      6  C          7.1650   -2.0420    1.8670 C.2     1  UNL1       -0.0440
      7  C          8.0760   -1.0090    1.9370 C.2     1  UNL1        0.0080
      8  C          5.8220   -1.7130    1.8050 C.2     1  UNL1        0.0540
      9  C          7.6820    0.3270    1.9470 C.2     1  UNL1        0.0510
     10  C          5.3970   -0.3870    1.8140 C.2     1  UNL1        0.1660
     11  C          6.3330    0.6240    1.8850 C.2     1  UNL1        0.1650
     12  O          4.1490    0.2340    1.7640 O.2     1  UNL1       -0.4540
     13  O          5.6510    1.8320    1.8770 O.2     1  UNL1       -0.4540
     14  C          4.2600    1.5990    2.0740 C.3     1  UNL1        0.4680
@<TRIPOS>BOND
     1     3     2    1
     2     2     4    2
     3     2     1    1
     4     1     5    1
     5    12    10    1
     6    12    14    1
     7     8    10    1
     8     8     6    2
     9    10    11    2
    10     5     6    1
    11     6     7    1
    12    13    11    1
    13    13    14    1
    14    11     9    1
    15     7     9    2
