@<TRIPOS>MOLECULE
/home/cewinharhar/GITHUB/reincatalyze/data/processed/docking_pred/2023-May-31-1603_sub9_nm5_bs15_s42_ex16_mel10_mts1000_k50_ec05_g099_lra3e-4_lrc9e-3/36543b95c0c748273319382419c31c9b55863a9a_ligand_9.pdbqt
 14 15 0 0 0
SMALL
GASTEIGER

@<TRIPOS>ATOM
      1  C          6.1670    1.3740    1.9270 C.3     1  UNL1        0.0800
      2  C          4.9410    1.7740    1.2080 C.2     1  UNL1        0.1300
      3  C          5.0310    2.1500   -0.2170 C.3     1  UNL1        0.0870
      4  O          3.8900    1.7850    1.8000 O.2     1  UNL1       -0.3000
      5  C          5.9840    0.0440    2.6280 C.3     1  UNL1        0.0430
      6  C          6.9670   -0.9310    2.1490 C.2     1  UNL1       -0.0440
      7  C          8.2590   -0.5370    1.8660 C.2     1  UNL1        0.0080
      8  C          6.6460   -2.2640    1.9620 C.2     1  UNL1        0.0540
      9  C          9.2220   -1.4310    1.4080 C.2     1  UNL1        0.0510
     10  C          7.5890   -3.1820    1.5050 C.2     1  UNL1        0.1660
     11  C          8.8720   -2.7560    1.2310 C.2     1  UNL1        0.1650
     12  O          7.5590   -4.5490    1.2300 O.2     1  UNL1       -0.4540
     13  O          9.5980   -3.8560    0.7980 O.2     1  UNL1       -0.4540
     14  C          8.7130   -4.9410    0.5330 C.3     1  UNL1        0.4680
@<TRIPOS>BOND
     1     3     2    1
     2    14    13    1
     3    14    12    1
     4    13    11    1
     5     2     4    2
     6     2     1    1
     7    12    10    1
     8    11     9    2
     9    11    10    1
    10     9     7    1
    11    10     8    2
    12     7     6    2
    13     1     5    1
    14     8     6    1
    15     6     5    1
