@<TRIPOS>MOLECULE
/home/cewinharhar/GITHUB/reincatalyze/data/processed/docking_pred/2023-May-31-1603_sub9_nm5_bs15_s42_ex16_mel10_mts1000_k50_ec05_g099_lra3e-4_lrc9e-3/36543b95c0c748273319382419c31c9b55863a9a_ligand_9.pdbqt
 14 15 0 0 0
SMALL
GASTEIGER

@<TRIPOS>ATOM
      1  C          6.6330    0.7200    2.5050 C.3     1  UNL1        0.0800
      2  C          5.9310    1.5020    1.4670 C.2     1  UNL1        0.1300
      3  C          4.4560    1.4710    1.4160 C.3     1  UNL1        0.0870
      4  O          6.5780    2.1500    0.6810 O.2     1  UNL1       -0.3000
      5  C          6.1230   -0.7050    2.5570 C.3     1  UNL1        0.0430
      6  C          7.1210   -1.6300    2.0120 C.2     1  UNL1       -0.0440
      7  C          8.3830   -1.1780    1.6840 C.2     1  UNL1        0.0080
      8  C          6.8440   -2.9700    1.8080 C.2     1  UNL1        0.0540
      9  C          9.3590   -2.0230    1.1640 C.2     1  UNL1        0.0510
     10  C          7.8010   -3.8390    1.2890 C.2     1  UNL1        0.1660
     11  C          9.0530   -3.3570    0.9710 C.2     1  UNL1        0.1650
     12  O          7.8120   -5.2000    0.9830 O.2     1  UNL1       -0.4540
     13  O          9.8020   -4.4170    0.4800 O.2     1  UNL1       -0.4540
     14  C          8.9490   -5.5300    0.2270 C.3     1  UNL1        0.4680
@<TRIPOS>BOND
     1    14    13    1
     2    14    12    1
     3    13    11    1
     4     4     2    2
     5    11     9    2
     6    11    10    1
     7    12    10    1
     8     9     7    1
     9    10     8    2
    10     3     2    1
    11     2     1    1
    12     7     6    2
    13     8     6    1
    14     6     5    1
    15     1     5    1
