@<TRIPOS>MOLECULE
/home/cewinharhar/GITHUB/reincatalyze/data/processed/docking_pred/2023-May-31-1603_sub9_nm5_bs15_s42_ex16_mel10_mts1000_k50_ec05_g099_lra3e-4_lrc9e-3/36543b95c0c748273319382419c31c9b55863a9a_ligand_9.pdbqt
 14 15 0 0 0
SMALL
GASTEIGER

@<TRIPOS>ATOM
      1  C          6.7560    2.1500    1.0990 C.3     1  UNL1        0.0800
      2  C          5.3660    2.0890    0.6030 C.2     1  UNL1        0.1300
      3  C          5.1180    2.1270   -0.8520 C.3     1  UNL1        0.0870
      4  O          4.4620    2.0090    1.3980 O.2     1  UNL1       -0.3000
      5  C          6.9110    1.3810    2.3950 C.3     1  UNL1        0.0430
      6  C          7.1260   -0.0440    2.1260 C.2     1  UNL1       -0.0440
      7  C          6.1220   -0.9580    2.3700 C.2     1  UNL1        0.0080
      8  C          8.3240   -0.5220    1.6250 C.2     1  UNL1        0.0540
      9  C          6.2860   -2.3190    2.1290 C.2     1  UNL1        0.0510
     10  C          8.5170   -1.8790    1.3740 C.2     1  UNL1        0.1660
     11  C          7.4940   -2.7670    1.6280 C.2     1  UNL1        0.1650
     12  O          9.5830   -2.6330    0.8840 O.2     1  UNL1       -0.4540
     13  O          7.9440   -4.0370    1.2950 O.2     1  UNL1       -0.4540
     14  C          9.3520   -4.0040    1.0790 C.3     1  UNL1        0.4680
@<TRIPOS>BOND
     1     3     2    1
     2     2     1    1
     3     2     4    2
     4    12    14    1
     5    12    10    1
     6    14    13    1
     7     1     5    1
     8    13    11    1
     9    10     8    1
    10    10    11    2
    11     8     6    2
    12    11     9    1
    13     6     7    1
    14     6     5    1
    15     9     7    2
