@<TRIPOS>MOLECULE
/home/cewinharhar/GITHUB/reincatalyze/data/processed/docking_pred/2023-May-31-1603_sub9_nm5_bs15_s42_ex16_mel10_mts1000_k50_ec05_g099_lra3e-4_lrc9e-3/36543b95c0c748273319382419c31c9b55863a9a_ligand_9.pdbqt
 14 15 0 0 0
SMALL
GASTEIGER

@<TRIPOS>ATOM
      1  C          5.0270   -0.1430    1.7680 C.3     1  UNL1        0.0800
      2  C          4.2440    1.0970    1.9390 C.2     1  UNL1        0.1300
      3  C          2.8850    1.0180    2.5140 C.3     1  UNL1        0.0870
      4  O          4.7290    2.1500    1.6070 O.2     1  UNL1       -0.3000
      5  C          6.3680   -0.0460    2.4650 C.3     1  UNL1        0.0430
      6  C          7.2760   -1.0910    1.9820 C.2     1  UNL1       -0.0440
      7  C          8.5810   -0.7840    1.6560 C.2     1  UNL1        0.0080
      8  C          6.8680   -2.4050    1.8370 C.2     1  UNL1        0.0540
      9  C          9.4740   -1.7460    1.1940 C.2     1  UNL1        0.0510
     10  C          7.7390   -3.3900    1.3770 C.2     1  UNL1        0.1660
     11  C          9.0380   -3.0510    1.0590 C.2     1  UNL1        0.1650
     12  O          7.6180   -4.7580    1.1350 O.2     1  UNL1       -0.4540
     13  O          9.6830   -4.2030    0.6320 O.2     1  UNL1       -0.4540
     14  C          8.7250   -5.2360    0.4170 C.3     1  UNL1        0.4680
@<TRIPOS>BOND
     1    14    13    1
     2    14    12    1
     3    13    11    1
     4    11     9    2
     5    11    10    1
     6    12    10    1
     7     9     7    1
     8    10     8    2
     9     4     2    2
    10     7     6    2
    11     1     2    1
    12     1     5    1
    13     8     6    1
    14     2     3    1
    15     6     5    1
