MODEL 1
REMARK VINA RESULT:      -2.2      0.000      0.000
REMARK SMILES CC(=O)CCc1ccc2c(c1)OCO2
REMARK SMILES IDX 4 1 2 2 1 3 3 4 5 5 6 6 7 7 11 8 8 9 10 10 9 11 12 12 14 13
REMARK SMILES IDX 13 14
REMARK H PARENT
REMARK Flexibility Score: inf
ROOT
ATOM      1  C   UNL     1       6.167   1.374   1.927  1.00  0.00     0.080 C 
ENDROOT
BRANCH   1   2
ATOM      2  C   UNL     1       4.941   1.774   1.208  1.00  0.00     0.130 C 
ATOM      3  C   UNL     1       5.031   2.150  -0.217  1.00  0.00     0.087 C 
ATOM      4  O   UNL     1       3.890   1.785   1.800  1.00  0.00    -0.300 OA
ENDBRANCH   1   2
BRANCH   1   5
ATOM      5  C   UNL     1       5.984   0.044   2.628  1.00  0.00     0.043 C 
BRANCH   5   6
ATOM      6  C   UNL     1       6.967  -0.931   2.149  1.00  0.00    -0.044 A 
ATOM      7  C   UNL     1       8.259  -0.537   1.866  1.00  0.00     0.008 A 
ATOM      8  C   UNL     1       6.646  -2.264   1.962  1.00  0.00     0.054 A 
ATOM      9  C   UNL     1       9.222  -1.431   1.408  1.00  0.00     0.051 A 
ATOM     10  C   UNL     1       7.589  -3.182   1.505  1.00  0.00     0.166 A 
ATOM     11  C   UNL     1       8.872  -2.756   1.231  1.00  0.00     0.165 A 
ATOM     12  O   UNL     1       7.559  -4.549   1.230  1.00  0.00    -0.454 OA
ATOM     13  O   UNL     1       9.598  -3.856   0.798  1.00  0.00    -0.454 OA
ATOM     14  C   UNL     1       8.713  -4.941   0.533  1.00  0.00     0.468 C 
ENDBRANCH   5   6
ENDBRANCH   1   5
TORSDOF 3
ENDMDL
MODEL 2
REMARK VINA RESULT:      -0.8      0.854      1.788
REMARK SMILES CC(=O)CCc1ccc2c(c1)OCO2
REMARK SMILES IDX 4 1 2 2 1 3 3 4 5 5 6 6 7 7 11 8 8 9 10 10 9 11 12 12 14 13
REMARK SMILES IDX 13 14
REMARK H PARENT
REMARK Flexibility Score: inf
ROOT
ATOM      1  C   UNL     1       6.756   2.150   1.099  1.00  0.00     0.080 C 
ENDROOT
BRANCH   1   2
ATOM      2  C   UNL     1       5.366   2.089   0.603  1.00  0.00     0.130 C 
ATOM      3  C   UNL     1       5.118   2.127  -0.852  1.00  0.00     0.087 C 
ATOM      4  O   UNL     1       4.462   2.009   1.398  1.00  0.00    -0.300 OA
ENDBRANCH   1   2
BRANCH   1   5
ATOM      5  C   UNL     1       6.911   1.381   2.395  1.00  0.00     0.043 C 
BRANCH   5   6
ATOM      6  C   UNL     1       7.126  -0.044   2.126  1.00  0.00    -0.044 A 
ATOM      7  C   UNL     1       6.122  -0.958   2.370  1.00  0.00     0.008 A 
ATOM      8  C   UNL     1       8.324  -0.522   1.625  1.00  0.00     0.054 A 
ATOM      9  C   UNL     1       6.286  -2.319   2.129  1.00  0.00     0.051 A 
ATOM     10  C   UNL     1       8.517  -1.879   1.374  1.00  0.00     0.166 A 
ATOM     11  C   UNL     1       7.494  -2.767   1.628  1.00  0.00     0.165 A 
ATOM     12  O   UNL     1       9.583  -2.633   0.884  1.00  0.00    -0.454 OA
ATOM     13  O   UNL     1       7.944  -4.037   1.295  1.00  0.00    -0.454 OA
ATOM     14  C   UNL     1       9.352  -4.004   1.079  1.00  0.00     0.468 C 
ENDBRANCH   5   6
ENDBRANCH   1   5
TORSDOF 3
ENDMDL
MODEL 3
REMARK VINA RESULT:      -0.3      0.943      1.216
REMARK SMILES CC(=O)CCc1ccc2c(c1)OCO2
REMARK SMILES IDX 4 1 2 2 1 3 3 4 5 5 6 6 7 7 11 8 8 9 10 10 9 11 12 12 14 13
REMARK SMILES IDX 13 14
REMARK H PARENT
REMARK Flexibility Score: inf
ROOT
ATOM      1  C   UNL     1       5.027  -0.143   1.768  1.00  0.00     0.080 C 
ENDROOT
BRANCH   1   2
ATOM      2  C   UNL     1       4.244   1.097   1.939  1.00  0.00     0.130 C 
ATOM      3  C   UNL     1       2.885   1.018   2.514  1.00  0.00     0.087 C 
ATOM      4  O   UNL     1       4.729   2.150   1.607  1.00  0.00    -0.300 OA
ENDBRANCH   1   2
BRANCH   1   5
ATOM      5  C   UNL     1       6.368  -0.046   2.465  1.00  0.00     0.043 C 
BRANCH   5   6
ATOM      6  C   UNL     1       7.276  -1.091   1.982  1.00  0.00    -0.044 A 
ATOM      7  C   UNL     1       8.581  -0.784   1.656  1.00  0.00     0.008 A 
ATOM      8  C   UNL     1       6.868  -2.405   1.837  1.00  0.00     0.054 A 
ATOM      9  C   UNL     1       9.474  -1.746   1.194  1.00  0.00     0.051 A 
ATOM     10  C   UNL     1       7.739  -3.390   1.377  1.00  0.00     0.166 A 
ATOM     11  C   UNL     1       9.038  -3.051   1.059  1.00  0.00     0.165 A 
ATOM     12  O   UNL     1       7.618  -4.758   1.135  1.00  0.00    -0.454 OA
ATOM     13  O   UNL     1       9.683  -4.203   0.632  1.00  0.00    -0.454 OA
ATOM     14  C   UNL     1       8.725  -5.236   0.417  1.00  0.00     0.468 C 
ENDBRANCH   5   6
ENDBRANCH   1   5
TORSDOF 3
ENDMDL
MODEL 4
REMARK VINA RESULT:      -0.3      1.323      5.619
REMARK SMILES CC(=O)CCc1ccc2c(c1)OCO2
REMARK SMILES IDX 4 1 2 2 1 3 3 4 5 5 6 6 7 7 11 8 8 9 10 10 9 11 12 12 14 13
REMARK SMILES IDX 13 14
REMARK H PARENT
REMARK Flexibility Score: inf
ROOT
ATOM      1  C   UNL     1       8.794  -3.604   0.913  1.00  0.00     0.080 C 
ENDROOT
BRANCH   1   2
ATOM      2  C   UNL     1       8.693  -4.870   0.159  1.00  0.00     0.130 C 
ATOM      3  C   UNL     1       9.241  -4.938  -1.211  1.00  0.00     0.087 C 
ATOM      4  O   UNL     1       8.166  -5.822   0.678  1.00  0.00    -0.300 OA
ENDBRANCH   1   2
BRANCH   1   5
ATOM      5  C   UNL     1       7.624  -3.434   1.859  1.00  0.00     0.043 C 
BRANCH   5   6
ATOM      6  C   UNL     1       7.165  -2.042   1.867  1.00  0.00    -0.044 A 
ATOM      7  C   UNL     1       8.076  -1.009   1.937  1.00  0.00     0.008 A 
ATOM      8  C   UNL     1       5.822  -1.713   1.805  1.00  0.00     0.054 A 
ATOM      9  C   UNL     1       7.682   0.327   1.947  1.00  0.00     0.051 A 
ATOM     10  C   UNL     1       5.397  -0.387   1.814  1.00  0.00     0.166 A 
ATOM     11  C   UNL     1       6.333   0.624   1.885  1.00  0.00     0.165 A 
ATOM     12  O   UNL     1       4.149   0.234   1.764  1.00  0.00    -0.454 OA
ATOM     13  O   UNL     1       5.651   1.832   1.877  1.00  0.00    -0.454 OA
ATOM     14  C   UNL     1       4.260   1.599   2.074  1.00  0.00     0.468 C 
ENDBRANCH   5   6
ENDBRANCH   1   5
TORSDOF 3
ENDMDL
MODEL 5
REMARK VINA RESULT:      -0.2      1.127      1.172
REMARK SMILES CC(=O)CCc1ccc2c(c1)OCO2
REMARK SMILES IDX 4 1 2 2 1 3 3 4 5 5 6 6 7 7 11 8 8 9 10 10 9 11 12 12 14 13
REMARK SMILES IDX 13 14
REMARK H PARENT
REMARK Flexibility Score: inf
ROOT
ATOM      1  C   UNL     1       6.633   0.720   2.505  1.00  0.00     0.080 C 
ENDROOT
BRANCH   1   2
ATOM      2  C   UNL     1       5.931   1.502   1.467  1.00  0.00     0.130 C 
ATOM      3  C   UNL     1       4.456   1.471   1.416  1.00  0.00     0.087 C 
ATOM      4  O   UNL     1       6.578   2.150   0.681  1.00  0.00    -0.300 OA
ENDBRANCH   1   2
BRANCH   1   5
ATOM      5  C   UNL     1       6.123  -0.705   2.557  1.00  0.00     0.043 C 
BRANCH   5   6
ATOM      6  C   UNL     1       7.121  -1.630   2.012  1.00  0.00    -0.044 A 
ATOM      7  C   UNL     1       8.383  -1.178   1.684  1.00  0.00     0.008 A 
ATOM      8  C   UNL     1       6.844  -2.970   1.808  1.00  0.00     0.054 A 
ATOM      9  C   UNL     1       9.359  -2.023   1.164  1.00  0.00     0.051 A 
ATOM     10  C   UNL     1       7.801  -3.839   1.289  1.00  0.00     0.166 A 
ATOM     11  C   UNL     1       9.053  -3.357   0.971  1.00  0.00     0.165 A 
ATOM     12  O   UNL     1       7.812  -5.200   0.983  1.00  0.00    -0.454 OA
ATOM     13  O   UNL     1       9.802  -4.417   0.480  1.00  0.00    -0.454 OA
ATOM     14  C   UNL     1       8.949  -5.530   0.227  1.00  0.00     0.468 C 
ENDBRANCH   5   6
ENDBRANCH   1   5
TORSDOF 3
ENDMDL
