@<TRIPOS>MOLECULE
/home/cewinharhar/GITHUB/reincatalyze/data/processed/docking_pred/2023-May-31-1603_sub9_nm5_bs15_s42_ex16_mel10_mts1000_k50_ec05_g099_lra3e-4_lrc9e-3/367438b83e07ec58543242b49c62b5ced391bd04_ligand_9.pdbqt
 14 15 0 0 0
SMALL
GASTEIGER

@<TRIPOS>ATOM
      1  C          5.9930   -0.1140    0.8090 C.3     1  UNL1        0.0800
      2  C          5.1130    0.9510    1.3310 C.2     1  UNL1        0.1300
      3  C          4.8610    2.1480    0.5030 C.3     1  UNL1        0.0870
      4  O          4.6170    0.8210    2.4230 O.2     1  UNL1       -0.3000
      5  C          6.5790    0.2680   -0.5340 C.3     1  UNL1        0.0430
      6  C          7.3570   -0.8430   -1.0910 C.2     1  UNL1       -0.0440
      7  C          7.8050   -0.7950   -2.3950 C.2     1  UNL1        0.0080
      8  C          7.6680   -1.9660   -0.3450 C.2     1  UNL1        0.0540
      9  C          8.5460   -1.8280   -2.9620 C.2     1  UNL1        0.0510
     10  C          8.4070   -3.0160   -0.8840 C.2     1  UNL1        0.1660
     11  C          8.8410   -2.9380   -2.1910 C.2     1  UNL1        0.1650
     12  O          8.8610   -4.2380   -0.3900 O.2     1  UNL1       -0.4540
     13  O          9.5440   -4.1000   -2.4730 O.2     1  UNL1       -0.4540
     14  C          9.3360   -5.0510   -1.4330 C.3     1  UNL1        0.4680
@<TRIPOS>BOND
     1     9     7    1
     2     9    11    2
     3    13    11    1
     4    13    14    1
     5     7     6    2
     6    11    10    1
     7    14    12    1
     8     6     5    1
     9     6     8    1
    10    10    12    1
    11    10     8    2
    12     5     1    1
    13     3     2    1
    14     1     2    1
    15     2     4    2
