@<TRIPOS>MOLECULE
/home/cewinharhar/GITHUB/reincatalyze/data/processed/docking_pred/2023-May-31-1603_sub9_nm5_bs15_s42_ex16_mel10_mts1000_k50_ec05_g099_lra3e-4_lrc9e-3/367438b83e07ec58543242b49c62b5ced391bd04_ligand_9.pdbqt
 14 15 0 0 0
SMALL
GASTEIGER

@<TRIPOS>ATOM
      1  C          8.4870    0.3040   -2.5110 C.3     1  UNL1        0.0800
      2  C          8.5240   -1.1520   -2.7560 C.2     1  UNL1        0.1300
      3  C          7.2550   -1.8930   -2.8950 C.3     1  UNL1        0.0870
      4  O          9.5920   -1.7070   -2.8360 O.2     1  UNL1       -0.3000
      5  C          8.9820    0.6400   -1.1200 C.3     1  UNL1        0.0430
      6  C          7.8980    0.5060   -0.1420 C.2     1  UNL1       -0.0440
      7  C          7.8820   -0.5570    0.7380 C.2     1  UNL1        0.0080
      8  C          6.8650    1.4230   -0.0630 C.2     1  UNL1        0.0540
      9  C          6.8710   -0.7210    1.6820 C.2     1  UNL1        0.0510
     10  C          5.8400    1.2850    0.8700 C.2     1  UNL1        0.1660
     11  C          5.8530    0.2120    1.7370 C.2     1  UNL1        0.1650
     12  O          4.7010    2.0280    1.1780 O.2     1  UNL1       -0.4540
     13  O          4.7330    0.3130    2.5500 O.2     1  UNL1       -0.4540
     14  C          3.8520    1.3050    2.0320 C.3     1  UNL1        0.4680
@<TRIPOS>BOND
     1     3     2    1
     2     4     2    2
     3     2     1    1
     4     1     5    1
     5     5     6    1
     6     6     8    2
     7     6     7    1
     8     8    10    1
     9     7     9    2
    10    10    12    1
    11    10    11    2
    12    12    14    1
    13     9    11    1
    14    11    13    1
    15    14    13    1
