@<TRIPOS>MOLECULE
/home/cewinharhar/GITHUB/reincatalyze/data/processed/docking_pred/2023-May-31-1603_sub9_nm5_bs15_s42_ex16_mel10_mts1000_k50_ec05_g099_lra3e-4_lrc9e-3/37a8b72800122466266a4bb22cdda1f56f02b914_ligand_9.pdbqt
 14 15 0 0 0
SMALL
GASTEIGER

@<TRIPOS>ATOM
      1  C          6.2530    1.2860    0.9310 C.3     1  UNL1        0.0800
      2  C          5.5600    0.4580    1.9380 C.2     1  UNL1        0.1300
      3  C          6.2580   -0.7090    2.5150 C.3     1  UNL1        0.0870
      4  O          4.4390    0.7520    2.2710 O.2     1  UNL1       -0.3000
      5  C          5.7580    0.9760   -0.4670 C.3     1  UNL1        0.0430
      6  C          6.7120    0.1160   -1.1720 C.2     1  UNL1       -0.0440
      7  C          7.3720    0.5780   -2.2920 C.2     1  UNL1        0.0080
      8  C          6.9850   -1.1740   -0.7510 C.2     1  UNL1        0.0540
      9  C          8.2850   -0.2080   -2.9910 C.2     1  UNL1        0.0510
     10  C          7.8940   -1.9830   -1.4290 C.2     1  UNL1        0.1660
     11  C          8.5370   -1.4920   -2.5460 C.2     1  UNL1        0.1650
     12  O          8.3590   -3.2850   -1.2460 O.2     1  UNL1       -0.4540
     13  O          9.3750   -2.4890   -3.0230 O.2     1  UNL1       -0.4540
     14  C          9.0740   -3.7210   -2.3740 C.3     1  UNL1        0.4680
@<TRIPOS>BOND
     1    13    11    1
     2    13    14    1
     3     9    11    2
     4     9     7    1
     5    11    10    1
     6    14    12    1
     7     7     6    2
     8    10    12    1
     9    10     8    2
    10     6     8    1
    11     6     5    1
    12     5     1    1
    13     1     2    1
    14     2     4    2
    15     2     3    1
