@<TRIPOS>MOLECULE
/home/cewinharhar/GITHUB/reincatalyze/data/processed/docking_pred/2023-May-31-1603_sub9_nm5_bs15_s42_ex16_mel10_mts1000_k50_ec05_g099_lra3e-4_lrc9e-3/37a8b72800122466266a4bb22cdda1f56f02b914_ligand_9.pdbqt
 14 15 0 0 0
SMALL
GASTEIGER

@<TRIPOS>ATOM
      1  C          5.5250    1.9230    1.3320 C.3     1  UNL1        0.0800
      2  C          5.0570    0.7110    2.0330 C.2     1  UNL1        0.1300
      3  C          5.9800   -0.4300    2.1950 C.3     1  UNL1        0.0870
      4  O          3.9290    0.6780    2.4590 O.2     1  UNL1       -0.3000
      5  C          5.3640    1.7870   -0.1680 C.3     1  UNL1        0.0430
      6  C          6.4910    1.0460   -0.7430 C.2     1  UNL1       -0.0440
      7  C          7.7850    1.4690   -0.5240 C.2     1  UNL1        0.0080
      8  C          6.3050   -0.0870   -1.5150 C.2     1  UNL1        0.0540
      9  C          8.8830    0.7940   -1.0530 C.2     1  UNL1        0.0510
     10  C          7.3830   -0.7830   -2.0560 C.2     1  UNL1        0.1660
     11  C          8.6660   -0.3350   -1.8200 C.2     1  UNL1        0.1650
     12  O          7.5030   -1.9230   -2.8500 O.2     1  UNL1       -0.4540
     13  O          9.5400   -1.1980   -2.4650 O.2     1  UNL1       -0.4540
     14  C          8.8110   -2.0500   -3.3440 C.3     1  UNL1        0.4680
@<TRIPOS>BOND
     1    14    12    1
     2    14    13    1
     3    12    10    1
     4    13    11    1
     5    10    11    2
     6    10     8    1
     7    11     9    1
     8     8     6    2
     9     9     7    2
    10     6     7    1
    11     6     5    1
    12     5     1    1
    13     1     2    1
    14     2     3    1
    15     2     4    2
