MODEL 1
REMARK VINA RESULT:      -7.6      0.000      0.000
REMARK SMILES CC(=O)CCc1ccc2c(c1)OCO2
REMARK SMILES IDX 4 1 2 2 1 3 3 4 5 5 6 6 7 7 11 8 8 9 10 10 9 11 12 12 14 13
REMARK SMILES IDX 13 14
REMARK H PARENT
REMARK Flexibility Score: inf
ROOT
ATOM      1  C   UNL     1       5.525   1.923   1.332  1.00  0.00     0.080 C 
ENDROOT
BRANCH   1   2
ATOM      2  C   UNL     1       5.057   0.711   2.033  1.00  0.00     0.130 C 
ATOM      3  C   UNL     1       5.980  -0.430   2.195  1.00  0.00     0.087 C 
ATOM      4  O   UNL     1       3.929   0.678   2.459  1.00  0.00    -0.300 OA
ENDBRANCH   1   2
BRANCH   1   5
ATOM      5  C   UNL     1       5.364   1.787  -0.168  1.00  0.00     0.043 C 
BRANCH   5   6
ATOM      6  C   UNL     1       6.491   1.046  -0.743  1.00  0.00    -0.044 A 
ATOM      7  C   UNL     1       7.785   1.469  -0.524  1.00  0.00     0.008 A 
ATOM      8  C   UNL     1       6.305  -0.087  -1.515  1.00  0.00     0.054 A 
ATOM      9  C   UNL     1       8.883   0.794  -1.053  1.00  0.00     0.051 A 
ATOM     10  C   UNL     1       7.383  -0.783  -2.056  1.00  0.00     0.166 A 
ATOM     11  C   UNL     1       8.666  -0.335  -1.820  1.00  0.00     0.165 A 
ATOM     12  O   UNL     1       7.503  -1.923  -2.850  1.00  0.00    -0.454 OA
ATOM     13  O   UNL     1       9.540  -1.198  -2.465  1.00  0.00    -0.454 OA
ATOM     14  C   UNL     1       8.811  -2.050  -3.344  1.00  0.00     0.468 C 
ENDBRANCH   5   6
ENDBRANCH   1   5
TORSDOF 3
ENDMDL
MODEL 2
REMARK VINA RESULT:      -7.4      1.880      2.315
REMARK SMILES CC(=O)CCc1ccc2c(c1)OCO2
REMARK SMILES IDX 4 1 2 2 1 3 3 4 5 5 6 6 7 7 11 8 8 9 10 10 9 11 12 12 14 13
REMARK SMILES IDX 13 14
REMARK H PARENT
REMARK Flexibility Score: inf
ROOT
ATOM      1  C   UNL     1       5.610   1.231  -0.289  1.00  0.00     0.080 C 
ENDROOT
BRANCH   1   2
ATOM      2  C   UNL     1       5.049   1.190   1.077  1.00  0.00     0.130 C 
ATOM      3  C   UNL     1       5.254  -0.016   1.904  1.00  0.00     0.087 C 
ATOM      4  O   UNL     1       4.434   2.142   1.488  1.00  0.00    -0.300 OA
ENDBRANCH   1   2
BRANCH   1   5
ATOM      5  C   UNL     1       7.122   1.144  -0.263  1.00  0.00     0.043 C 
BRANCH   5   6
ATOM      6  C   UNL     1       7.576  -0.115  -0.861  1.00  0.00    -0.044 A 
ATOM      7  C   UNL     1       7.675  -0.239  -2.232  1.00  0.00     0.008 A 
ATOM      8  C   UNL     1       7.916  -1.212  -0.089  1.00  0.00     0.054 A 
ATOM      9  C   UNL     1       8.101  -1.418  -2.839  1.00  0.00     0.051 A 
ATOM     10  C   UNL     1       8.346  -2.403  -0.668  1.00  0.00     0.166 A 
ATOM     11  C   UNL     1       8.435  -2.496  -2.042  1.00  0.00     0.165 A 
ATOM     12  O   UNL     1       8.745  -3.640  -0.162  1.00  0.00    -0.454 OA
ATOM     13  O   UNL     1       8.881  -3.773  -2.351  1.00  0.00    -0.454 OA
ATOM     14  C   UNL     1       8.824  -4.595  -1.189  1.00  0.00     0.468 C 
ENDBRANCH   5   6
ENDBRANCH   1   5
TORSDOF 3
ENDMDL
MODEL 3
REMARK VINA RESULT:      -7.4      2.154      2.719
REMARK SMILES CC(=O)CCc1ccc2c(c1)OCO2
REMARK SMILES IDX 4 1 2 2 1 3 3 4 5 5 6 6 7 7 11 8 8 9 10 10 9 11 12 12 14 13
REMARK SMILES IDX 13 14
REMARK H PARENT
REMARK Flexibility Score: inf
ROOT
ATOM      1  C   UNL     1       5.292  -0.157   1.846  1.00  0.00     0.080 C 
ENDROOT
BRANCH   1   2
ATOM      2  C   UNL     1       4.530   1.095   1.669  1.00  0.00     0.130 C 
ATOM      3  C   UNL     1       4.969   2.068   0.649  1.00  0.00     0.087 C 
ATOM      4  O   UNL     1       3.564   1.298   2.363  1.00  0.00    -0.300 OA
ENDBRANCH   1   2
BRANCH   1   5
ATOM      5  C   UNL     1       6.771   0.062   1.603  1.00  0.00     0.043 C 
BRANCH   5   6
ATOM      6  C   UNL     1       7.271  -0.875   0.593  1.00  0.00    -0.044 A 
ATOM      7  C   UNL     1       7.141  -0.586  -0.750  1.00  0.00     0.008 A 
ATOM      8  C   UNL     1       7.883  -2.067   0.938  1.00  0.00     0.054 A 
ATOM      9  C   UNL     1       7.602  -1.449  -1.741  1.00  0.00     0.051 A 
ATOM     10  C   UNL     1       8.354  -2.950  -0.031  1.00  0.00     0.166 A 
ATOM     11  C   UNL     1       8.209  -2.632  -1.365  1.00  0.00     0.165 A 
ATOM     12  O   UNL     1       8.994  -4.188   0.013  1.00  0.00    -0.454 OA
ATOM     13  O   UNL     1       8.755  -3.669  -2.108  1.00  0.00    -0.454 OA
ATOM     14  C   UNL     1       9.012  -4.784  -1.259  1.00  0.00     0.468 C 
ENDBRANCH   5   6
ENDBRANCH   1   5
TORSDOF 3
ENDMDL
MODEL 4
REMARK VINA RESULT:      -7.1      1.225      5.143
REMARK SMILES CC(=O)CCc1ccc2c(c1)OCO2
REMARK SMILES IDX 4 1 2 2 1 3 3 4 5 5 6 6 7 7 11 8 8 9 10 10 9 11 12 12 14 13
REMARK SMILES IDX 13 14
REMARK H PARENT
REMARK Flexibility Score: inf
ROOT
ATOM      1  C   UNL     1       8.188   0.192  -2.584  1.00  0.00     0.080 C 
ENDROOT
BRANCH   1   2
ATOM      2  C   UNL     1       7.841  -1.241  -2.657  1.00  0.00     0.130 C 
ATOM      3  C   UNL     1       8.898  -2.224  -2.971  1.00  0.00     0.087 C 
ATOM      4  O   UNL     1       6.700  -1.581  -2.460  1.00  0.00    -0.300 OA
ENDBRANCH   1   2
BRANCH   1   5
ATOM      5  C   UNL     1       8.752   0.551  -1.225  1.00  0.00     0.043 C 
BRANCH   5   6
ATOM      6  C   UNL     1       7.711   0.466  -0.196  1.00  0.00    -0.044 A 
ATOM      7  C   UNL     1       7.772  -0.509   0.777  1.00  0.00     0.008 A 
ATOM      8  C   UNL     1       6.643   1.345  -0.161  1.00  0.00     0.054 A 
ATOM      9  C   UNL     1       6.803  -0.624   1.771  1.00  0.00     0.051 A 
ATOM     10  C   UNL     1       5.659   1.255   0.821  1.00  0.00     0.166 A 
ATOM     11  C   UNL     1       5.748   0.268   1.780  1.00  0.00     0.165 A 
ATOM     12  O   UNL     1       4.500   1.978   1.103  1.00  0.00    -0.454 OA
ATOM     13  O   UNL     1       4.655   0.401   2.625  1.00  0.00    -0.454 OA
ATOM     14  C   UNL     1       3.714   1.305   2.053  1.00  0.00     0.468 C 
ENDBRANCH   5   6
ENDBRANCH   1   5
TORSDOF 3
ENDMDL
MODEL 5
REMARK VINA RESULT:      -7.0      1.267      1.473
REMARK SMILES CC(=O)CCc1ccc2c(c1)OCO2
REMARK SMILES IDX 4 1 2 2 1 3 3 4 5 5 6 6 7 7 11 8 8 9 10 10 9 11 12 12 14 13
REMARK SMILES IDX 13 14
REMARK H PARENT
REMARK Flexibility Score: inf
ROOT
ATOM      1  C   UNL     1       6.253   1.286   0.931  1.00  0.00     0.080 C 
ENDROOT
BRANCH   1   2
ATOM      2  C   UNL     1       5.560   0.458   1.938  1.00  0.00     0.130 C 
ATOM      3  C   UNL     1       6.258  -0.709   2.515  1.00  0.00     0.087 C 
ATOM      4  O   UNL     1       4.439   0.752   2.271  1.00  0.00    -0.300 OA
ENDBRANCH   1   2
BRANCH   1   5
ATOM      5  C   UNL     1       5.758   0.976  -0.467  1.00  0.00     0.043 C 
BRANCH   5   6
ATOM      6  C   UNL     1       6.712   0.116  -1.172  1.00  0.00    -0.044 A 
ATOM      7  C   UNL     1       7.372   0.578  -2.292  1.00  0.00     0.008 A 
ATOM      8  C   UNL     1       6.985  -1.174  -0.751  1.00  0.00     0.054 A 
ATOM      9  C   UNL     1       8.285  -0.208  -2.991  1.00  0.00     0.051 A 
ATOM     10  C   UNL     1       7.894  -1.983  -1.429  1.00  0.00     0.166 A 
ATOM     11  C   UNL     1       8.537  -1.492  -2.546  1.00  0.00     0.165 A 
ATOM     12  O   UNL     1       8.359  -3.285  -1.246  1.00  0.00    -0.454 OA
ATOM     13  O   UNL     1       9.375  -2.489  -3.023  1.00  0.00    -0.454 OA
ATOM     14  C   UNL     1       9.074  -3.721  -2.374  1.00  0.00     0.468 C 
ENDBRANCH   5   6
ENDBRANCH   1   5
TORSDOF 3
ENDMDL
