@<TRIPOS>MOLECULE
/home/cewinharhar/GITHUB/reincatalyze/data/processed/docking_pred/2023-May-31-1603_sub9_nm5_bs15_s42_ex16_mel10_mts1000_k50_ec05_g099_lra3e-4_lrc9e-3/37a8b72800122466266a4bb22cdda1f56f02b914_ligand_9.pdbqt
 14 15 0 0 0
SMALL
GASTEIGER

@<TRIPOS>ATOM
      1  C          8.1880    0.1920   -2.5840 C.3     1  UNL1        0.0800
      2  C          7.8410   -1.2410   -2.6570 C.2     1  UNL1        0.1300
      3  C          8.8980   -2.2240   -2.9710 C.3     1  UNL1        0.0870
      4  O          6.7000   -1.5810   -2.4600 O.2     1  UNL1       -0.3000
      5  C          8.7520    0.5510   -1.2250 C.3     1  UNL1        0.0430
      6  C          7.7110    0.4660   -0.1960 C.2     1  UNL1       -0.0440
      7  C          7.7720   -0.5090    0.7770 C.2     1  UNL1        0.0080
      8  C          6.6430    1.3450   -0.1610 C.2     1  UNL1        0.0540
      9  C          6.8030   -0.6240    1.7710 C.2     1  UNL1        0.0510
     10  C          5.6590    1.2550    0.8210 C.2     1  UNL1        0.1660
     11  C          5.7480    0.2680    1.7800 C.2     1  UNL1        0.1650
     12  O          4.5000    1.9780    1.1030 O.2     1  UNL1       -0.4540
     13  O          4.6550    0.4010    2.6250 O.2     1  UNL1       -0.4540
     14  C          3.7140    1.3050    2.0530 C.3     1  UNL1        0.4680
@<TRIPOS>BOND
     1     3     2    1
     2     2     1    1
     3     2     4    2
     4     1     5    1
     5     5     6    1
     6     6     8    2
     7     6     7    1
     8     8    10    1
     9     7     9    2
    10    10    12    1
    11    10    11    2
    12    12    14    1
    13     9    11    1
    14    11    13    1
    15    14    13    1
