@<TRIPOS>MOLECULE
/home/cewinharhar/GITHUB/reincatalyze/data/processed/docking_pred/2023-May-31-1603_sub9_nm5_bs15_s42_ex16_mel10_mts1000_k50_ec05_g099_lra3e-4_lrc9e-3/37a8b72800122466266a4bb22cdda1f56f02b914_ligand_9.pdbqt
 14 15 0 0 0
SMALL
GASTEIGER

@<TRIPOS>ATOM
      1  C          5.2920   -0.1570    1.8460 C.3     1  UNL1        0.0800
      2  C          4.5300    1.0950    1.6690 C.2     1  UNL1        0.1300
      3  C          4.9690    2.0680    0.6490 C.3     1  UNL1        0.0870
      4  O          3.5640    1.2980    2.3630 O.2     1  UNL1       -0.3000
      5  C          6.7710    0.0620    1.6030 C.3     1  UNL1        0.0430
      6  C          7.2710   -0.8750    0.5930 C.2     1  UNL1       -0.0440
      7  C          7.1410   -0.5860   -0.7500 C.2     1  UNL1        0.0080
      8  C          7.8830   -2.0670    0.9380 C.2     1  UNL1        0.0540
      9  C          7.6020   -1.4490   -1.7410 C.2     1  UNL1        0.0510
     10  C          8.3540   -2.9500   -0.0310 C.2     1  UNL1        0.1660
     11  C          8.2090   -2.6320   -1.3650 C.2     1  UNL1        0.1650
     12  O          8.9940   -4.1880    0.0130 O.2     1  UNL1       -0.4540
     13  O          8.7550   -3.6690   -2.1080 O.2     1  UNL1       -0.4540
     14  C          9.0120   -4.7840   -1.2590 C.3     1  UNL1        0.4680
@<TRIPOS>BOND
     1    13    11    1
     2    13    14    1
     3     9    11    2
     4     9     7    1
     5    11    10    1
     6    14    12    1
     7     7     6    2
     8    10    12    1
     9    10     8    2
    10     6     8    1
    11     6     5    1
    12     3     2    1
    13     5     1    1
    14     2     1    1
    15     2     4    2
