@<TRIPOS>MOLECULE
/home/cewinharhar/GITHUB/reincatalyze/data/processed/docking_pred/2023-May-31-1603_sub9_nm5_bs15_s42_ex16_mel10_mts1000_k50_ec05_g099_lra3e-4_lrc9e-3/3b11ad51370e6150fddf32b3aa65dd5e24197163_ligand_9.pdbqt
 14 15 0 0 0
SMALL
GASTEIGER

@<TRIPOS>ATOM
      1  C          6.0330    1.6270    1.0900 C.3     1  UNL1        0.0800
      2  C          5.4790    0.6260    2.0240 C.2     1  UNL1        0.1300
      3  C          6.3000   -0.5440    2.3960 C.3     1  UNL1        0.0870
      4  O          4.3670    0.7840    2.4630 O.2     1  UNL1       -0.3000
      5  C          5.6610    1.3060   -0.3420 C.3     1  UNL1        0.0430
      6  C          6.7540    0.5920   -1.0100 C.2     1  UNL1       -0.0440
      7  C          8.0460    1.0710   -0.9370 C.2     1  UNL1        0.0080
      8  C          6.5380   -0.5700   -1.7290 C.2     1  UNL1        0.0540
      9  C          9.1110    0.4240   -1.5580 C.2     1  UNL1        0.0510
     10  C          7.5840   -1.2400   -2.3600 C.2     1  UNL1        0.1660
     11  C          8.8640   -0.7350   -2.2690 C.2     1  UNL1        0.1650
     12  O          7.6690   -2.3980   -3.1320 O.2     1  UNL1       -0.4540
     13  O          9.7030   -1.5830   -2.9780 O.2     1  UNL1       -0.4540
     14  C          8.9250   -2.4880   -3.7550 C.3     1  UNL1        0.4680
@<TRIPOS>BOND
     1    14    12    1
     2    14    13    1
     3    12    10    1
     4    13    11    1
     5    10    11    2
     6    10     8    1
     7    11     9    1
     8     8     6    2
     9     9     7    2
    10     6     7    1
    11     6     5    1
    12     5     1    1
    13     1     2    1
    14     2     3    1
    15     2     4    2
