@<TRIPOS>MOLECULE
/home/cewinharhar/GITHUB/reincatalyze/data/processed/docking_pred/2023-May-31-1603_sub9_nm5_bs15_s42_ex16_mel10_mts1000_k50_ec05_g099_lra3e-4_lrc9e-3/3b11ad51370e6150fddf32b3aa65dd5e24197163_ligand_9.pdbqt
 14 15 0 0 0
SMALL
GASTEIGER

@<TRIPOS>ATOM
      1  C          5.6190   -0.0530    1.4780 C.3     1  UNL1        0.0800
      2  C          4.8690    1.2190    1.4750 C.2     1  UNL1        0.1300
      3  C          5.0330    2.1480    0.3390 C.3     1  UNL1        0.0870
      4  O          4.1380    1.4730    2.4000 O.2     1  UNL1       -0.3000
      5  C          7.1130    0.1890    1.4190 C.3     1  UNL1        0.0430
      6  C          7.6320   -0.1230    0.0840 C.2     1  UNL1       -0.0440
      7  C          8.3390    0.8250   -0.6270 C.2     1  UNL1        0.0080
      8  C          7.4380   -1.3590   -0.5070 C.2     1  UNL1        0.0540
      9  C          8.8480    0.5690   -1.8980 C.2     1  UNL1        0.0510
     10  C          7.9360   -1.6440   -1.7760 C.2     1  UNL1        0.1660
     11  C          8.6380   -0.6750   -2.4620 C.2     1  UNL1        0.1650
     12  O          7.9000   -2.7660   -2.6030 O.2     1  UNL1       -0.4540
     13  O          9.0160   -1.2130   -3.6840 O.2     1  UNL1       -0.4540
     14  C          8.3260   -2.4400   -3.9010 C.3     1  UNL1        0.4680
@<TRIPOS>BOND
     1    14    13    1
     2    14    12    1
     3    13    11    1
     4    12    10    1
     5    11     9    2
     6    11    10    1
     7     9     7    1
     8    10     8    2
     9     7     6    2
    10     8     6    1
    11     6     5    1
    12     3     2    1
    13     5     1    1
    14     2     1    1
    15     2     4    2
