@<TRIPOS>MOLECULE
/home/cewinharhar/GITHUB/reincatalyze/data/processed/docking_pred/2023-May-31-1603_sub9_nm5_bs15_s42_ex16_mel10_mts1000_k50_ec05_g099_lra3e-4_lrc9e-3/3b11ad51370e6150fddf32b3aa65dd5e24197163_ligand_9.pdbqt
 14 15 0 0 0
SMALL
GASTEIGER

@<TRIPOS>ATOM
      1  C          6.2820    0.7000    1.9600 C.3     1  UNL1        0.0800
      2  C          5.0440    1.4260    1.6140 C.2     1  UNL1        0.1300
      3  C          4.9680    2.1500    0.3290 C.3     1  UNL1        0.0870
      4  O          4.1190    1.4130    2.3880 O.2     1  UNL1       -0.3000
      5  C          6.3450   -0.6430    1.2610 C.3     1  UNL1        0.0430
      6  C          7.0860   -0.5330    0.0010 C.2     1  UNL1       -0.0440
      7  C          6.6600   -1.2160   -1.1200 C.2     1  UNL1        0.0080
      8  C          8.2240    0.2450   -0.1140 C.2     1  UNL1        0.0540
      9  C          7.3360   -1.1390   -2.3340 C.2     1  UNL1        0.0510
     10  C          8.9210    0.3420   -1.3160 C.2     1  UNL1        0.1660
     11  C          8.4700   -0.3530   -2.4180 C.2     1  UNL1        0.1650
     12  O         10.0660    1.0270   -1.7220 O.2     1  UNL1       -0.4540
     13  O          9.3350   -0.0860   -3.4690 O.2     1  UNL1       -0.4540
     14  C         10.5010    0.5680   -2.9760 C.3     1  UNL1        0.4680
@<TRIPOS>BOND
     1    13    14    1
     2    13    11    1
     3    14    12    1
     4    11     9    2
     5    11    10    1
     6     9     7    1
     7    12    10    1
     8    10     8    2
     9     7     6    2
    10     8     6    1
    11     6     5    1
    12     3     2    1
    13     5     1    1
    14     2     1    1
    15     2     4    2
