@<TRIPOS>MOLECULE
/home/cewinharhar/GITHUB/reincatalyze/data/processed/docking_pred/2023-May-31-1603_sub9_nm5_bs15_s42_ex16_mel10_mts1000_k50_ec05_g099_lra3e-4_lrc9e-3/3b11ad51370e6150fddf32b3aa65dd5e24197163_ligand_9.pdbqt
 14 15 0 0 0
SMALL
GASTEIGER

@<TRIPOS>ATOM
      1  C          5.7830    1.0610   -0.2050 C.3     1  UNL1        0.0800
      2  C          5.3420    0.9620    1.2010 C.2     1  UNL1        0.1300
      3  C          5.7320   -0.2190    1.9970 C.3     1  UNL1        0.0870
      4  O          4.6730    1.8490    1.6700 O.2     1  UNL1       -0.3000
      5  C          7.2890    1.1850   -0.3010 C.3     1  UNL1        0.0430
      6  C          7.8270    0.2040   -1.2480 C.2     1  UNL1       -0.0440
      7  C          8.3940    0.6200   -2.4350 C.2     1  UNL1        0.0080
      8  C          7.7870   -1.1560   -0.9960 C.2     1  UNL1        0.0540
      9  C          8.9160   -0.2790   -3.3610 C.2     1  UNL1        0.0510
     10  C          8.3010   -2.0790   -1.9030 C.2     1  UNL1        0.1660
     11  C          8.8620   -1.6320   -3.0810 C.2     1  UNL1        0.1650
     12  O          8.4000   -3.4700   -1.9220 O.2     1  UNL1       -0.4540
     13  O          9.2900   -2.7420   -3.7940 O.2     1  UNL1       -0.4540
     14  C          8.7620   -3.9250   -3.2010 C.3     1  UNL1        0.4680
@<TRIPOS>BOND
     1    13    14    1
     2    13    11    1
     3     9    11    2
     4     9     7    1
     5    14    12    1
     6    11    10    1
     7     7     6    2
     8    12    10    1
     9    10     8    2
    10     6     8    1
    11     6     5    1
    12     5     1    1
    13     1     2    1
    14     2     4    2
    15     2     3    1
