MODEL 1
REMARK VINA RESULT:      -7.7      0.000      0.000
REMARK SMILES CC(=O)CCc1ccc2c(c1)OCO2
REMARK SMILES IDX 4 1 2 2 1 3 3 4 5 5 6 6 7 7 11 8 8 9 10 10 9 11 12 12 14 13
REMARK SMILES IDX 13 14
REMARK H PARENT
REMARK Flexibility Score: inf
ROOT
ATOM      1  C   UNL     1       6.033   1.627   1.090  1.00  0.00     0.080 C 
ENDROOT
BRANCH   1   2
ATOM      2  C   UNL     1       5.479   0.626   2.024  1.00  0.00     0.130 C 
ATOM      3  C   UNL     1       6.300  -0.544   2.396  1.00  0.00     0.087 C 
ATOM      4  O   UNL     1       4.367   0.784   2.463  1.00  0.00    -0.300 OA
ENDBRANCH   1   2
BRANCH   1   5
ATOM      5  C   UNL     1       5.661   1.306  -0.342  1.00  0.00     0.043 C 
BRANCH   5   6
ATOM      6  C   UNL     1       6.754   0.592  -1.010  1.00  0.00    -0.044 A 
ATOM      7  C   UNL     1       8.046   1.071  -0.937  1.00  0.00     0.008 A 
ATOM      8  C   UNL     1       6.538  -0.570  -1.729  1.00  0.00     0.054 A 
ATOM      9  C   UNL     1       9.111   0.424  -1.558  1.00  0.00     0.051 A 
ATOM     10  C   UNL     1       7.584  -1.240  -2.360  1.00  0.00     0.166 A 
ATOM     11  C   UNL     1       8.864  -0.735  -2.269  1.00  0.00     0.165 A 
ATOM     12  O   UNL     1       7.669  -2.398  -3.132  1.00  0.00    -0.454 OA
ATOM     13  O   UNL     1       9.703  -1.583  -2.978  1.00  0.00    -0.454 OA
ATOM     14  C   UNL     1       8.925  -2.488  -3.755  1.00  0.00     0.468 C 
ENDBRANCH   5   6
ENDBRANCH   1   5
TORSDOF 3
ENDMDL
MODEL 2
REMARK VINA RESULT:      -7.3      1.022      1.530
REMARK SMILES CC(=O)CCc1ccc2c(c1)OCO2
REMARK SMILES IDX 4 1 2 2 1 3 3 4 5 5 6 6 7 7 11 8 8 9 10 10 9 11 12 12 14 13
REMARK SMILES IDX 13 14
REMARK H PARENT
REMARK Flexibility Score: inf
ROOT
ATOM      1  C   UNL     1       5.619  -0.053   1.478  1.00  0.00     0.080 C 
ENDROOT
BRANCH   1   2
ATOM      2  C   UNL     1       4.869   1.219   1.475  1.00  0.00     0.130 C 
ATOM      3  C   UNL     1       5.033   2.148   0.339  1.00  0.00     0.087 C 
ATOM      4  O   UNL     1       4.138   1.473   2.400  1.00  0.00    -0.300 OA
ENDBRANCH   1   2
BRANCH   1   5
ATOM      5  C   UNL     1       7.113   0.189   1.419  1.00  0.00     0.043 C 
BRANCH   5   6
ATOM      6  C   UNL     1       7.632  -0.123   0.084  1.00  0.00    -0.044 A 
ATOM      7  C   UNL     1       8.339   0.825  -0.627  1.00  0.00     0.008 A 
ATOM      8  C   UNL     1       7.438  -1.359  -0.507  1.00  0.00     0.054 A 
ATOM      9  C   UNL     1       8.848   0.569  -1.898  1.00  0.00     0.051 A 
ATOM     10  C   UNL     1       7.936  -1.644  -1.776  1.00  0.00     0.166 A 
ATOM     11  C   UNL     1       8.638  -0.675  -2.462  1.00  0.00     0.165 A 
ATOM     12  O   UNL     1       7.900  -2.766  -2.603  1.00  0.00    -0.454 OA
ATOM     13  O   UNL     1       9.016  -1.213  -3.684  1.00  0.00    -0.454 OA
ATOM     14  C   UNL     1       8.326  -2.440  -3.901  1.00  0.00     0.468 C 
ENDBRANCH   5   6
ENDBRANCH   1   5
TORSDOF 3
ENDMDL
MODEL 3
REMARK VINA RESULT:      -7.2      1.410      5.730
REMARK SMILES CC(=O)CCc1ccc2c(c1)OCO2
REMARK SMILES IDX 4 1 2 2 1 3 3 4 5 5 6 6 7 7 11 8 8 9 10 10 9 11 12 12 14 13
REMARK SMILES IDX 13 14
REMARK H PARENT
REMARK Flexibility Score: inf
ROOT
ATOM      1  C   UNL     1       8.958   0.693  -2.106  1.00  0.00     0.080 C 
ENDROOT
BRANCH   1   2
ATOM      2  C   UNL     1       9.997   0.112  -2.980  1.00  0.00     0.130 C 
ATOM      3  C   UNL     1      10.985   1.006  -3.617  1.00  0.00     0.087 C 
ATOM      4  O   UNL     1      10.018  -1.081  -3.156  1.00  0.00    -0.300 OA
ENDBRANCH   1   2
BRANCH   1   5
ATOM      5  C   UNL     1       7.649  -0.058  -2.236  1.00  0.00     0.043 C 
BRANCH   5   6
ATOM      6  C   UNL     1       6.900  -0.009  -0.977  1.00  0.00    -0.044 A 
ATOM      7  C   UNL     1       6.945  -1.071  -0.098  1.00  0.00     0.008 A 
ATOM      8  C   UNL     1       6.130   1.086  -0.625  1.00  0.00     0.054 A 
ATOM      9  C   UNL     1       6.247  -1.064   1.107  1.00  0.00     0.051 A 
ATOM     10  C   UNL     1       5.422   1.122   0.574  1.00  0.00     0.166 A 
ATOM     11  C   UNL     1       5.487   0.043   1.431  1.00  0.00     0.165 A 
ATOM     12  O   UNL     1       4.587   2.059   1.181  1.00  0.00    -0.454 OA
ATOM     13  O   UNL     1       4.700   0.335   2.536  1.00  0.00    -0.454 OA
ATOM     14  C   UNL     1       3.909   1.489   2.270  1.00  0.00     0.468 C 
ENDBRANCH   5   6
ENDBRANCH   1   5
TORSDOF 3
ENDMDL
MODEL 4
REMARK VINA RESULT:      -7.1      1.202      1.433
REMARK SMILES CC(=O)CCc1ccc2c(c1)OCO2
REMARK SMILES IDX 4 1 2 2 1 3 3 4 5 5 6 6 7 7 11 8 8 9 10 10 9 11 12 12 14 13
REMARK SMILES IDX 13 14
REMARK H PARENT
REMARK Flexibility Score: inf
ROOT
ATOM      1  C   UNL     1       5.783   1.061  -0.205  1.00  0.00     0.080 C 
ENDROOT
BRANCH   1   2
ATOM      2  C   UNL     1       5.342   0.962   1.201  1.00  0.00     0.130 C 
ATOM      3  C   UNL     1       5.732  -0.219   1.997  1.00  0.00     0.087 C 
ATOM      4  O   UNL     1       4.673   1.849   1.670  1.00  0.00    -0.300 OA
ENDBRANCH   1   2
BRANCH   1   5
ATOM      5  C   UNL     1       7.289   1.185  -0.301  1.00  0.00     0.043 C 
BRANCH   5   6
ATOM      6  C   UNL     1       7.827   0.204  -1.248  1.00  0.00    -0.044 A 
ATOM      7  C   UNL     1       8.394   0.620  -2.435  1.00  0.00     0.008 A 
ATOM      8  C   UNL     1       7.787  -1.156  -0.996  1.00  0.00     0.054 A 
ATOM      9  C   UNL     1       8.916  -0.279  -3.361  1.00  0.00     0.051 A 
ATOM     10  C   UNL     1       8.301  -2.079  -1.903  1.00  0.00     0.166 A 
ATOM     11  C   UNL     1       8.862  -1.632  -3.081  1.00  0.00     0.165 A 
ATOM     12  O   UNL     1       8.400  -3.470  -1.922  1.00  0.00    -0.454 OA
ATOM     13  O   UNL     1       9.290  -2.742  -3.794  1.00  0.00    -0.454 OA
ATOM     14  C   UNL     1       8.762  -3.925  -3.201  1.00  0.00     0.468 C 
ENDBRANCH   5   6
ENDBRANCH   1   5
TORSDOF 3
ENDMDL
MODEL 5
REMARK VINA RESULT:      -7.1      1.406      2.470
REMARK SMILES CC(=O)CCc1ccc2c(c1)OCO2
REMARK SMILES IDX 4 1 2 2 1 3 3 4 5 5 6 6 7 7 11 8 8 9 10 10 9 11 12 12 14 13
REMARK SMILES IDX 13 14
REMARK H PARENT
REMARK Flexibility Score: inf
ROOT
ATOM      1  C   UNL     1       6.282   0.700   1.960  1.00  0.00     0.080 C 
ENDROOT
BRANCH   1   2
ATOM      2  C   UNL     1       5.044   1.426   1.614  1.00  0.00     0.130 C 
ATOM      3  C   UNL     1       4.968   2.150   0.329  1.00  0.00     0.087 C 
ATOM      4  O   UNL     1       4.119   1.413   2.388  1.00  0.00    -0.300 OA
ENDBRANCH   1   2
BRANCH   1   5
ATOM      5  C   UNL     1       6.345  -0.643   1.261  1.00  0.00     0.043 C 
BRANCH   5   6
ATOM      6  C   UNL     1       7.086  -0.533   0.001  1.00  0.00    -0.044 A 
ATOM      7  C   UNL     1       6.660  -1.216  -1.120  1.00  0.00     0.008 A 
ATOM      8  C   UNL     1       8.224   0.245  -0.114  1.00  0.00     0.054 A 
ATOM      9  C   UNL     1       7.336  -1.139  -2.334  1.00  0.00     0.051 A 
ATOM     10  C   UNL     1       8.921   0.342  -1.316  1.00  0.00     0.166 A 
ATOM     11  C   UNL     1       8.470  -0.353  -2.418  1.00  0.00     0.165 A 
ATOM     12  O   UNL     1      10.066   1.027  -1.722  1.00  0.00    -0.454 OA
ATOM     13  O   UNL     1       9.335  -0.086  -3.469  1.00  0.00    -0.454 OA
ATOM     14  C   UNL     1      10.501   0.568  -2.976  1.00  0.00     0.468 C 
ENDBRANCH   5   6
ENDBRANCH   1   5
TORSDOF 3
ENDMDL
