@<TRIPOS>MOLECULE
/home/cewinharhar/GITHUB/reincatalyze/data/processed/docking_pred/2023-May-31-1603_sub9_nm5_bs15_s42_ex16_mel10_mts1000_k50_ec05_g099_lra3e-4_lrc9e-3/3b11ad51370e6150fddf32b3aa65dd5e24197163_ligand_9.pdbqt
 14 15 0 0 0
SMALL
GASTEIGER

@<TRIPOS>ATOM
      1  C          8.9580    0.6930   -2.1060 C.3     1  UNL1        0.0800
      2  C          9.9970    0.1120   -2.9800 C.2     1  UNL1        0.1300
      3  C         10.9850    1.0060   -3.6170 C.3     1  UNL1        0.0870
      4  O         10.0180   -1.0810   -3.1560 O.2     1  UNL1       -0.3000
      5  C          7.6490   -0.0580   -2.2360 C.3     1  UNL1        0.0430
      6  C          6.9000   -0.0090   -0.9770 C.2     1  UNL1       -0.0440
      7  C          6.9450   -1.0710   -0.0980 C.2     1  UNL1        0.0080
      8  C          6.1300    1.0860   -0.6250 C.2     1  UNL1        0.0540
      9  C          6.2470   -1.0640    1.1070 C.2     1  UNL1        0.0510
     10  C          5.4220    1.1220    0.5740 C.2     1  UNL1        0.1660
     11  C          5.4870    0.0430    1.4310 C.2     1  UNL1        0.1650
     12  O          4.5870    2.0590    1.1810 O.2     1  UNL1       -0.4540
     13  O          4.7000    0.3350    2.5360 O.2     1  UNL1       -0.4540
     14  C          3.9090    1.4890    2.2700 C.3     1  UNL1        0.4680
@<TRIPOS>BOND
     1     3     2    1
     2     4     2    2
     3     2     1    1
     4     5     1    1
     5     5     6    1
     6     6     8    2
     7     6     7    1
     8     8    10    1
     9     7     9    2
    10    10    12    1
    11    10    11    2
    12     9    11    1
    13    12    14    1
    14    11    13    1
    15    14    13    1
