@<TRIPOS>MOLECULE
/home/cewinharhar/GITHUB/reincatalyze/data/processed/docking_pred/2023-May-31-1603_sub9_nm5_bs15_s42_ex16_mel10_mts1000_k50_ec05_g099_lra3e-4_lrc9e-3/3b29dc4ebb7ee5049f43ecb42d98a580ffb6b5da_ligand_9.pdbqt
 14 15 0 0 0
SMALL
GASTEIGER

@<TRIPOS>ATOM
      1  C          6.5220    0.5160    0.9650 C.3     1  UNL1        0.0800
      2  C          5.2080    1.0600    1.3610 C.2     1  UNL1        0.1300
      3  C          4.6100    2.1500    0.5640 C.3     1  UNL1        0.0870
      4  O          4.6490    0.6040    2.3280 O.2     1  UNL1       -0.3000
      5  C          6.7450    0.6500   -0.5270 C.3     1  UNL1        0.0430
      6  C          7.4140   -0.5420   -1.0570 C.2     1  UNL1       -0.0440
      7  C          7.7980   -0.5940   -2.3810 C.2     1  UNL1        0.0080
      8  C          7.6810   -1.6450   -0.2650 C.2     1  UNL1        0.0540
      9  C          8.4340   -1.7070   -2.9230 C.2     1  UNL1        0.0510
     10  C          8.3160   -2.7720   -0.7800 C.2     1  UNL1        0.1660
     11  C          8.6880   -2.7940   -2.1080 C.2     1  UNL1        0.1650
     12  O          8.7070   -3.9980   -0.2400 O.2     1  UNL1       -0.4540
     13  O          9.2920   -4.0170   -2.3570 O.2     1  UNL1       -0.4540
     14  C          9.0700   -4.8960   -1.2570 C.3     1  UNL1        0.4680
@<TRIPOS>BOND
     1     9     7    1
     2     9    11    2
     3     7     6    2
     4    13    11    1
     5    13    14    1
     6    11    10    1
     7    14    12    1
     8     6     5    1
     9     6     8    1
    10    10     8    2
    11    10    12    1
    12     5     1    1
    13     3     2    1
    14     1     2    1
    15     2     4    2
