@<TRIPOS>MOLECULE
/home/cewinharhar/GITHUB/reincatalyze/data/processed/docking_pred/2023-May-31-1603_sub9_nm5_bs15_s42_ex16_mel10_mts1000_k50_ec05_g099_lra3e-4_lrc9e-3/3b98b0574a09314ff34419eb6cee054edaec9098_ligand_9.pdbqt
 14 15 0 0 0
SMALL
GASTEIGER

@<TRIPOS>ATOM
      1  C          5.6850    1.3390   -0.2580 C.3     1  UNL1        0.0800
      2  C          5.0890    1.2610    1.0910 C.2     1  UNL1        0.1300
      3  C          5.3950    0.0980    1.9480 C.3     1  UNL1        0.0870
      4  O          4.3650    2.1500    1.4650 O.2     1  UNL1       -0.3000
      5  C          7.1910    1.1840   -0.2030 C.3     1  UNL1        0.0430
      6  C          7.6000   -0.0890   -0.8030 C.2     1  UNL1       -0.0440
      7  C          7.5940   -0.2460   -2.1740 C.2     1  UNL1        0.0080
      8  C          8.0010   -1.1660   -0.0330 C.2     1  UNL1        0.0540
      9  C          7.9750   -1.4390   -2.7830 C.2     1  UNL1        0.0510
     10  C          8.3870   -2.3720   -0.6140 C.2     1  UNL1        0.1660
     11  C          8.3710   -2.4980   -1.9880 C.2     1  UNL1        0.1650
     12  O          8.8270   -3.5960   -0.1110 O.2     1  UNL1       -0.4540
     13  O          8.7950   -3.7810   -2.2990 O.2     1  UNL1       -0.4540
     14  C          8.8290   -4.5750   -1.1170 C.3     1  UNL1        0.4680
@<TRIPOS>BOND
     1     9     7    1
     2     9    11    2
     3    13    11    1
     4    13    14    1
     5     7     6    2
     6    11    10    1
     7    14    12    1
     8     6     5    1
     9     6     8    1
    10    10    12    1
    11    10     8    2
    12     1     5    1
    13     1     2    1
    14     2     4    2
    15     2     3    1
