@<TRIPOS>MOLECULE
/home/cewinharhar/GITHUB/reincatalyze/data/processed/docking_pred/2023-May-31-1603_sub9_nm5_bs15_s42_ex16_mel10_mts1000_k50_ec05_g099_lra3e-4_lrc9e-3/3b98b0574a09314ff34419eb6cee054edaec9098_ligand_9.pdbqt
 14 15 0 0 0
SMALL
GASTEIGER

@<TRIPOS>ATOM
      1  C          6.2460    1.3200    0.9460 C.3     1  UNL1        0.0800
      2  C          5.6000    0.4640    1.9610 C.2     1  UNL1        0.1300
      3  C          6.3370   -0.6960    2.5000 C.3     1  UNL1        0.0870
      4  O          4.4820    0.7310    2.3290 O.2     1  UNL1       -0.3000
      5  C          5.7360    1.0040   -0.4440 C.3     1  UNL1        0.0430
      6  C          6.6890    0.1510   -1.1610 C.2     1  UNL1       -0.0440
      7  C          7.3510    0.6290   -2.2730 C.2     1  UNL1        0.0080
      8  C          6.9580   -1.1450   -0.7590 C.2     1  UNL1        0.0540
      9  C          8.2630   -0.1480   -2.9820 C.2     1  UNL1        0.0510
     10  C          7.8660   -1.9460   -1.4480 C.2     1  UNL1        0.1660
     11  C          8.5120   -1.4390   -2.5560 C.2     1  UNL1        0.1650
     12  O          8.3270   -3.2520   -1.2840 O.2     1  UNL1       -0.4540
     13  O          9.3490   -2.4310   -3.0470 O.2     1  UNL1       -0.4540
     14  C          9.0430   -3.6720   -2.4180 C.3     1  UNL1        0.4680
@<TRIPOS>BOND
     1    13    11    1
     2    13    14    1
     3     9    11    2
     4     9     7    1
     5    11    10    1
     6    14    12    1
     7     7     6    2
     8    10    12    1
     9    10     8    2
    10     6     8    1
    11     6     5    1
    12     5     1    1
    13     1     2    1
    14     2     4    2
    15     2     3    1
