MODEL 1
REMARK VINA RESULT:      -7.5      0.000      0.000
REMARK SMILES CC(=O)CCc1ccc2c(c1)OCO2
REMARK SMILES IDX 4 1 2 2 1 3 3 4 5 5 6 6 7 7 11 8 8 9 10 10 9 11 12 12 14 13
REMARK SMILES IDX 13 14
REMARK H PARENT
REMARK Flexibility Score: inf
ROOT
ATOM      1  C   UNL     1       5.588   1.858   1.314  1.00  0.00     0.080 C 
ENDROOT
BRANCH   1   2
ATOM      2  C   UNL     1       5.122   0.664   2.047  1.00  0.00     0.130 C 
ATOM      3  C   UNL     1       6.041  -0.479   2.220  1.00  0.00     0.087 C 
ATOM      4  O   UNL     1       4.000   0.646   2.488  1.00  0.00    -0.300 OA
ENDBRANCH   1   2
BRANCH   1   5
ATOM      5  C   UNL     1       5.402   1.694  -0.180  1.00  0.00     0.043 C 
BRANCH   5   6
ATOM      6  C   UNL     1       6.534   0.967  -0.762  1.00  0.00    -0.044 A 
ATOM      7  C   UNL     1       7.824   1.420  -0.576  1.00  0.00     0.008 A 
ATOM      8  C   UNL     1       6.359  -0.184  -1.510  1.00  0.00     0.054 A 
ATOM      9  C   UNL     1       8.925   0.760  -1.113  1.00  0.00     0.051 A 
ATOM     10  C   UNL     1       7.441  -0.867  -2.060  1.00  0.00     0.166 A 
ATOM     11  C   UNL     1       8.718  -0.387  -1.856  1.00  0.00     0.165 A 
ATOM     12  O   UNL     1       7.571  -2.018  -2.835  1.00  0.00    -0.454 OA
ATOM     13  O   UNL     1       9.599  -1.243  -2.502  1.00  0.00    -0.454 OA
ATOM     14  C   UNL     1       8.872  -2.126  -3.352  1.00  0.00     0.468 C 
ENDBRANCH   5   6
ENDBRANCH   1   5
TORSDOF 3
ENDMDL
MODEL 2
REMARK VINA RESULT:      -7.3      1.970      2.396
REMARK SMILES CC(=O)CCc1ccc2c(c1)OCO2
REMARK SMILES IDX 4 1 2 2 1 3 3 4 5 5 6 6 7 7 11 8 8 9 10 10 9 11 12 12 14 13
REMARK SMILES IDX 13 14
REMARK H PARENT
REMARK Flexibility Score: inf
ROOT
ATOM      1  C   UNL     1       5.658   1.169  -0.279  1.00  0.00     0.080 C 
ENDROOT
BRANCH   1   2
ATOM      2  C   UNL     1       5.082   1.203   1.080  1.00  0.00     0.130 C 
ATOM      3  C   UNL     1       5.348   0.081   2.003  1.00  0.00     0.087 C 
ATOM      4  O   UNL     1       4.407   2.146   1.409  1.00  0.00    -0.300 OA
ENDBRANCH   1   2
BRANCH   1   5
ATOM      5  C   UNL     1       7.168   1.060  -0.234  1.00  0.00     0.043 C 
BRANCH   5   6
ATOM      6  C   UNL     1       7.608  -0.228  -0.779  1.00  0.00    -0.044 A 
ATOM      7  C   UNL     1       7.691  -0.414  -2.143  1.00  0.00     0.008 A 
ATOM      8  C   UNL     1       7.951  -1.291   0.038  1.00  0.00     0.054 A 
ATOM      9  C   UNL     1       8.104  -1.621  -2.701  1.00  0.00     0.051 A 
ATOM     10  C   UNL     1       8.367  -2.510  -0.491  1.00  0.00     0.166 A 
ATOM     11  C   UNL     1       8.440  -2.665  -1.860  1.00  0.00     0.165 A 
ATOM     12  O   UNL     1       8.765  -3.725   0.066  1.00  0.00    -0.454 OA
ATOM     13  O   UNL     1       8.876  -3.957  -2.116  1.00  0.00    -0.454 OA
ATOM     14  C   UNL     1       8.826  -4.726  -0.917  1.00  0.00     0.468 C 
ENDBRANCH   5   6
ENDBRANCH   1   5
TORSDOF 3
ENDMDL
MODEL 3
REMARK VINA RESULT:      -7.3      2.068      2.638
REMARK SMILES CC(=O)CCc1ccc2c(c1)OCO2
REMARK SMILES IDX 4 1 2 2 1 3 3 4 5 5 6 6 7 7 11 8 8 9 10 10 9 11 12 12 14 13
REMARK SMILES IDX 13 14
REMARK H PARENT
REMARK Flexibility Score: inf
ROOT
ATOM      1  C   UNL     1       5.351  -0.037   1.963  1.00  0.00     0.080 C 
ENDROOT
BRANCH   1   2
ATOM      2  C   UNL     1       4.521   1.167   1.758  1.00  0.00     0.130 C 
ATOM      3  C   UNL     1       4.902   2.134   0.709  1.00  0.00     0.087 C 
ATOM      4  O   UNL     1       3.549   1.337   2.453  1.00  0.00    -0.300 OA
ENDBRANCH   1   2
BRANCH   1   5
ATOM      5  C   UNL     1       6.798   0.226   1.605  1.00  0.00     0.043 C 
BRANCH   5   6
ATOM      6  C   UNL     1       7.264  -0.738   0.603  1.00  0.00    -0.044 A 
ATOM      7  C   UNL     1       7.104  -0.476  -0.742  1.00  0.00     0.008 A 
ATOM      8  C   UNL     1       7.871  -1.929   0.960  1.00  0.00     0.054 A 
ATOM      9  C   UNL     1       7.532  -1.366  -1.725  1.00  0.00     0.051 A 
ATOM     10  C   UNL     1       8.309  -2.838  -0.001  1.00  0.00     0.166 A 
ATOM     11  C   UNL     1       8.135  -2.547  -1.338  1.00  0.00     0.165 A 
ATOM     12  O   UNL     1       8.938  -4.082   0.055  1.00  0.00    -0.454 OA
ATOM     13  O   UNL     1       8.653  -3.606  -2.071  1.00  0.00    -0.454 OA
ATOM     14  C   UNL     1       8.919  -4.705  -1.204  1.00  0.00     0.468 C 
ENDBRANCH   5   6
ENDBRANCH   1   5
TORSDOF 3
ENDMDL
MODEL 4
REMARK VINA RESULT:      -7.1      1.223      1.375
REMARK SMILES CC(=O)CCc1ccc2c(c1)OCO2
REMARK SMILES IDX 4 1 2 2 1 3 3 4 5 5 6 6 7 7 11 8 8 9 10 10 9 11 12 12 14 13
REMARK SMILES IDX 13 14
REMARK H PARENT
REMARK Flexibility Score: inf
ROOT
ATOM      1  C   UNL     1       6.252   1.339   0.930  1.00  0.00     0.080 C 
ENDROOT
BRANCH   1   2
ATOM      2  C   UNL     1       5.578   0.490   1.933  1.00  0.00     0.130 C 
ATOM      3  C   UNL     1       6.294  -0.674   2.491  1.00  0.00     0.087 C 
ATOM      4  O   UNL     1       4.455   0.766   2.276  1.00  0.00    -0.300 OA
ENDBRANCH   1   2
BRANCH   1   5
ATOM      5  C   UNL     1       5.761   1.031  -0.469  1.00  0.00     0.043 C 
BRANCH   5   6
ATOM      6  C   UNL     1       6.713   0.165  -1.170  1.00  0.00    -0.044 A 
ATOM      7  C   UNL     1       7.392   0.629  -2.278  1.00  0.00     0.008 A 
ATOM      8  C   UNL     1       6.965  -1.132  -0.758  1.00  0.00     0.054 A 
ATOM      9  C   UNL     1       8.303  -0.162  -2.972  1.00  0.00     0.051 A 
ATOM     10  C   UNL     1       7.872  -1.947  -1.432  1.00  0.00     0.166 A 
ATOM     11  C   UNL     1       8.535  -1.453  -2.536  1.00  0.00     0.165 A 
ATOM     12  O   UNL     1       8.319  -3.256  -1.255  1.00  0.00    -0.454 OA
ATOM     13  O   UNL     1       9.367  -2.456  -3.012  1.00  0.00    -0.454 OA
ATOM     14  C   UNL     1       9.042  -3.690  -2.378  1.00  0.00     0.468 C 
ENDBRANCH   5   6
ENDBRANCH   1   5
TORSDOF 3
ENDMDL
MODEL 5
REMARK VINA RESULT:      -7.0      1.218      5.166
REMARK SMILES CC(=O)CCc1ccc2c(c1)OCO2
REMARK SMILES IDX 4 1 2 2 1 3 3 4 5 5 6 6 7 7 11 8 8 9 10 10 9 11 12 12 14 13
REMARK SMILES IDX 13 14
REMARK H PARENT
REMARK Flexibility Score: inf
ROOT
ATOM      1  C   UNL     1       8.269   0.193  -2.649  1.00  0.00     0.080 C 
ENDROOT
BRANCH   1   2
ATOM      2  C   UNL     1       7.953  -1.247  -2.733  1.00  0.00     0.130 C 
ATOM      3  C   UNL     1       9.042  -2.210  -2.991  1.00  0.00     0.087 C 
ATOM      4  O   UNL     1       6.811  -1.607  -2.589  1.00  0.00    -0.300 OA
ENDBRANCH   1   2
BRANCH   1   5
ATOM      5  C   UNL     1       8.835   0.552  -1.290  1.00  0.00     0.043 C 
BRANCH   5   6
ATOM      6  C   UNL     1       7.797   0.459  -0.259  1.00  0.00    -0.044 A 
ATOM      7  C   UNL     1       7.841  -0.545   0.685  1.00  0.00     0.008 A 
ATOM      8  C   UNL     1       6.747   1.359  -0.194  1.00  0.00     0.054 A 
ATOM      9  C   UNL     1       6.875  -0.669   1.680  1.00  0.00     0.051 A 
ATOM     10  C   UNL     1       5.766   1.260   0.790  1.00  0.00     0.166 A 
ATOM     11  C   UNL     1       5.838   0.245   1.720  1.00  0.00     0.165 A 
ATOM     12  O   UNL     1       4.623   1.998   1.099  1.00  0.00    -0.454 OA
ATOM     13  O   UNL     1       4.752   0.375   2.574  1.00  0.00    -0.454 OA
ATOM     14  C   UNL     1       3.827   1.314   2.032  1.00  0.00     0.468 C 
ENDBRANCH   5   6
ENDBRANCH   1   5
TORSDOF 3
ENDMDL
