@<TRIPOS>MOLECULE
/home/cewinharhar/GITHUB/reincatalyze/data/processed/docking_pred/2023-May-31-1603_sub9_nm5_bs15_s42_ex16_mel10_mts1000_k50_ec05_g099_lra3e-4_lrc9e-3/3bf4b9a3f06cfa5433c2fd34b58c3faf64c233d9_ligand_9.pdbqt
 14 15 0 0 0
SMALL
GASTEIGER

@<TRIPOS>ATOM
      1  C          5.5880    1.8580    1.3140 C.3     1  UNL1        0.0800
      2  C          5.1220    0.6640    2.0470 C.2     1  UNL1        0.1300
      3  C          6.0410   -0.4790    2.2200 C.3     1  UNL1        0.0870
      4  O          4.0000    0.6460    2.4880 O.2     1  UNL1       -0.3000
      5  C          5.4020    1.6940   -0.1800 C.3     1  UNL1        0.0430
      6  C          6.5340    0.9670   -0.7620 C.2     1  UNL1       -0.0440
      7  C          7.8240    1.4200   -0.5760 C.2     1  UNL1        0.0080
      8  C          6.3590   -0.1840   -1.5100 C.2     1  UNL1        0.0540
      9  C          8.9250    0.7600   -1.1130 C.2     1  UNL1        0.0510
     10  C          7.4410   -0.8670   -2.0600 C.2     1  UNL1        0.1660
     11  C          8.7180   -0.3870   -1.8560 C.2     1  UNL1        0.1650
     12  O          7.5710   -2.0180   -2.8350 O.2     1  UNL1       -0.4540
     13  O          9.5990   -1.2430   -2.5020 O.2     1  UNL1       -0.4540
     14  C          8.8720   -2.1260   -3.3520 C.3     1  UNL1        0.4680
@<TRIPOS>BOND
     1    14    12    1
     2    14    13    1
     3    12    10    1
     4    13    11    1
     5    10    11    2
     6    10     8    1
     7    11     9    1
     8     8     6    2
     9     9     7    2
    10     6     7    1
    11     6     5    1
    12     5     1    1
    13     1     2    1
    14     2     3    1
    15     2     4    2
