@<TRIPOS>MOLECULE
/home/cewinharhar/GITHUB/reincatalyze/data/processed/docking_pred/2023-May-31-1603_sub9_nm5_bs15_s42_ex16_mel10_mts1000_k50_ec05_g099_lra3e-4_lrc9e-3/3bf4b9a3f06cfa5433c2fd34b58c3faf64c233d9_ligand_9.pdbqt
 14 15 0 0 0
SMALL
GASTEIGER

@<TRIPOS>ATOM
      1  C          5.3510   -0.0370    1.9630 C.3     1  UNL1        0.0800
      2  C          4.5210    1.1670    1.7580 C.2     1  UNL1        0.1300
      3  C          4.9020    2.1340    0.7090 C.3     1  UNL1        0.0870
      4  O          3.5490    1.3370    2.4530 O.2     1  UNL1       -0.3000
      5  C          6.7980    0.2260    1.6050 C.3     1  UNL1        0.0430
      6  C          7.2640   -0.7380    0.6030 C.2     1  UNL1       -0.0440
      7  C          7.1040   -0.4760   -0.7420 C.2     1  UNL1        0.0080
      8  C          7.8710   -1.9290    0.9600 C.2     1  UNL1        0.0540
      9  C          7.5320   -1.3660   -1.7250 C.2     1  UNL1        0.0510
     10  C          8.3090   -2.8380   -0.0010 C.2     1  UNL1        0.1660
     11  C          8.1350   -2.5470   -1.3380 C.2     1  UNL1        0.1650
     12  O          8.9380   -4.0820    0.0550 O.2     1  UNL1       -0.4540
     13  O          8.6530   -3.6060   -2.0710 O.2     1  UNL1       -0.4540
     14  C          8.9190   -4.7050   -1.2040 C.3     1  UNL1        0.4680
@<TRIPOS>BOND
     1    13    11    1
     2    13    14    1
     3     9    11    2
     4     9     7    1
     5    11    10    1
     6    14    12    1
     7     7     6    2
     8    10    12    1
     9    10     8    2
    10     6     8    1
    11     6     5    1
    12     3     2    1
    13     5     1    1
    14     2     1    1
    15     2     4    2
