@<TRIPOS>MOLECULE
/home/cewinharhar/GITHUB/reincatalyze/data/processed/docking_pred/2023-May-31-1603_sub9_nm5_bs15_s42_ex16_mel10_mts1000_k50_ec05_g099_lra3e-4_lrc9e-3/3bf4b9a3f06cfa5433c2fd34b58c3faf64c233d9_ligand_9.pdbqt
 14 15 0 0 0
SMALL
GASTEIGER

@<TRIPOS>ATOM
      1  C          8.2690    0.1930   -2.6490 C.3     1  UNL1        0.0800
      2  C          7.9530   -1.2470   -2.7330 C.2     1  UNL1        0.1300
      3  C          9.0420   -2.2100   -2.9910 C.3     1  UNL1        0.0870
      4  O          6.8110   -1.6070   -2.5890 O.2     1  UNL1       -0.3000
      5  C          8.8350    0.5520   -1.2900 C.3     1  UNL1        0.0430
      6  C          7.7970    0.4590   -0.2590 C.2     1  UNL1       -0.0440
      7  C          7.8410   -0.5450    0.6850 C.2     1  UNL1        0.0080
      8  C          6.7470    1.3590   -0.1940 C.2     1  UNL1        0.0540
      9  C          6.8750   -0.6690    1.6800 C.2     1  UNL1        0.0510
     10  C          5.7660    1.2600    0.7900 C.2     1  UNL1        0.1660
     11  C          5.8380    0.2450    1.7200 C.2     1  UNL1        0.1650
     12  O          4.6230    1.9980    1.0990 O.2     1  UNL1       -0.4540
     13  O          4.7520    0.3750    2.5740 O.2     1  UNL1       -0.4540
     14  C          3.8270    1.3140    2.0320 C.3     1  UNL1        0.4680
@<TRIPOS>BOND
     1     3     2    1
     2     2     1    1
     3     2     4    2
     4     1     5    1
     5     5     6    1
     6     6     8    2
     7     6     7    1
     8     8    10    1
     9     7     9    2
    10    10    12    1
    11    10    11    2
    12    12    14    1
    13     9    11    1
    14    11    13    1
    15    14    13    1
