@<TRIPOS>MOLECULE
/home/cewinharhar/GITHUB/reincatalyze/data/processed/docking_pred/2023-May-31-1603_sub9_nm5_bs15_s42_ex16_mel10_mts1000_k50_ec05_g099_lra3e-4_lrc9e-3/3bf4b9a3f06cfa5433c2fd34b58c3faf64c233d9_ligand_9.pdbqt
 14 15 0 0 0
SMALL
GASTEIGER

@<TRIPOS>ATOM
      1  C          5.6580    1.1690   -0.2790 C.3     1  UNL1        0.0800
      2  C          5.0820    1.2030    1.0800 C.2     1  UNL1        0.1300
      3  C          5.3480    0.0810    2.0030 C.3     1  UNL1        0.0870
      4  O          4.4070    2.1460    1.4090 O.2     1  UNL1       -0.3000
      5  C          7.1680    1.0600   -0.2340 C.3     1  UNL1        0.0430
      6  C          7.6080   -0.2280   -0.7790 C.2     1  UNL1       -0.0440
      7  C          7.6910   -0.4140   -2.1430 C.2     1  UNL1        0.0080
      8  C          7.9510   -1.2910    0.0380 C.2     1  UNL1        0.0540
      9  C          8.1040   -1.6210   -2.7010 C.2     1  UNL1        0.0510
     10  C          8.3670   -2.5100   -0.4910 C.2     1  UNL1        0.1660
     11  C          8.4400   -2.6650   -1.8600 C.2     1  UNL1        0.1650
     12  O          8.7650   -3.7250    0.0660 O.2     1  UNL1       -0.4540
     13  O          8.8760   -3.9570   -2.1160 O.2     1  UNL1       -0.4540
     14  C          8.8260   -4.7260   -0.9170 C.3     1  UNL1        0.4680
@<TRIPOS>BOND
     1     9     7    1
     2     9    11    2
     3     7     6    2
     4    13    11    1
     5    13    14    1
     6    11    10    1
     7    14    12    1
     8     6     5    1
     9     6     8    1
    10    10     8    2
    11    10    12    1
    12     1     5    1
    13     1     2    1
    14     2     4    2
    15     2     3    1
