@<TRIPOS>MOLECULE
/home/cewinharhar/GITHUB/reincatalyze/data/processed/docking_pred/2023-May-31-1603_sub9_nm5_bs15_s42_ex16_mel10_mts1000_k50_ec05_g099_lra3e-4_lrc9e-3/3bf4b9a3f06cfa5433c2fd34b58c3faf64c233d9_ligand_9.pdbqt
 14 15 0 0 0
SMALL
GASTEIGER

@<TRIPOS>ATOM
      1  C          6.2520    1.3390    0.9300 C.3     1  UNL1        0.0800
      2  C          5.5780    0.4900    1.9330 C.2     1  UNL1        0.1300
      3  C          6.2940   -0.6740    2.4910 C.3     1  UNL1        0.0870
      4  O          4.4550    0.7660    2.2760 O.2     1  UNL1       -0.3000
      5  C          5.7610    1.0310   -0.4690 C.3     1  UNL1        0.0430
      6  C          6.7130    0.1650   -1.1700 C.2     1  UNL1       -0.0440
      7  C          7.3920    0.6290   -2.2780 C.2     1  UNL1        0.0080
      8  C          6.9650   -1.1320   -0.7580 C.2     1  UNL1        0.0540
      9  C          8.3030   -0.1620   -2.9720 C.2     1  UNL1        0.0510
     10  C          7.8720   -1.9470   -1.4320 C.2     1  UNL1        0.1660
     11  C          8.5350   -1.4530   -2.5360 C.2     1  UNL1        0.1650
     12  O          8.3190   -3.2560   -1.2550 O.2     1  UNL1       -0.4540
     13  O          9.3670   -2.4560   -3.0120 O.2     1  UNL1       -0.4540
     14  C          9.0420   -3.6900   -2.3780 C.3     1  UNL1        0.4680
@<TRIPOS>BOND
     1    13    11    1
     2    13    14    1
     3     9    11    2
     4     9     7    1
     5    11    10    1
     6    14    12    1
     7     7     6    2
     8    10    12    1
     9    10     8    2
    10     6     8    1
    11     6     5    1
    12     5     1    1
    13     1     2    1
    14     2     4    2
    15     2     3    1
