@<TRIPOS>MOLECULE
/home/cewinharhar/GITHUB/reincatalyze/data/processed/docking_pred/2023-May-31-1603_sub9_nm5_bs15_s42_ex16_mel10_mts1000_k50_ec05_g099_lra3e-4_lrc9e-3/3c607cf36dcc024da10d53d595c24d9744c2a083_ligand_9.pdbqt
 14 15 0 0 0
SMALL
GASTEIGER

@<TRIPOS>ATOM
      1  C          6.3540    1.1970    0.9840 C.3     1  UNL1        0.0800
      2  C          5.6170    0.3940    1.9800 C.2     1  UNL1        0.1300
      3  C          6.2510   -0.8160    2.5420 C.3     1  UNL1        0.0870
      4  O          4.5120    0.7420    2.3140 O.2     1  UNL1       -0.3000
      5  C          5.8540    0.9250   -0.4200 C.3     1  UNL1        0.0430
      6  C          6.7650    0.0190   -1.1250 C.2     1  UNL1       -0.0440
      7  C          7.3240    0.3920   -2.3300 C.2     1  UNL1        0.0080
      8  C          7.0950   -1.2260   -0.6200 C.2     1  UNL1        0.0540
      9  C          8.1930   -0.4400   -3.0310 C.2     1  UNL1        0.0510
     10  C          7.9620   -2.0800   -1.2990 C.2     1  UNL1        0.1660
     11  C          8.5050   -1.6780   -2.5010 C.2     1  UNL1        0.1650
     12  O          8.4650   -3.3550   -1.0450 O.2     1  UNL1       -0.4540
     13  O          9.3210   -2.7010   -2.9590 O.2     1  UNL1       -0.4540
     14  C          9.0960   -3.8770   -2.1860 C.3     1  UNL1        0.4680
@<TRIPOS>BOND
     1     9    11    2
     2     9     7    1
     3    13    11    1
     4    13    14    1
     5    11    10    1
     6     7     6    2
     7    14    12    1
     8    10    12    1
     9    10     8    2
    10     6     8    1
    11     6     5    1
    12     5     1    1
    13     1     2    1
    14     2     4    2
    15     2     3    1
