@<TRIPOS>MOLECULE
/home/cewinharhar/GITHUB/reincatalyze/data/processed/docking_pred/2023-May-31-1603_sub9_nm5_bs15_s42_ex16_mel10_mts1000_k50_ec05_g099_lra3e-4_lrc9e-3/3dd20a82ca316ee4e9168eadca9f8684e5881f32_ligand_9.pdbqt
 14 15 0 0 0
SMALL
GASTEIGER

@<TRIPOS>ATOM
      1  C          5.3310   -0.0570    1.9520 C.3     1  UNL1        0.0800
      2  C          4.5170    1.1600    1.7610 C.2     1  UNL1        0.1300
      3  C          4.9080    2.1320    0.7200 C.3     1  UNL1        0.0870
      4  O          3.5500    1.3360    2.4600 O.2     1  UNL1       -0.3000
      5  C          6.7860    0.1960    1.6170 C.3     1  UNL1        0.0430
      6  C          7.2560   -0.7580    0.6090 C.2     1  UNL1       -0.0440
      7  C          7.1030   -0.4860   -0.7340 C.2     1  UNL1        0.0080
      8  C          7.8630   -1.9520    0.9580 C.2     1  UNL1        0.0540
      9  C          7.5350   -1.3660   -1.7220 C.2     1  UNL1        0.0510
     10  C          8.3060   -2.8530   -0.0080 C.2     1  UNL1        0.1660
     11  C          8.1380   -2.5510   -1.3430 C.2     1  UNL1        0.1650
     12  O          8.9340   -4.0970    0.0400 O.2     1  UNL1       -0.4540
     13  O          8.6590   -3.6020   -2.0830 O.2     1  UNL1       -0.4540
     14  C          8.9210   -4.7090   -1.2240 C.3     1  UNL1        0.4680
@<TRIPOS>BOND
     1    13    11    1
     2    13    14    1
     3     9    11    2
     4     9     7    1
     5    11    10    1
     6    14    12    1
     7     7     6    2
     8    10    12    1
     9    10     8    2
    10     6     8    1
    11     6     5    1
    12     3     2    1
    13     5     1    1
    14     2     1    1
    15     2     4    2
