@<TRIPOS>MOLECULE
/home/cewinharhar/GITHUB/reincatalyze/data/processed/docking_pred/2023-May-31-1603_sub9_nm5_bs15_s42_ex16_mel10_mts1000_k50_ec05_g099_lra3e-4_lrc9e-3/3dd20a82ca316ee4e9168eadca9f8684e5881f32_ligand_9.pdbqt
 14 15 0 0 0
SMALL
GASTEIGER

@<TRIPOS>ATOM
      1  C          6.2460    0.1670    0.9260 C.3     1  UNL1        0.0800
      2  C          5.1330    1.0790    1.2590 C.2     1  UNL1        0.1300
      3  C          4.7690    2.1480    0.3080 C.3     1  UNL1        0.0870
      4  O          4.5450    0.9310    2.3010 O.2     1  UNL1       -0.3000
      5  C          6.7620    0.4190   -0.4750 C.3     1  UNL1        0.0430
      6  C          7.4310   -0.7750   -1.0010 C.2     1  UNL1       -0.0440
      7  C          7.7930   -0.8420   -2.3300 C.2     1  UNL1        0.0080
      8  C          7.7200   -1.8650   -0.1980 C.2     1  UNL1        0.0540
      9  C          8.4280   -1.9580   -2.8680 C.2     1  UNL1        0.0510
     10  C          8.3550   -2.9940   -0.7080 C.2     1  UNL1        0.1660
     11  C          8.7050   -3.0310   -2.0420 C.2     1  UNL1        0.1650
     12  O          8.7650   -4.2090   -0.1590 O.2     1  UNL1       -0.4540
     13  O          9.3140   -4.2540   -2.2850 O.2     1  UNL1       -0.4540
     14  C          9.1170   -5.1180   -1.1700 C.3     1  UNL1        0.4680
@<TRIPOS>BOND
     1     9     7    1
     2     9    11    2
     3     7     6    2
     4    13    11    1
     5    13    14    1
     6    11    10    1
     7    14    12    1
     8     6     5    1
     9     6     8    1
    10    10     8    2
    11    10    12    1
    12     5     1    1
    13     3     2    1
    14     1     2    1
    15     2     4    2
