MODEL 1
REMARK VINA RESULT:      -7.6      0.000      0.000
REMARK SMILES CC(=O)CCc1ccc2c(c1)OCO2
REMARK SMILES IDX 4 1 2 2 1 3 3 4 5 5 6 6 7 7 11 8 8 9 10 10 9 11 12 12 14 13
REMARK SMILES IDX 13 14
REMARK H PARENT
REMARK Flexibility Score: inf
ROOT
ATOM      1  C   UNL     1       5.605   1.853   1.326  1.00  0.00     0.080 C 
ENDROOT
BRANCH   1   2
ATOM      2  C   UNL     1       5.134   0.658   2.054  1.00  0.00     0.130 C 
ATOM      3  C   UNL     1       6.057  -0.479   2.247  1.00  0.00     0.087 C 
ATOM      4  O   UNL     1       4.005   0.635   2.477  1.00  0.00    -0.300 OA
ENDBRANCH   1   2
BRANCH   1   5
ATOM      5  C   UNL     1       5.421   1.693  -0.169  1.00  0.00     0.043 C 
BRANCH   5   6
ATOM      6  C   UNL     1       6.554   0.968  -0.752  1.00  0.00    -0.044 A 
ATOM      7  C   UNL     1       7.842   1.430  -0.575  1.00  0.00     0.008 A 
ATOM      8  C   UNL     1       6.381  -0.188  -1.493  1.00  0.00     0.054 A 
ATOM      9  C   UNL     1       8.944   0.772  -1.113  1.00  0.00     0.051 A 
ATOM     10  C   UNL     1       7.465  -0.868  -2.043  1.00  0.00     0.166 A 
ATOM     11  C   UNL     1       8.740  -0.380  -1.848  1.00  0.00     0.165 A 
ATOM     12  O   UNL     1       7.597  -2.023  -2.812  1.00  0.00    -0.454 OA
ATOM     13  O   UNL     1       9.622  -1.235  -2.493  1.00  0.00    -0.454 OA
ATOM     14  C   UNL     1       8.897  -2.127  -3.335  1.00  0.00     0.468 C 
ENDBRANCH   5   6
ENDBRANCH   1   5
TORSDOF 3
ENDMDL
MODEL 2
REMARK VINA RESULT:      -7.4      1.865      2.299
REMARK SMILES CC(=O)CCc1ccc2c(c1)OCO2
REMARK SMILES IDX 4 1 2 2 1 3 3 4 5 5 6 6 7 7 11 8 8 9 10 10 9 11 12 12 14 13
REMARK SMILES IDX 13 14
REMARK H PARENT
REMARK Flexibility Score: inf
ROOT
ATOM      1  C   UNL     1       5.638   1.421  -0.261  1.00  0.00     0.080 C 
ENDROOT
BRANCH   1   2
ATOM      2  C   UNL     1       5.042   1.263   1.080  1.00  0.00     0.130 C 
ATOM      3  C   UNL     1       5.400   0.083   1.893  1.00  0.00     0.087 C 
ATOM      4  O   UNL     1       4.275   2.101   1.485  1.00  0.00    -0.300 OA
ENDBRANCH   1   2
BRANCH   1   5
ATOM      5  C   UNL     1       7.142   1.253  -0.217  1.00  0.00     0.043 C 
BRANCH   5   6
ATOM      6  C   UNL     1       7.533  -0.044  -0.777  1.00  0.00    -0.044 A 
ATOM      7  C   UNL     1       7.456  -0.268  -2.136  1.00  0.00     0.008 A 
ATOM      8  C   UNL     1       7.987  -1.079   0.022  1.00  0.00     0.054 A 
ATOM      9  C   UNL     1       7.816  -1.486  -2.707  1.00  0.00     0.051 A 
ATOM     10  C   UNL     1       8.355  -2.308  -0.521  1.00  0.00     0.166 A 
ATOM     11  C   UNL     1       8.266  -2.501  -1.884  1.00  0.00     0.165 A 
ATOM     12  O   UNL     1       8.835  -3.502   0.017  1.00  0.00    -0.454 OA
ATOM     13  O   UNL     1       8.687  -3.795  -2.155  1.00  0.00    -0.454 OA
ATOM     14  C   UNL     1       8.793  -4.530  -0.939  1.00  0.00     0.468 C 
ENDBRANCH   5   6
ENDBRANCH   1   5
TORSDOF 3
ENDMDL
MODEL 3
REMARK VINA RESULT:      -7.4      2.098      2.660
REMARK SMILES CC(=O)CCc1ccc2c(c1)OCO2
REMARK SMILES IDX 4 1 2 2 1 3 3 4 5 5 6 6 7 7 11 8 8 9 10 10 9 11 12 12 14 13
REMARK SMILES IDX 13 14
REMARK H PARENT
REMARK Flexibility Score: inf
ROOT
ATOM      1  C   UNL     1       5.410  -0.030   1.892  1.00  0.00     0.080 C 
ENDROOT
BRANCH   1   2
ATOM      2  C   UNL     1       4.597   1.179   1.650  1.00  0.00     0.130 C 
ATOM      3  C   UNL     1       4.999   2.117   0.582  1.00  0.00     0.087 C 
ATOM      4  O   UNL     1       3.621   1.376   2.331  1.00  0.00    -0.300 OA
ENDBRANCH   1   2
BRANCH   1   5
ATOM      5  C   UNL     1       6.863   0.206   1.535  1.00  0.00     0.043 C 
BRANCH   5   6
ATOM      6  C   UNL     1       7.317  -0.775   0.546  1.00  0.00    -0.044 A 
ATOM      7  C   UNL     1       7.147  -0.536  -0.802  1.00  0.00     0.008 A 
ATOM      8  C   UNL     1       7.923  -1.963   0.917  1.00  0.00     0.054 A 
ATOM      9  C   UNL     1       7.563  -1.443  -1.773  1.00  0.00     0.051 A 
ATOM     10  C   UNL     1       8.350  -2.889  -0.031  1.00  0.00     0.166 A 
ATOM     11  C   UNL     1       8.166  -2.620  -1.372  1.00  0.00     0.165 A 
ATOM     12  O   UNL     1       8.974  -4.134   0.039  1.00  0.00    -0.454 OA
ATOM     13  O   UNL     1       8.673  -3.692  -2.091  1.00  0.00    -0.454 OA
ATOM     14  C   UNL     1       8.942  -4.778  -1.208  1.00  0.00     0.468 C 
ENDBRANCH   5   6
ENDBRANCH   1   5
TORSDOF 3
ENDMDL
MODEL 4
REMARK VINA RESULT:      -7.2      1.260      1.451
REMARK SMILES CC(=O)CCc1ccc2c(c1)OCO2
REMARK SMILES IDX 4 1 2 2 1 3 3 4 5 5 6 6 7 7 11 8 8 9 10 10 9 11 12 12 14 13
REMARK SMILES IDX 13 14
REMARK H PARENT
REMARK Flexibility Score: inf
ROOT
ATOM      1  C   UNL     1       6.340   1.253   0.962  1.00  0.00     0.080 C 
ENDROOT
BRANCH   1   2
ATOM      2  C   UNL     1       5.607   0.441   1.955  1.00  0.00     0.130 C 
ATOM      3  C   UNL     1       6.259  -0.750   2.534  1.00  0.00     0.087 C 
ATOM      4  O   UNL     1       4.491   0.769   2.272  1.00  0.00    -0.300 OA
ENDBRANCH   1   2
BRANCH   1   5
ATOM      5  C   UNL     1       5.838   0.986  -0.442  1.00  0.00     0.043 C 
BRANCH   5   6
ATOM      6  C   UNL     1       6.759   0.099  -1.159  1.00  0.00    -0.044 A 
ATOM      7  C   UNL     1       7.382   0.527  -2.313  1.00  0.00     0.008 A 
ATOM      8  C   UNL     1       7.036  -1.182  -0.715  1.00  0.00     0.054 A 
ATOM      9  C   UNL     1       8.262  -0.284  -3.024  1.00  0.00     0.051 A 
ATOM     10  C   UNL     1       7.912  -2.017  -1.405  1.00  0.00     0.166 A 
ATOM     11  C   UNL     1       8.519  -1.559  -2.556  1.00  0.00     0.165 A 
ATOM     12  O   UNL     1       8.373  -3.318  -1.205  1.00  0.00    -0.454 OA
ATOM     13  O   UNL     1       9.332  -2.576  -3.037  1.00  0.00    -0.454 OA
ATOM     14  C   UNL     1       9.043  -3.788  -2.347  1.00  0.00     0.468 C 
ENDBRANCH   5   6
ENDBRANCH   1   5
TORSDOF 3
ENDMDL
MODEL 5
REMARK VINA RESULT:      -7.1      1.994      2.512
REMARK SMILES CC(=O)CCc1ccc2c(c1)OCO2
REMARK SMILES IDX 4 1 2 2 1 3 3 4 5 5 6 6 7 7 11 8 8 9 10 10 9 11 12 12 14 13
REMARK SMILES IDX 13 14
REMARK H PARENT
REMARK Flexibility Score: inf
ROOT
ATOM      1  C   UNL     1       6.814   0.891   1.308  1.00  0.00     0.080 C 
ENDROOT
BRANCH   1   2
ATOM      2  C   UNL     1       5.367   1.134   1.475  1.00  0.00     0.130 C 
ATOM      3  C   UNL     1       4.705   2.150   0.633  1.00  0.00     0.087 C 
ATOM      4  O   UNL     1       4.756   0.497   2.297  1.00  0.00    -0.300 OA
ENDBRANCH   1   2
BRANCH   1   5
ATOM      5  C   UNL     1       7.233   1.046  -0.139  1.00  0.00     0.043 C 
BRANCH   5   6
ATOM      6  C   UNL     1       7.648  -0.245  -0.697  1.00  0.00    -0.044 A 
ATOM      7  C   UNL     1       7.700  -0.429  -2.063  1.00  0.00     0.008 A 
ATOM      8  C   UNL     1       7.997  -1.313   0.111  1.00  0.00     0.054 A 
ATOM      9  C   UNL     1       8.087  -1.640  -2.632  1.00  0.00     0.051 A 
ATOM     10  C   UNL     1       8.389  -2.535  -0.429  1.00  0.00     0.166 A 
ATOM     11  C   UNL     1       8.431  -2.688  -1.799  1.00  0.00     0.165 A 
ATOM     12  O   UNL     1       8.787  -3.755   0.117  1.00  0.00    -0.454 OA
ATOM     13  O   UNL     1       8.847  -3.984  -2.067  1.00  0.00    -0.454 OA
ATOM     14  C   UNL     1       8.816  -4.755  -0.869  1.00  0.00     0.468 C 
ENDBRANCH   5   6
ENDBRANCH   1   5
TORSDOF 3
ENDMDL
