@<TRIPOS>MOLECULE
/home/cewinharhar/GITHUB/reincatalyze/data/processed/docking_pred/2023-May-31-1603_sub9_nm5_bs15_s42_ex16_mel10_mts1000_k50_ec05_g099_lra3e-4_lrc9e-3/3e742204aaadd08b2af2eabe2bac092cf241077d_ligand_9.pdbqt
 14 15 0 0 0
SMALL
GASTEIGER

@<TRIPOS>ATOM
      1  C          5.4100   -0.0300    1.8920 C.3     1  UNL1        0.0800
      2  C          4.5970    1.1790    1.6500 C.2     1  UNL1        0.1300
      3  C          4.9990    2.1170    0.5820 C.3     1  UNL1        0.0870
      4  O          3.6210    1.3760    2.3310 O.2     1  UNL1       -0.3000
      5  C          6.8630    0.2060    1.5350 C.3     1  UNL1        0.0430
      6  C          7.3170   -0.7750    0.5460 C.2     1  UNL1       -0.0440
      7  C          7.1470   -0.5360   -0.8020 C.2     1  UNL1        0.0080
      8  C          7.9230   -1.9630    0.9170 C.2     1  UNL1        0.0540
      9  C          7.5630   -1.4430   -1.7730 C.2     1  UNL1        0.0510
     10  C          8.3500   -2.8890   -0.0310 C.2     1  UNL1        0.1660
     11  C          8.1660   -2.6200   -1.3720 C.2     1  UNL1        0.1650
     12  O          8.9740   -4.1340    0.0390 O.2     1  UNL1       -0.4540
     13  O          8.6730   -3.6920   -2.0910 O.2     1  UNL1       -0.4540
     14  C          8.9420   -4.7780   -1.2080 C.3     1  UNL1        0.4680
@<TRIPOS>BOND
     1    13    11    1
     2    13    14    1
     3     9    11    2
     4     9     7    1
     5    11    10    1
     6    14    12    1
     7     7     6    2
     8    10    12    1
     9    10     8    2
    10     6     8    1
    11     6     5    1
    12     3     2    1
    13     5     1    1
    14     2     1    1
    15     2     4    2
