@<TRIPOS>MOLECULE
/home/cewinharhar/GITHUB/reincatalyze/data/processed/docking_pred/2023-May-31-1603_sub9_nm5_bs15_s42_ex16_mel10_mts1000_k50_ec05_g099_lra3e-4_lrc9e-3/3e742204aaadd08b2af2eabe2bac092cf241077d_ligand_9.pdbqt
 14 15 0 0 0
SMALL
GASTEIGER

@<TRIPOS>ATOM
      1  C          6.3400    1.2530    0.9620 C.3     1  UNL1        0.0800
      2  C          5.6070    0.4410    1.9550 C.2     1  UNL1        0.1300
      3  C          6.2590   -0.7500    2.5340 C.3     1  UNL1        0.0870
      4  O          4.4910    0.7690    2.2720 O.2     1  UNL1       -0.3000
      5  C          5.8380    0.9860   -0.4420 C.3     1  UNL1        0.0430
      6  C          6.7590    0.0990   -1.1590 C.2     1  UNL1       -0.0440
      7  C          7.3820    0.5270   -2.3130 C.2     1  UNL1        0.0080
      8  C          7.0360   -1.1820   -0.7150 C.2     1  UNL1        0.0540
      9  C          8.2620   -0.2840   -3.0240 C.2     1  UNL1        0.0510
     10  C          7.9120   -2.0170   -1.4050 C.2     1  UNL1        0.1660
     11  C          8.5190   -1.5590   -2.5560 C.2     1  UNL1        0.1650
     12  O          8.3730   -3.3180   -1.2050 O.2     1  UNL1       -0.4540
     13  O          9.3320   -2.5760   -3.0370 O.2     1  UNL1       -0.4540
     14  C          9.0430   -3.7880   -2.3470 C.3     1  UNL1        0.4680
@<TRIPOS>BOND
     1    13    11    1
     2    13    14    1
     3     9    11    2
     4     9     7    1
     5    11    10    1
     6    14    12    1
     7     7     6    2
     8    10    12    1
     9    10     8    2
    10     6     8    1
    11     6     5    1
    12     5     1    1
    13     1     2    1
    14     2     4    2
    15     2     3    1
