@<TRIPOS>MOLECULE
/home/cewinharhar/GITHUB/reincatalyze/data/processed/docking_pred/2023-May-31-1603_sub9_nm5_bs15_s42_ex16_mel10_mts1000_k50_ec05_g099_lra3e-4_lrc9e-3/3e742204aaadd08b2af2eabe2bac092cf241077d_ligand_9.pdbqt
 14 15 0 0 0
SMALL
GASTEIGER

@<TRIPOS>ATOM
      1  C          5.6380    1.4210   -0.2610 C.3     1  UNL1        0.0800
      2  C          5.0420    1.2630    1.0800 C.2     1  UNL1        0.1300
      3  C          5.4000    0.0830    1.8930 C.3     1  UNL1        0.0870
      4  O          4.2750    2.1010    1.4850 O.2     1  UNL1       -0.3000
      5  C          7.1420    1.2530   -0.2170 C.3     1  UNL1        0.0430
      6  C          7.5330   -0.0440   -0.7770 C.2     1  UNL1       -0.0440
      7  C          7.4560   -0.2680   -2.1360 C.2     1  UNL1        0.0080
      8  C          7.9870   -1.0790    0.0220 C.2     1  UNL1        0.0540
      9  C          7.8160   -1.4860   -2.7070 C.2     1  UNL1        0.0510
     10  C          8.3550   -2.3080   -0.5210 C.2     1  UNL1        0.1660
     11  C          8.2660   -2.5010   -1.8840 C.2     1  UNL1        0.1650
     12  O          8.8350   -3.5020    0.0170 O.2     1  UNL1       -0.4540
     13  O          8.6870   -3.7950   -2.1550 O.2     1  UNL1       -0.4540
     14  C          8.7930   -4.5300   -0.9390 C.3     1  UNL1        0.4680
@<TRIPOS>BOND
     1     9     7    1
     2     9    11    2
     3    13    11    1
     4    13    14    1
     5     7     6    2
     6    11    10    1
     7    14    12    1
     8     6     5    1
     9     6     8    1
    10    10    12    1
    11    10     8    2
    12     1     5    1
    13     1     2    1
    14     2     4    2
    15     2     3    1
