@<TRIPOS>MOLECULE
/home/cewinharhar/GITHUB/reincatalyze/data/processed/docking_pred/2023-May-31-1603_sub9_nm5_bs15_s42_ex16_mel10_mts1000_k50_ec05_g099_lra3e-4_lrc9e-3/3e742204aaadd08b2af2eabe2bac092cf241077d_ligand_9.pdbqt
 14 15 0 0 0
SMALL
GASTEIGER

@<TRIPOS>ATOM
      1  C          5.6050    1.8530    1.3260 C.3     1  UNL1        0.0800
      2  C          5.1340    0.6580    2.0540 C.2     1  UNL1        0.1300
      3  C          6.0570   -0.4790    2.2470 C.3     1  UNL1        0.0870
      4  O          4.0050    0.6350    2.4770 O.2     1  UNL1       -0.3000
      5  C          5.4210    1.6930   -0.1690 C.3     1  UNL1        0.0430
      6  C          6.5540    0.9680   -0.7520 C.2     1  UNL1       -0.0440
      7  C          7.8420    1.4300   -0.5750 C.2     1  UNL1        0.0080
      8  C          6.3810   -0.1880   -1.4930 C.2     1  UNL1        0.0540
      9  C          8.9440    0.7720   -1.1130 C.2     1  UNL1        0.0510
     10  C          7.4650   -0.8680   -2.0430 C.2     1  UNL1        0.1660
     11  C          8.7400   -0.3800   -1.8480 C.2     1  UNL1        0.1650
     12  O          7.5970   -2.0230   -2.8120 O.2     1  UNL1       -0.4540
     13  O          9.6220   -1.2350   -2.4930 O.2     1  UNL1       -0.4540
     14  C          8.8970   -2.1270   -3.3350 C.3     1  UNL1        0.4680
@<TRIPOS>BOND
     1    14    12    1
     2    14    13    1
     3    12    10    1
     4    13    11    1
     5    10    11    2
     6    10     8    1
     7    11     9    1
     8     8     6    2
     9     9     7    2
    10     6     7    1
    11     6     5    1
    12     5     1    1
    13     1     2    1
    14     2     3    1
    15     2     4    2
