@<TRIPOS>MOLECULE
/home/cewinharhar/GITHUB/reincatalyze/data/processed/docking_pred/2023-May-31-1603_sub9_nm5_bs15_s42_ex16_mel10_mts1000_k50_ec05_g099_lra3e-4_lrc9e-3/3ef00b253c4480de2280c2f95d83164b82996574_ligand_9.pdbqt
 14 15 0 0 0
SMALL
GASTEIGER

@<TRIPOS>ATOM
      1  C          6.3450    1.2080    0.9580 C.3     1  UNL1        0.0800
      2  C          5.6090    0.4090    1.9580 C.2     1  UNL1        0.1300
      3  C          6.2450   -0.7960    2.5290 C.3     1  UNL1        0.0870
      4  O          4.5020    0.7570    2.2890 O.2     1  UNL1       -0.3000
      5  C          5.8450    0.9280   -0.4440 C.3     1  UNL1        0.0430
      6  C          6.7710    0.0410   -1.1540 C.2     1  UNL1       -0.0440
      7  C          7.3560    0.4460   -2.3360 C.2     1  UNL1        0.0080
      8  C          7.0910   -1.2180   -0.6760 C.2     1  UNL1        0.0540
      9  C          8.2400   -0.3670   -3.0410 C.2     1  UNL1        0.0510
     10  C          7.9720   -2.0530   -1.3590 C.2     1  UNL1        0.1660
     11  C          8.5400   -1.6190   -2.5390 C.2     1  UNL1        0.1650
     12  O          8.4700   -3.3350   -1.1290 O.2     1  UNL1       -0.4540
     13  O          9.3660   -2.6300   -3.0070 O.2     1  UNL1       -0.4540
     14  C          9.1240   -3.8260   -2.2710 C.3     1  UNL1        0.4680
@<TRIPOS>BOND
     1     9    11    2
     2     9     7    1
     3    13    11    1
     4    13    14    1
     5    11    10    1
     6     7     6    2
     7    14    12    1
     8    10    12    1
     9    10     8    2
    10     6     8    1
    11     6     5    1
    12     5     1    1
    13     1     2    1
    14     2     4    2
    15     2     3    1
