@<TRIPOS>MOLECULE
/home/cewinharhar/GITHUB/reincatalyze/data/processed/docking_pred/2023-May-31-1603_sub9_nm5_bs15_s42_ex16_mel10_mts1000_k50_ec05_g099_lra3e-4_lrc9e-3/3ef00b253c4480de2280c2f95d83164b82996574_ligand_9.pdbqt
 14 15 0 0 0
SMALL
GASTEIGER

@<TRIPOS>ATOM
      1  C          5.6450    1.7930    1.3840 C.3     1  UNL1        0.0800
      2  C          5.1430    0.5910    2.0800 C.2     1  UNL1        0.1300
      3  C          6.0350   -0.5740    2.2430 C.3     1  UNL1        0.0870
      4  O          4.0130    0.5870    2.5020 O.2     1  UNL1       -0.3000
      5  C          5.4550    1.6790   -0.1140 C.3     1  UNL1        0.0430
      6  C          6.5740    0.9540   -0.7220 C.2     1  UNL1       -0.0440
      7  C          7.8670    1.4090   -0.5640 C.2     1  UNL1        0.0080
      8  C          6.3830   -0.1960   -1.4680 C.2     1  UNL1        0.0540
      9  C          8.9570    0.7500   -1.1260 C.2     1  UNL1        0.0510
     10  C          7.4540   -0.8760   -2.0420 C.2     1  UNL1        0.1660
     11  C          8.7350   -0.3960   -1.8650 C.2     1  UNL1        0.1650
     12  O          7.5670   -2.0270   -2.8220 O.2     1  UNL1       -0.4540
     13  O          9.6020   -1.2500   -2.5320 O.2     1  UNL1       -0.4540
     14  C          8.8570   -2.1320   -3.3680 C.3     1  UNL1        0.4680
@<TRIPOS>BOND
     1    14    12    1
     2    14    13    1
     3    12    10    1
     4    13    11    1
     5    10    11    2
     6    10     8    1
     7    11     9    1
     8     8     6    2
     9     9     7    2
    10     6     7    1
    11     6     5    1
    12     5     1    1
    13     1     2    1
    14     2     3    1
    15     2     4    2
