@<TRIPOS>MOLECULE
/home/cewinharhar/GITHUB/reincatalyze/data/processed/docking_pred/2023-May-31-1603_sub9_nm5_bs15_s42_ex16_mel10_mts1000_k50_ec05_g099_lra3e-4_lrc9e-3/40246e00fe273733fff606c0d5025fbb5a6aafa7_ligand_9.pdbqt
 14 15 0 0 0
SMALL
GASTEIGER

@<TRIPOS>ATOM
      1  C          8.2750    0.1750   -2.5870 C.3     1  UNL1        0.0800
      2  C          7.9840   -1.2660   -2.7200 C.2     1  UNL1        0.1300
      3  C          9.0890   -2.2000   -3.0170 C.3     1  UNL1        0.0870
      4  O          6.8500   -1.6520   -2.5840 O.2     1  UNL1       -0.3000
      5  C          8.8320    0.4980   -1.2160 C.3     1  UNL1        0.0430
      6  C          7.7780    0.4220   -0.2010 C.2     1  UNL1       -0.0440
      7  C          7.7940   -0.5810    0.7470 C.2     1  UNL1        0.0080
      8  C          6.7400    1.3360   -0.1520 C.2     1  UNL1        0.0540
      9  C          6.8110   -0.6890    1.7270 C.2     1  UNL1        0.0510
     10  C          5.7430    1.2540    0.8160 C.2     1  UNL1        0.1660
     11  C          5.7870    0.2390    1.7500 C.2     1  UNL1        0.1650
     12  O          4.6060    2.0080    1.1070 O.2     1  UNL1       -0.4540
     13  O          4.6900    0.3870    2.5870 O.2     1  UNL1       -0.4540
     14  C          3.7870    1.3370    2.0300 C.3     1  UNL1        0.4680
@<TRIPOS>BOND
     1     3     2    1
     2     2     1    1
     3     2     4    2
     4     1     5    1
     5     5     6    1
     6     6     8    2
     7     6     7    1
     8     8    10    1
     9     7     9    2
    10    10    12    1
    11    10    11    2
    12    12    14    1
    13     9    11    1
    14    11    13    1
    15    14    13    1
