@<TRIPOS>MOLECULE
/home/cewinharhar/GITHUB/reincatalyze/data/processed/docking_pred/2023-May-31-1603_sub9_nm5_bs15_s42_ex16_mel10_mts1000_k50_ec05_g099_lra3e-4_lrc9e-3/404021d27c656f8fbd9408a440432f577c9906d0_ligand_9.pdbqt
 14 15 0 0 0
SMALL
GASTEIGER

@<TRIPOS>ATOM
      1  C          6.2330    1.2560    1.0070 C.3     1  UNL1        0.0800
      2  C          5.5490    0.4050    2.0010 C.2     1  UNL1        0.1300
      3  C          6.2370   -0.7940    2.5180 C.3     1  UNL1        0.0870
      4  O          4.4410    0.7070    2.3690 O.2     1  UNL1       -0.3000
      5  C          5.7300    0.9780   -0.3940 C.3     1  UNL1        0.0430
      6  C          6.6730    0.1220   -1.1190 C.2     1  UNL1       -0.0440
      7  C          7.3060    0.5870   -2.2530 C.2     1  UNL1        0.0080
      8  C          6.9610   -1.1670   -0.7040 C.2     1  UNL1        0.0540
      9  C          8.2070   -0.1950   -2.9710 C.2     1  UNL1        0.0510
     10  C          7.8580   -1.9720   -1.4010 C.2     1  UNL1        0.1660
     11  C          8.4750   -1.4780   -2.5310 C.2     1  UNL1        0.1650
     12  O          8.3330   -3.2720   -1.2280 O.2     1  UNL1       -0.4540
     13  O          9.3070   -2.4720   -3.0260 O.2     1  UNL1       -0.4540
     14  C          9.0250   -3.7050   -2.3700 C.3     1  UNL1        0.4680
@<TRIPOS>BOND
     1    13    11    1
     2    13    14    1
     3     9    11    2
     4     9     7    1
     5    11    10    1
     6    14    12    1
     7     7     6    2
     8    10    12    1
     9    10     8    2
    10     6     8    1
    11     6     5    1
    12     5     1    1
    13     1     2    1
    14     2     4    2
    15     2     3    1
