MODEL 1
REMARK VINA RESULT:      -7.1      0.000      0.000
REMARK SMILES CC(=O)CCc1ccc2c(c1)OCO2
REMARK SMILES IDX 4 1 2 2 1 3 3 4 5 5 6 6 7 7 11 8 8 9 10 10 9 11 12 12 14 13
REMARK SMILES IDX 13 14
REMARK H PARENT
REMARK Flexibility Score: inf
ROOT
ATOM      1  C   UNL     1       9.813   1.327   2.639  1.00  0.00     0.080 C 
ENDROOT
BRANCH   1   2
ATOM      2  C   UNL     1      11.248   0.983   2.697  1.00  0.00     0.130 C 
ATOM      3  C   UNL     1      12.138   1.754   3.588  1.00  0.00     0.087 C 
ATOM      4  O   UNL     1      11.663   0.079   2.015  1.00  0.00    -0.300 OA
ENDBRANCH   1   2
BRANCH   1   5
ATOM      5  C   UNL     1       9.475   2.056   1.354  1.00  0.00     0.043 C 
BRANCH   5   6
ATOM      6  C   UNL     1       8.729   1.179   0.446  1.00  0.00    -0.044 A 
ATOM      7  C   UNL     1       7.375   0.985   0.621  1.00  0.00     0.008 A 
ATOM      8  C   UNL     1       9.343   0.521  -0.605  1.00  0.00     0.054 A 
ATOM      9  C   UNL     1       6.631   0.160  -0.219  1.00  0.00     0.051 A 
ATOM     10  C   UNL     1       8.625  -0.310  -1.461  1.00  0.00     0.166 A 
ATOM     11  C   UNL     1       7.272  -0.483  -1.260  1.00  0.00     0.165 A 
ATOM     12  O   UNL     1       8.961  -1.082  -2.573  1.00  0.00    -0.454 OA
ATOM     13  O   UNL     1       6.807  -1.349  -2.240  1.00  0.00    -0.454 OA
ATOM     14  C   UNL     1       7.910  -1.949  -2.913  1.00  0.00     0.468 C 
ENDBRANCH   5   6
ENDBRANCH   1   5
TORSDOF 3
ENDMDL
MODEL 2
REMARK VINA RESULT:      -7.0      1.364      5.191
REMARK SMILES CC(=O)CCc1ccc2c(c1)OCO2
REMARK SMILES IDX 4 1 2 2 1 3 3 4 5 5 6 6 7 7 11 8 8 9 10 10 9 11 12 12 14 13
REMARK SMILES IDX 13 14
REMARK H PARENT
REMARK Flexibility Score: inf
ROOT
ATOM      1  C   UNL     1       6.451   0.411  -0.885  1.00  0.00     0.080 C 
ENDROOT
BRANCH   1   2
ATOM      2  C   UNL     1       7.094  -0.405  -1.934  1.00  0.00     0.130 C 
ATOM      3  C   UNL     1       8.256   0.143  -2.662  1.00  0.00     0.087 C 
ATOM      4  O   UNL     1       6.658  -1.503  -2.175  1.00  0.00    -0.300 OA
ENDBRANCH   1   2
BRANCH   1   5
ATOM      5  C   UNL     1       6.600  -0.231   0.478  1.00  0.00     0.043 C 
BRANCH   5   6
ATOM      6  C   UNL     1       7.811   0.255   1.146  1.00  0.00    -0.044 A 
ATOM      7  C   UNL     1       7.784   1.429   1.870  1.00  0.00     0.008 A 
ATOM      8  C   UNL     1       9.010  -0.433   1.079  1.00  0.00     0.054 A 
ATOM      9  C   UNL     1       8.912   1.925   2.518  1.00  0.00     0.051 A 
ATOM     10  C   UNL     1      10.155   0.038   1.717  1.00  0.00     0.166 A 
ATOM     11  C   UNL     1      10.096   1.216   2.433  1.00  0.00     0.165 A 
ATOM     12  O   UNL     1      11.467  -0.423   1.824  1.00  0.00    -0.454 OA
ATOM     13  O   UNL     1      11.357   1.454   2.960  1.00  0.00    -0.454 OA
ATOM     14  C   UNL     1      12.301   0.570   2.362  1.00  0.00     0.468 C 
ENDBRANCH   5   6
ENDBRANCH   1   5
TORSDOF 3
ENDMDL
MODEL 3
REMARK VINA RESULT:      -7.0      2.649      5.255
REMARK SMILES CC(=O)CCc1ccc2c(c1)OCO2
REMARK SMILES IDX 4 1 2 2 1 3 3 4 5 5 6 6 7 7 11 8 8 9 10 10 9 11 12 12 14 13
REMARK SMILES IDX 13 14
REMARK H PARENT
REMARK Flexibility Score: inf
ROOT
ATOM      1  C   UNL     1       5.748   0.829   0.234  1.00  0.00     0.080 C 
ENDROOT
BRANCH   1   2
ATOM      2  C   UNL     1       5.546   0.142   1.525  1.00  0.00     0.130 C 
ATOM      3  C   UNL     1       6.255  -1.127   1.785  1.00  0.00     0.087 C 
ATOM      4  O   UNL     1       4.805   0.631   2.341  1.00  0.00    -0.300 OA
ENDBRANCH   1   2
BRANCH   1   5
ATOM      5  C   UNL     1       6.504   2.129   0.416  1.00  0.00     0.043 C 
BRANCH   5   6
ATOM      6  C   UNL     1       7.916   1.867   0.706  1.00  0.00    -0.044 A 
ATOM      7  C   UNL     1       8.737   1.326  -0.262  1.00  0.00     0.008 A 
ATOM      8  C   UNL     1       8.475   2.146   1.941  1.00  0.00     0.054 A 
ATOM      9  C   UNL     1      10.084   1.062  -0.027  1.00  0.00     0.051 A 
ATOM     10  C   UNL     1       9.819   1.893   2.205  1.00  0.00     0.166 A 
ATOM     11  C   UNL     1      10.613   1.351   1.216  1.00  0.00     0.165 A 
ATOM     12  O   UNL     1      10.638   2.065   3.320  1.00  0.00    -0.454 OA
ATOM     13  O   UNL     1      11.891   1.202   1.736  1.00  0.00    -0.454 OA
ATOM     14  C   UNL     1      11.860   1.395   3.147  1.00  0.00     0.468 C 
ENDBRANCH   5   6
ENDBRANCH   1   5
TORSDOF 3
ENDMDL
MODEL 4
REMARK VINA RESULT:      -6.9      2.551      5.270
REMARK SMILES CC(=O)CCc1ccc2c(c1)OCO2
REMARK SMILES IDX 4 1 2 2 1 3 3 4 5 5 6 6 7 7 11 8 8 9 10 10 9 11 12 12 14 13
REMARK SMILES IDX 13 14
REMARK H PARENT
REMARK Flexibility Score: inf
ROOT
ATOM      1  C   UNL     1       5.963   1.039   0.491  1.00  0.00     0.080 C 
ENDROOT
BRANCH   1   2
ATOM      2  C   UNL     1       5.520   0.124   1.562  1.00  0.00     0.130 C 
ATOM      3  C   UNL     1       5.904  -1.300   1.498  1.00  0.00     0.087 C 
ATOM      4  O   UNL     1       4.853   0.559   2.468  1.00  0.00    -0.300 OA
ENDBRANCH   1   2
BRANCH   1   5
ATOM      5  C   UNL     1       7.303   0.614  -0.074  1.00  0.00     0.043 C 
BRANCH   5   6
ATOM      6  C   UNL     1       8.376   0.882   0.888  1.00  0.00    -0.044 A 
ATOM      7  C   UNL     1       8.223   1.861   1.847  1.00  0.00     0.008 A 
ATOM      8  C   UNL     1       9.566   0.175   0.872  1.00  0.00     0.054 A 
ATOM      9  C   UNL     1       9.219   2.146   2.778  1.00  0.00     0.051 A 
ATOM     10  C   UNL     1      10.579   0.438   1.791  1.00  0.00     0.166 A 
ATOM     11  C   UNL     1      10.396   1.424   2.738  1.00  0.00     0.165 A 
ATOM     12  O   UNL     1      11.849  -0.094   2.014  1.00  0.00    -0.454 OA
ATOM     13  O   UNL     1      11.543   1.479   3.517  1.00  0.00    -0.454 OA
ATOM     14  C   UNL     1      12.577   0.714   2.903  1.00  0.00     0.468 C 
ENDBRANCH   5   6
ENDBRANCH   1   5
TORSDOF 3
ENDMDL
MODEL 5
REMARK VINA RESULT:      -6.9      3.364      4.002
REMARK SMILES CC(=O)CCc1ccc2c(c1)OCO2
REMARK SMILES IDX 4 1 2 2 1 3 3 4 5 5 6 6 7 7 11 8 8 9 10 10 9 11 12 12 14 13
REMARK SMILES IDX 13 14
REMARK H PARENT
REMARK Flexibility Score: inf
ROOT
ATOM      1  C   UNL     1       6.233   1.256   1.007  1.00  0.00     0.080 C 
ENDROOT
BRANCH   1   2
ATOM      2  C   UNL     1       5.549   0.405   2.001  1.00  0.00     0.130 C 
ATOM      3  C   UNL     1       6.237  -0.794   2.518  1.00  0.00     0.087 C 
ATOM      4  O   UNL     1       4.441   0.707   2.369  1.00  0.00    -0.300 OA
ENDBRANCH   1   2
BRANCH   1   5
ATOM      5  C   UNL     1       5.730   0.978  -0.394  1.00  0.00     0.043 C 
BRANCH   5   6
ATOM      6  C   UNL     1       6.673   0.122  -1.119  1.00  0.00    -0.044 A 
ATOM      7  C   UNL     1       7.306   0.587  -2.253  1.00  0.00     0.008 A 
ATOM      8  C   UNL     1       6.961  -1.167  -0.704  1.00  0.00     0.054 A 
ATOM      9  C   UNL     1       8.207  -0.195  -2.971  1.00  0.00     0.051 A 
ATOM     10  C   UNL     1       7.858  -1.972  -1.401  1.00  0.00     0.166 A 
ATOM     11  C   UNL     1       8.475  -1.478  -2.531  1.00  0.00     0.165 A 
ATOM     12  O   UNL     1       8.333  -3.272  -1.228  1.00  0.00    -0.454 OA
ATOM     13  O   UNL     1       9.307  -2.472  -3.026  1.00  0.00    -0.454 OA
ATOM     14  C   UNL     1       9.025  -3.705  -2.370  1.00  0.00     0.468 C 
ENDBRANCH   5   6
ENDBRANCH   1   5
TORSDOF 3
ENDMDL
