@<TRIPOS>MOLECULE
/home/cewinharhar/GITHUB/reincatalyze/data/processed/docking_pred/2023-May-31-1603_sub9_nm5_bs15_s42_ex16_mel10_mts1000_k50_ec05_g099_lra3e-4_lrc9e-3/404021d27c656f8fbd9408a440432f577c9906d0_ligand_9.pdbqt
 14 15 0 0 0
SMALL
GASTEIGER

@<TRIPOS>ATOM
      1  C          6.4510    0.4110   -0.8850 C.3     1  UNL1        0.0800
      2  C          7.0940   -0.4050   -1.9340 C.2     1  UNL1        0.1300
      3  C          8.2560    0.1430   -2.6620 C.3     1  UNL1        0.0870
      4  O          6.6580   -1.5030   -2.1750 O.2     1  UNL1       -0.3000
      5  C          6.6000   -0.2310    0.4780 C.3     1  UNL1        0.0430
      6  C          7.8110    0.2550    1.1460 C.2     1  UNL1       -0.0440
      7  C          7.7840    1.4290    1.8700 C.2     1  UNL1        0.0080
      8  C          9.0100   -0.4330    1.0790 C.2     1  UNL1        0.0540
      9  C          8.9120    1.9250    2.5180 C.2     1  UNL1        0.0510
     10  C         10.1550    0.0380    1.7170 C.2     1  UNL1        0.1660
     11  C         10.0960    1.2160    2.4330 C.2     1  UNL1        0.1650
     12  O         11.4670   -0.4230    1.8240 O.2     1  UNL1       -0.4540
     13  O         11.3570    1.4540    2.9600 O.2     1  UNL1       -0.4540
     14  C         12.3010    0.5700    2.3620 C.3     1  UNL1        0.4680
@<TRIPOS>BOND
     1     3     2    1
     2     4     2    2
     3     2     1    1
     4     1     5    1
     5     5     6    1
     6     8     6    2
     7     8    10    1
     8     6     7    1
     9    10    12    1
    10    10    11    2
    11    12    14    1
    12     7     9    2
    13    14    13    1
    14    11     9    1
    15    11    13    1
