@<TRIPOS>MOLECULE
/home/cewinharhar/GITHUB/reincatalyze/data/processed/docking_pred/2023-May-31-1603_sub9_nm5_bs15_s42_ex16_mel10_mts1000_k50_ec05_g099_lra3e-4_lrc9e-3/404021d27c656f8fbd9408a440432f577c9906d0_ligand_9.pdbqt
 14 15 0 0 0
SMALL
GASTEIGER

@<TRIPOS>ATOM
      1  C          9.8130    1.3270    2.6390 C.3     1  UNL1        0.0800
      2  C         11.2480    0.9830    2.6970 C.2     1  UNL1        0.1300
      3  C         12.1380    1.7540    3.5880 C.3     1  UNL1        0.0870
      4  O         11.6630    0.0790    2.0150 O.2     1  UNL1       -0.3000
      5  C          9.4750    2.0560    1.3540 C.3     1  UNL1        0.0430
      6  C          8.7290    1.1790    0.4460 C.2     1  UNL1       -0.0440
      7  C          7.3750    0.9850    0.6210 C.2     1  UNL1        0.0080
      8  C          9.3430    0.5210   -0.6050 C.2     1  UNL1        0.0540
      9  C          6.6310    0.1600   -0.2190 C.2     1  UNL1        0.0510
     10  C          8.6250   -0.3100   -1.4610 C.2     1  UNL1        0.1660
     11  C          7.2720   -0.4830   -1.2600 C.2     1  UNL1        0.1650
     12  O          8.9610   -1.0820   -2.5730 O.2     1  UNL1       -0.4540
     13  O          6.8070   -1.3490   -2.2400 O.2     1  UNL1       -0.4540
     14  C          7.9100   -1.9490   -2.9130 C.3     1  UNL1        0.4680
@<TRIPOS>BOND
     1    14    12    1
     2    14    13    1
     3    12    10    1
     4    13    11    1
     5    10    11    2
     6    10     8    1
     7    11     9    1
     8     8     6    2
     9     9     7    2
    10     6     7    1
    11     6     5    1
    12     5     1    1
    13     4     2    2
    14     1     2    1
    15     2     3    1
