@<TRIPOS>MOLECULE
/home/cewinharhar/GITHUB/reincatalyze/data/processed/docking_pred/2023-May-31-1603_sub9_nm5_bs15_s42_ex16_mel10_mts1000_k50_ec05_g099_lra3e-4_lrc9e-3/404021d27c656f8fbd9408a440432f577c9906d0_ligand_9.pdbqt
 14 15 0 0 0
SMALL
GASTEIGER

@<TRIPOS>ATOM
      1  C          5.7480    0.8290    0.2340 C.3     1  UNL1        0.0800
      2  C          5.5460    0.1420    1.5250 C.2     1  UNL1        0.1300
      3  C          6.2550   -1.1270    1.7850 C.3     1  UNL1        0.0870
      4  O          4.8050    0.6310    2.3410 O.2     1  UNL1       -0.3000
      5  C          6.5040    2.1290    0.4160 C.3     1  UNL1        0.0430
      6  C          7.9160    1.8670    0.7060 C.2     1  UNL1       -0.0440
      7  C          8.7370    1.3260   -0.2620 C.2     1  UNL1        0.0080
      8  C          8.4750    2.1460    1.9410 C.2     1  UNL1        0.0540
      9  C         10.0840    1.0620   -0.0270 C.2     1  UNL1        0.0510
     10  C          9.8190    1.8930    2.2050 C.2     1  UNL1        0.1660
     11  C         10.6130    1.3510    1.2160 C.2     1  UNL1        0.1650
     12  O         10.6380    2.0650    3.3200 O.2     1  UNL1       -0.4540
     13  O         11.8910    1.2020    1.7360 O.2     1  UNL1       -0.4540
     14  C         11.8600    1.3950    3.1470 C.3     1  UNL1        0.4680
@<TRIPOS>BOND
     1     7     9    1
     2     7     6    2
     3     9    11    2
     4     1     5    1
     5     1     2    1
     6     5     6    1
     7     6     8    1
     8    11    13    1
     9    11    10    1
    10     2     3    1
    11     2     4    2
    12    13    14    1
    13     8    10    2
    14    10    12    1
    15    14    12    1
