@<TRIPOS>MOLECULE
/home/cewinharhar/GITHUB/reincatalyze/data/processed/docking_pred/2023-May-31-1603_sub9_nm5_bs15_s42_ex16_mel10_mts1000_k50_ec05_g099_lra3e-4_lrc9e-3/404021d27c656f8fbd9408a440432f577c9906d0_ligand_9.pdbqt
 14 15 0 0 0
SMALL
GASTEIGER

@<TRIPOS>ATOM
      1  C          5.9630    1.0390    0.4910 C.3     1  UNL1        0.0800
      2  C          5.5200    0.1240    1.5620 C.2     1  UNL1        0.1300
      3  C          5.9040   -1.3000    1.4980 C.3     1  UNL1        0.0870
      4  O          4.8530    0.5590    2.4680 O.2     1  UNL1       -0.3000
      5  C          7.3030    0.6140   -0.0740 C.3     1  UNL1        0.0430
      6  C          8.3760    0.8820    0.8880 C.2     1  UNL1       -0.0440
      7  C          8.2230    1.8610    1.8470 C.2     1  UNL1        0.0080
      8  C          9.5660    0.1750    0.8720 C.2     1  UNL1        0.0540
      9  C          9.2190    2.1460    2.7780 C.2     1  UNL1        0.0510
     10  C         10.5790    0.4380    1.7910 C.2     1  UNL1        0.1660
     11  C         10.3960    1.4240    2.7380 C.2     1  UNL1        0.1650
     12  O         11.8490   -0.0940    2.0140 O.2     1  UNL1       -0.4540
     13  O         11.5430    1.4790    3.5170 O.2     1  UNL1       -0.4540
     14  C         12.5770    0.7140    2.9030 C.3     1  UNL1        0.4680
@<TRIPOS>BOND
     1     5     1    1
     2     5     6    1
     3     1     2    1
     4     8     6    2
     5     8    10    1
     6     6     7    1
     7     3     2    1
     8     2     4    2
     9    10    12    1
    10    10    11    2
    11     7     9    2
    12    12    14    1
    13    11     9    1
    14    11    13    1
    15    14    13    1
