@<TRIPOS>MOLECULE
/home/cewinharhar/GITHUB/reincatalyze/data/processed/docking_pred/2023-May-31-1603_sub9_nm5_bs15_s42_ex16_mel10_mts1000_k50_ec05_g099_lra3e-4_lrc9e-3/41d0b72e0d67d5e9a3b384f9954b5fa92cfe5642_ligand_9.pdbqt
 14 15 0 0 0
SMALL
GASTEIGER

@<TRIPOS>ATOM
      1  C          5.5900    1.8620    1.3040 C.3     1  UNL1        0.0800
      2  C          5.1240    0.6740    2.0460 C.2     1  UNL1        0.1300
      3  C          6.0460   -0.4640    2.2370 C.3     1  UNL1        0.0870
      4  O          4.0000    0.6570    2.4820 O.2     1  UNL1       -0.3000
      5  C          5.4100    1.6830   -0.1890 C.3     1  UNL1        0.0430
      6  C          6.5500    0.9600   -0.7610 C.2     1  UNL1       -0.0440
      7  C          7.8340    1.4310   -0.5840 C.2     1  UNL1        0.0080
      8  C          6.3860   -0.2040   -1.4920 C.2     1  UNL1        0.0540
      9  C          8.9430    0.7750   -1.1120 C.2     1  UNL1        0.0510
     10  C          7.4760   -0.8820   -2.0320 C.2     1  UNL1        0.1660
     11  C          8.7480   -0.3860   -1.8370 C.2     1  UNL1        0.1650
     12  O          7.6180   -2.0440   -2.7900 O.2     1  UNL1       -0.4540
     13  O          9.6370   -1.2410   -2.4710 O.2     1  UNL1       -0.4540
     14  C          8.9200   -2.1450   -3.3070 C.3     1  UNL1        0.4680
@<TRIPOS>BOND
     1    14    12    1
     2    14    13    1
     3    12    10    1
     4    13    11    1
     5    10    11    2
     6    10     8    1
     7    11     9    1
     8     8     6    2
     9     9     7    2
    10     6     7    1
    11     6     5    1
    12     5     1    1
    13     1     2    1
    14     2     3    1
    15     2     4    2
