@<TRIPOS>MOLECULE
/home/cewinharhar/GITHUB/reincatalyze/data/processed/docking_pred/2023-May-31-1603_sub9_nm5_bs15_s42_ex16_mel10_mts1000_k50_ec05_g099_lra3e-4_lrc9e-3/42234a6127519c7502e2f6bf4b16ee47cf11c698_ligand_9.pdbqt
 14 15 0 0 0
SMALL
GASTEIGER

@<TRIPOS>ATOM
      1  C          6.3100    1.2410    0.9720 C.3     1  UNL1        0.0800
      2  C          5.5990    0.4140    1.9670 C.2     1  UNL1        0.1300
      3  C          6.2650   -0.7840    2.5170 C.3     1  UNL1        0.0870
      4  O          4.4880    0.7330    2.3110 O.2     1  UNL1       -0.3000
      5  C          5.8080    0.9650   -0.4300 C.3     1  UNL1        0.0430
      6  C          6.7460    0.1010   -1.1520 C.2     1  UNL1       -0.0440
      7  C          7.3910    0.5620   -2.2810 C.2     1  UNL1        0.0080
      8  C          7.0180   -1.1920   -0.7390 C.2     1  UNL1        0.0540
      9  C          8.2880   -0.2270   -2.9960 C.2     1  UNL1        0.0510
     10  C          7.9110   -2.0040   -1.4330 C.2     1  UNL1        0.1660
     11  C          8.5400   -1.5130   -2.5580 C.2     1  UNL1        0.1650
     12  O          8.3710   -3.3090   -1.2610 O.2     1  UNL1       -0.4540
     13  O          9.3650   -2.5140   -3.0510 O.2     1  UNL1       -0.4540
     14  C          9.0660   -3.7460   -2.4000 C.3     1  UNL1        0.4680
@<TRIPOS>BOND
     1    13    11    1
     2    13    14    1
     3     9    11    2
     4     9     7    1
     5    11    10    1
     6    14    12    1
     7     7     6    2
     8    10    12    1
     9    10     8    2
    10     6     8    1
    11     6     5    1
    12     5     1    1
    13     1     2    1
    14     2     4    2
    15     2     3    1
