@<TRIPOS>MOLECULE
/home/cewinharhar/GITHUB/reincatalyze/data/processed/docking_pred/2023-May-31-1603_sub9_nm5_bs15_s42_ex16_mel10_mts1000_k50_ec05_g099_lra3e-4_lrc9e-3/42234a6127519c7502e2f6bf4b16ee47cf11c698_ligand_9.pdbqt
 14 15 0 0 0
SMALL
GASTEIGER

@<TRIPOS>ATOM
      1  C          6.5240    1.3400    0.4320 C.3     1  UNL1        0.0800
      2  C          5.3630    1.1300    1.3210 C.2     1  UNL1        0.1300
      3  C          5.2720   -0.1180    2.1040 C.3     1  UNL1        0.0870
      4  O          4.5130    1.9830    1.3880 O.2     1  UNL1       -0.3000
      5  C          6.2050    0.9350   -0.9920 C.3     1  UNL1        0.0430
      6  C          6.9830   -0.2460   -1.3780 C.2     1  UNL1       -0.0440
      7  C          7.4230   -0.3960   -2.6770 C.2     1  UNL1        0.0080
      8  C          7.3020   -1.2410   -0.4710 C.2     1  UNL1        0.0540
      9  C          8.1630   -1.5030   -3.0840 C.2     1  UNL1        0.0510
     10  C          8.0410   -2.3600   -0.8490 C.2     1  UNL1        0.1660
     11  C          8.4660   -2.4810   -2.1550 C.2     1  UNL1        0.1650
     12  O          8.5010   -3.4910   -0.1770 O.2     1  UNL1       -0.4540
     13  O          9.1710   -3.6710   -2.2610 O.2     1  UNL1       -0.4540
     14  C          8.9720   -4.4520   -1.0870 C.3     1  UNL1        0.4680
@<TRIPOS>BOND
     1     9     7    1
     2     9    11    2
     3     7     6    2
     4    13    11    1
     5    13    14    1
     6    11    10    1
     7     6     5    1
     8     6     8    1
     9    14    12    1
    10     5     1    1
    11    10     8    2
    12    10    12    1
    13     1     2    1
    14     2     4    2
    15     2     3    1
