@<TRIPOS>MOLECULE
/home/cewinharhar/GITHUB/reincatalyze/data/processed/docking_pred/2023-May-31-1603_sub9_nm5_bs15_s42_ex16_mel10_mts1000_k50_ec05_g099_lra3e-4_lrc9e-3/4295960a5818388fac6ce93a10a8a6662c8ec52f_ligand_9.pdbqt
 14 15 0 0 0
SMALL
GASTEIGER

@<TRIPOS>ATOM
      1  C          6.2230   -0.1490    0.8660 C.3     1  UNL1        0.0800
      2  C          5.2490    0.8480    1.3530 C.2     1  UNL1        0.1300
      3  C          4.9910    2.0570    0.5460 C.3     1  UNL1        0.0870
      4  O          4.6840    0.6540    2.4010 O.2     1  UNL1       -0.3000
      5  C          7.3600    0.5140    0.1160 C.3     1  UNL1        0.0430
      6  C          8.4790    0.7940    1.0200 C.2     1  UNL1       -0.0440
      7  C          8.3900    1.8130    1.9450 C.2     1  UNL1        0.0080
      8  C          9.6520    0.0600    0.9820 C.2     1  UNL1        0.0540
      9  C          9.4300    2.1110    2.8210 C.2     1  UNL1        0.0510
     10  C         10.7100    0.3350    1.8460 C.2     1  UNL1        0.1660
     11  C         10.5890    1.3610    2.7600 C.2     1  UNL1        0.1650
     12  O         11.9760   -0.2170    2.0360 O.2     1  UNL1       -0.4540
     13  O         11.7700    1.4200    3.4860 O.2     1  UNL1       -0.4540
     14  C         12.7590    0.6080    2.8600 C.3     1  UNL1        0.4680
@<TRIPOS>BOND
     1     5     1    1
     2     5     6    1
     3     3     2    1
     4     1     2    1
     5     8     6    2
     6     8    10    1
     7     6     7    1
     8     2     4    2
     9    10    12    1
    10    10    11    2
    11     7     9    2
    12    12    14    1
    13    11     9    1
    14    11    13    1
    15    14    13    1
