MODEL 1
REMARK VINA RESULT:      -7.1      0.000      0.000
REMARK SMILES CC(=O)CCc1ccc2c(c1)OCO2
REMARK SMILES IDX 4 1 2 2 1 3 3 4 5 5 6 6 7 7 11 8 8 9 10 10 9 11 12 12 14 13
REMARK SMILES IDX 13 14
REMARK H PARENT
REMARK Flexibility Score: inf
ROOT
ATOM      1  C   UNL     1       6.223  -0.149   0.866  1.00  0.00     0.080 C 
ENDROOT
BRANCH   1   2
ATOM      2  C   UNL     1       5.249   0.848   1.353  1.00  0.00     0.130 C 
ATOM      3  C   UNL     1       4.991   2.057   0.546  1.00  0.00     0.087 C 
ATOM      4  O   UNL     1       4.684   0.654   2.401  1.00  0.00    -0.300 OA
ENDBRANCH   1   2
BRANCH   1   5
ATOM      5  C   UNL     1       7.360   0.514   0.116  1.00  0.00     0.043 C 
BRANCH   5   6
ATOM      6  C   UNL     1       8.479   0.794   1.020  1.00  0.00    -0.044 A 
ATOM      7  C   UNL     1       8.390   1.813   1.945  1.00  0.00     0.008 A 
ATOM      8  C   UNL     1       9.652   0.060   0.982  1.00  0.00     0.054 A 
ATOM      9  C   UNL     1       9.430   2.111   2.821  1.00  0.00     0.051 A 
ATOM     10  C   UNL     1      10.710   0.335   1.846  1.00  0.00     0.166 A 
ATOM     11  C   UNL     1      10.589   1.361   2.760  1.00  0.00     0.165 A 
ATOM     12  O   UNL     1      11.976  -0.217   2.036  1.00  0.00    -0.454 OA
ATOM     13  O   UNL     1      11.770   1.420   3.486  1.00  0.00    -0.454 OA
ATOM     14  C   UNL     1      12.759   0.608   2.860  1.00  0.00     0.468 C 
ENDBRANCH   5   6
ENDBRANCH   1   5
TORSDOF 3
ENDMDL
MODEL 2
REMARK VINA RESULT:      -7.1      2.603      5.372
REMARK SMILES CC(=O)CCc1ccc2c(c1)OCO2
REMARK SMILES IDX 4 1 2 2 1 3 3 4 5 5 6 6 7 7 11 8 8 9 10 10 9 11 12 12 14 13
REMARK SMILES IDX 13 14
REMARK H PARENT
REMARK Flexibility Score: inf
ROOT
ATOM      1  C   UNL     1       9.724   1.403   2.618  1.00  0.00     0.080 C 
ENDROOT
BRANCH   1   2
ATOM      2  C   UNL     1      11.141   0.991   2.678  1.00  0.00     0.130 C 
ATOM      3  C   UNL     1      12.068   1.725   3.563  1.00  0.00     0.087 C 
ATOM      4  O   UNL     1      11.512   0.062   2.003  1.00  0.00    -0.300 OA
ENDBRANCH   1   2
BRANCH   1   5
ATOM      5  C   UNL     1       9.412   2.107   1.314  1.00  0.00     0.043 C 
BRANCH   5   6
ATOM      6  C   UNL     1       8.683   1.215   0.408  1.00  0.00    -0.044 A 
ATOM      7  C   UNL     1       7.327   1.017   0.566  1.00  0.00     0.008 A 
ATOM      8  C   UNL     1       9.315   0.545  -0.625  1.00  0.00     0.054 A 
ATOM      9  C   UNL     1       6.599   0.177  -0.273  1.00  0.00     0.051 A 
ATOM     10  C   UNL     1       8.613  -0.301  -1.480  1.00  0.00     0.166 A 
ATOM     11  C   UNL     1       7.258  -0.478  -1.296  1.00  0.00     0.165 A 
ATOM     12  O   UNL     1       8.969  -1.087  -2.576  1.00  0.00    -0.454 OA
ATOM     13  O   UNL     1       6.810  -1.359  -2.270  1.00  0.00    -0.454 OA
ATOM     14  C   UNL     1       7.926  -1.963  -2.919  1.00  0.00     0.468 C 
ENDBRANCH   5   6
ENDBRANCH   1   5
TORSDOF 3
ENDMDL
MODEL 3
REMARK VINA RESULT:      -7.1      3.456      4.463
REMARK SMILES CC(=O)CCc1ccc2c(c1)OCO2
REMARK SMILES IDX 4 1 2 2 1 3 3 4 5 5 6 6 7 7 11 8 8 9 10 10 9 11 12 12 14 13
REMARK SMILES IDX 13 14
REMARK H PARENT
REMARK Flexibility Score: inf
ROOT
ATOM      1  C   UNL     1       5.555   1.900   1.371  1.00  0.00     0.080 C 
ENDROOT
BRANCH   1   2
ATOM      2  C   UNL     1       5.068   0.683   2.051  1.00  0.00     0.130 C 
ATOM      3  C   UNL     1       5.975  -0.473   2.196  1.00  0.00     0.087 C 
ATOM      4  O   UNL     1       3.939   0.658   2.475  1.00  0.00    -0.300 OA
ENDBRANCH   1   2
BRANCH   1   5
ATOM      5  C   UNL     1       5.397   1.790  -0.131  1.00  0.00     0.043 C 
BRANCH   5   6
ATOM      6  C   UNL     1       6.518   1.047  -0.714  1.00  0.00    -0.044 A 
ATOM      7  C   UNL     1       7.816   1.457  -0.490  1.00  0.00     0.008 A 
ATOM      8  C   UNL     1       6.324  -0.076  -1.499  1.00  0.00     0.054 A 
ATOM      9  C   UNL     1       8.908   0.780  -1.026  1.00  0.00     0.051 A 
ATOM     10  C   UNL     1       7.396  -0.774  -2.048  1.00  0.00     0.166 A 
ATOM     11  C   UNL     1       8.683  -0.339  -1.806  1.00  0.00     0.165 A 
ATOM     12  O   UNL     1       7.508  -1.907  -2.854  1.00  0.00    -0.454 OA
ATOM     13  O   UNL     1       9.550  -1.201  -2.461  1.00  0.00    -0.454 OA
ATOM     14  C   UNL     1       8.815  -2.037  -3.350  1.00  0.00     0.468 C 
ENDBRANCH   5   6
ENDBRANCH   1   5
TORSDOF 3
ENDMDL
MODEL 4
REMARK VINA RESULT:      -7.0      3.593      4.695
REMARK SMILES CC(=O)CCc1ccc2c(c1)OCO2
REMARK SMILES IDX 4 1 2 2 1 3 3 4 5 5 6 6 7 7 11 8 8 9 10 10 9 11 12 12 14 13
REMARK SMILES IDX 13 14
REMARK H PARENT
REMARK Flexibility Score: inf
ROOT
ATOM      1  C   UNL     1       5.641   1.274  -0.297  1.00  0.00     0.080 C 
ENDROOT
BRANCH   1   2
ATOM      2  C   UNL     1       5.076   1.247   1.067  1.00  0.00     0.130 C 
ATOM      3  C   UNL     1       5.402   0.118   1.961  1.00  0.00     0.087 C 
ATOM      4  O   UNL     1       4.358   2.149   1.423  1.00  0.00    -0.300 OA
ENDBRANCH   1   2
BRANCH   1   5
ATOM      5  C   UNL     1       7.151   1.157  -0.267  1.00  0.00     0.043 C 
BRANCH   5   6
ATOM      6  C   UNL     1       7.580  -0.120  -0.846  1.00  0.00    -0.044 A 
ATOM      7  C   UNL     1       7.605  -0.291  -2.214  1.00  0.00     0.008 A 
ATOM      8  C   UNL     1       7.969  -1.188  -0.056  1.00  0.00     0.054 A 
ATOM      9  C   UNL     1       8.005  -1.487  -2.804  1.00  0.00     0.051 A 
ATOM     10  C   UNL     1       8.374  -2.397  -0.617  1.00  0.00     0.166 A 
ATOM     11  C   UNL     1       8.388  -2.536  -1.989  1.00  0.00     0.165 A 
ATOM     12  O   UNL     1       8.808  -3.614  -0.092  1.00  0.00    -0.454 OA
ATOM     13  O   UNL     1       8.826  -3.821  -2.279  1.00  0.00    -0.454 OA
ATOM     14  C   UNL     1       8.837  -4.603  -1.088  1.00  0.00     0.468 C 
ENDBRANCH   5   6
ENDBRANCH   1   5
TORSDOF 3
ENDMDL
MODEL 5
REMARK VINA RESULT:      -7.0      1.930      2.419
REMARK SMILES CC(=O)CCc1ccc2c(c1)OCO2
REMARK SMILES IDX 4 1 2 2 1 3 3 4 5 5 6 6 7 7 11 8 8 9 10 10 9 11 12 12 14 13
REMARK SMILES IDX 13 14
REMARK H PARENT
REMARK Flexibility Score: inf
ROOT
ATOM      1  C   UNL     1       6.432   0.437  -0.992  1.00  0.00     0.080 C 
ENDROOT
BRANCH   1   2
ATOM      2  C   UNL     1       7.108  -0.407  -1.998  1.00  0.00     0.130 C 
ATOM      3  C   UNL     1       8.283   0.127  -2.715  1.00  0.00     0.087 C 
ATOM      4  O   UNL     1       6.686  -1.516  -2.213  1.00  0.00    -0.300 OA
ENDBRANCH   1   2
BRANCH   1   5
ATOM      5  C   UNL     1       6.520  -0.178   0.389  1.00  0.00     0.043 C 
BRANCH   5   6
ATOM      6  C   UNL     1       7.728   0.280   1.081  1.00  0.00    -0.044 A 
ATOM      7  C   UNL     1       7.704   1.436   1.834  1.00  0.00     0.008 A 
ATOM      8  C   UNL     1       8.922  -0.416   1.007  1.00  0.00     0.054 A 
ATOM      9  C   UNL     1       8.830   1.905   2.505  1.00  0.00     0.051 A 
ATOM     10  C   UNL     1      10.065   0.029   1.668  1.00  0.00     0.166 A 
ATOM     11  C   UNL     1      10.009   1.188   2.413  1.00  0.00     0.165 A 
ATOM     12  O   UNL     1      11.371  -0.447   1.775  1.00  0.00    -0.454 OA
ATOM     13  O   UNL     1      11.267   1.401   2.958  1.00  0.00    -0.454 OA
ATOM     14  C   UNL     1      12.209   0.525   2.346  1.00  0.00     0.468 C 
ENDBRANCH   5   6
ENDBRANCH   1   5
TORSDOF 3
ENDMDL
