MODEL 1
REMARK VINA RESULT:      -7.5      0.000      0.000
REMARK SMILES CC(=O)CCc1ccc2c(c1)OCO2
REMARK SMILES IDX 4 1 2 2 1 3 3 4 5 5 6 6 7 7 11 8 8 9 10 10 9 11 12 12 14 13
REMARK SMILES IDX 13 14
REMARK H PARENT
REMARK Flexibility Score: inf
ROOT
ATOM      1  C   UNL     1       5.621   1.841   1.359  1.00  0.00     0.080 C 
ENDROOT
BRANCH   1   2
ATOM      2  C   UNL     1       5.133   0.638   2.063  1.00  0.00     0.130 C 
ATOM      3  C   UNL     1       6.044  -0.508   2.248  1.00  0.00     0.087 C 
ATOM      4  O   UNL     1       3.998   0.618   2.473  1.00  0.00    -0.300 OA
ENDBRANCH   1   2
BRANCH   1   5
ATOM      5  C   UNL     1       5.433   1.714  -0.139  1.00  0.00     0.043 C 
BRANCH   5   6
ATOM      6  C   UNL     1       6.552   0.981  -0.738  1.00  0.00    -0.044 A 
ATOM      7  C   UNL     1       7.847   1.427  -0.570  1.00  0.00     0.008 A 
ATOM      8  C   UNL     1       6.359  -0.169  -1.484  1.00  0.00     0.054 A 
ATOM      9  C   UNL     1       8.937   0.760  -1.124  1.00  0.00     0.051 A 
ATOM     10  C   UNL     1       7.430  -0.857  -2.049  1.00  0.00     0.166 A 
ATOM     11  C   UNL     1       8.712  -0.385  -1.864  1.00  0.00     0.165 A 
ATOM     12  O   UNL     1       7.541  -2.009  -2.827  1.00  0.00    -0.454 OA
ATOM     13  O   UNL     1       9.578  -1.245  -2.523  1.00  0.00    -0.454 OA
ATOM     14  C   UNL     1       8.834  -2.124  -3.363  1.00  0.00     0.468 C 
ENDBRANCH   5   6
ENDBRANCH   1   5
TORSDOF 3
ENDMDL
MODEL 2
REMARK VINA RESULT:      -7.3      1.960      2.376
REMARK SMILES CC(=O)CCc1ccc2c(c1)OCO2
REMARK SMILES IDX 4 1 2 2 1 3 3 4 5 5 6 6 7 7 11 8 8 9 10 10 9 11 12 12 14 13
REMARK SMILES IDX 13 14
REMARK H PARENT
REMARK Flexibility Score: inf
ROOT
ATOM      1  C   UNL     1       5.665   1.210  -0.271  1.00  0.00     0.080 C 
ENDROOT
BRANCH   1   2
ATOM      2  C   UNL     1       5.036   1.202   1.065  1.00  0.00     0.130 C 
ATOM      3  C   UNL     1       5.236   0.036   1.948  1.00  0.00     0.087 C 
ATOM      4  O   UNL     1       4.372   2.149   1.407  1.00  0.00    -0.300 OA
ENDBRANCH   1   2
BRANCH   1   5
ATOM      5  C   UNL     1       7.170   1.068  -0.171  1.00  0.00     0.043 C 
BRANCH   5   6
ATOM      6  C   UNL     1       7.606  -0.209  -0.744  1.00  0.00    -0.044 A 
ATOM      7  C   UNL     1       7.688  -0.367  -2.112  1.00  0.00     0.008 A 
ATOM      8  C   UNL     1       7.947  -1.290   0.051  1.00  0.00     0.054 A 
ATOM      9  C   UNL     1       8.097  -1.563  -2.695  1.00  0.00     0.051 A 
ATOM     10  C   UNL     1       8.359  -2.499  -0.504  1.00  0.00     0.166 A 
ATOM     11  C   UNL     1       8.431  -2.625  -1.876  1.00  0.00     0.165 A 
ATOM     12  O   UNL     1       8.755  -3.726   0.027  1.00  0.00    -0.454 OA
ATOM     13  O   UNL     1       8.863  -3.912  -2.159  1.00  0.00    -0.454 OA
ATOM     14  C   UNL     1       8.813  -4.706  -0.977  1.00  0.00     0.468 C 
ENDBRANCH   5   6
ENDBRANCH   1   5
TORSDOF 3
ENDMDL
MODEL 3
REMARK VINA RESULT:      -7.3      2.135      2.689
REMARK SMILES CC(=O)CCc1ccc2c(c1)OCO2
REMARK SMILES IDX 4 1 2 2 1 3 3 4 5 5 6 6 7 7 11 8 8 9 10 10 9 11 12 12 14 13
REMARK SMILES IDX 13 14
REMARK H PARENT
REMARK Flexibility Score: inf
ROOT
ATOM      1  C   UNL     1       5.361  -0.109   1.856  1.00  0.00     0.080 C 
ENDROOT
BRANCH   1   2
ATOM      2  C   UNL     1       4.577   1.121   1.621  1.00  0.00     0.130 C 
ATOM      3  C   UNL     1       5.003   2.056   0.560  1.00  0.00     0.087 C 
ATOM      4  O   UNL     1       3.605   1.336   2.302  1.00  0.00    -0.300 OA
ENDBRANCH   1   2
BRANCH   1   5
ATOM      5  C   UNL     1       6.832   0.117   1.575  1.00  0.00     0.043 C 
BRANCH   5   6
ATOM      6  C   UNL     1       7.319  -0.842   0.579  1.00  0.00    -0.044 A 
ATOM      7  C   UNL     1       7.191  -0.572  -0.768  1.00  0.00     0.008 A 
ATOM      8  C   UNL     1       7.915  -2.037   0.942  1.00  0.00     0.054 A 
ATOM      9  C   UNL     1       7.640  -1.457  -1.746  1.00  0.00     0.051 A 
ATOM     10  C   UNL     1       8.374  -2.941  -0.013  1.00  0.00     0.166 A 
ATOM     11  C   UNL     1       8.231  -2.642  -1.352  1.00  0.00     0.165 A 
ATOM     12  O   UNL     1       8.997  -4.187   0.049  1.00  0.00    -0.454 OA
ATOM     13  O   UNL     1       8.764  -3.697  -2.079  1.00  0.00    -0.454 OA
ATOM     14  C   UNL     1       9.006  -4.802  -1.213  1.00  0.00     0.468 C 
ENDBRANCH   5   6
ENDBRANCH   1   5
TORSDOF 3
ENDMDL
MODEL 4
REMARK VINA RESULT:      -7.1      1.221      5.143
REMARK SMILES CC(=O)CCc1ccc2c(c1)OCO2
REMARK SMILES IDX 4 1 2 2 1 3 3 4 5 5 6 6 7 7 11 8 8 9 10 10 9 11 12 12 14 13
REMARK SMILES IDX 13 14
REMARK H PARENT
REMARK Flexibility Score: inf
ROOT
ATOM      1  C   UNL     1       8.255   0.161  -2.663  1.00  0.00     0.080 C 
ENDROOT
BRANCH   1   2
ATOM      2  C   UNL     1       7.916  -1.275  -2.721  1.00  0.00     0.130 C 
ATOM      3  C   UNL     1       8.989  -2.260  -2.964  1.00  0.00     0.087 C 
ATOM      4  O   UNL     1       6.768  -1.615  -2.569  1.00  0.00    -0.300 OA
ENDBRANCH   1   2
BRANCH   1   5
ATOM      5  C   UNL     1       8.830   0.535  -1.313  1.00  0.00     0.043 C 
BRANCH   5   6
ATOM      6  C   UNL     1       7.803   0.442  -0.272  1.00  0.00    -0.044 A 
ATOM      7  C   UNL     1       7.877  -0.538   0.696  1.00  0.00     0.008 A 
ATOM      8  C   UNL     1       6.734   1.320  -0.218  1.00  0.00     0.054 A 
ATOM      9  C   UNL     1       6.921  -0.661   1.701  1.00  0.00     0.051 A 
ATOM     10  C   UNL     1       5.762   1.222   0.776  1.00  0.00     0.166 A 
ATOM     11  C   UNL     1       5.865   0.230   1.729  1.00  0.00     0.165 A 
ATOM     12  O   UNL     1       4.606   1.941   1.077  1.00  0.00    -0.454 OA
ATOM     13  O   UNL     1       4.783   0.356   2.588  1.00  0.00    -0.454 OA
ATOM     14  C   UNL     1       3.833   1.262   2.033  1.00  0.00     0.468 C 
ENDBRANCH   5   6
ENDBRANCH   1   5
TORSDOF 3
ENDMDL
MODEL 5
REMARK VINA RESULT:      -7.0      1.223      1.381
REMARK SMILES CC(=O)CCc1ccc2c(c1)OCO2
REMARK SMILES IDX 4 1 2 2 1 3 3 4 5 5 6 6 7 7 11 8 8 9 10 10 9 11 12 12 14 13
REMARK SMILES IDX 13 14
REMARK H PARENT
REMARK Flexibility Score: inf
ROOT
ATOM      1  C   UNL     1       6.232   1.247   1.009  1.00  0.00     0.080 C 
ENDROOT
BRANCH   1   2
ATOM      2  C   UNL     1       5.556   0.382   1.996  1.00  0.00     0.130 C 
ATOM      3  C   UNL     1       6.260  -0.809   2.512  1.00  0.00     0.087 C 
ATOM      4  O   UNL     1       4.441   0.665   2.360  1.00  0.00    -0.300 OA
ENDBRANCH   1   2
BRANCH   1   5
ATOM      5  C   UNL     1       5.735   0.971  -0.395  1.00  0.00     0.043 C 
BRANCH   5   6
ATOM      6  C   UNL     1       6.687   0.126  -1.122  1.00  0.00    -0.044 A 
ATOM      7  C   UNL     1       7.337   0.610  -2.238  1.00  0.00     0.008 A 
ATOM      8  C   UNL     1       6.968  -1.170  -0.725  1.00  0.00     0.054 A 
ATOM      9  C   UNL     1       8.248  -0.160  -2.956  1.00  0.00     0.051 A 
ATOM     10  C   UNL     1       7.874  -1.964  -1.423  1.00  0.00     0.166 A 
ATOM     11  C   UNL     1       8.508  -1.451  -2.535  1.00  0.00     0.165 A 
ATOM     12  O   UNL     1       8.345  -3.267  -1.266  1.00  0.00    -0.454 OA
ATOM     13  O   UNL     1       9.346  -2.437  -3.036  1.00  0.00    -0.454 OA
ATOM     14  C   UNL     1       9.053  -3.681  -2.406  1.00  0.00     0.468 C 
ENDBRANCH   5   6
ENDBRANCH   1   5
TORSDOF 3
ENDMDL
