@<TRIPOS>MOLECULE
/home/cewinharhar/GITHUB/reincatalyze/data/processed/docking_pred/2023-May-31-1603_sub9_nm5_bs15_s42_ex16_mel10_mts1000_k50_ec05_g099_lra3e-4_lrc9e-3/437598aa9d4ddbb457dda5082e5f4820e6dbe55d_ligand_9.pdbqt
 14 15 0 0 0
SMALL
GASTEIGER

@<TRIPOS>ATOM
      1  C          5.3610   -0.1090    1.8560 C.3     1  UNL1        0.0800
      2  C          4.5770    1.1210    1.6210 C.2     1  UNL1        0.1300
      3  C          5.0030    2.0560    0.5600 C.3     1  UNL1        0.0870
      4  O          3.6050    1.3360    2.3020 O.2     1  UNL1       -0.3000
      5  C          6.8320    0.1170    1.5750 C.3     1  UNL1        0.0430
      6  C          7.3190   -0.8420    0.5790 C.2     1  UNL1       -0.0440
      7  C          7.1910   -0.5720   -0.7680 C.2     1  UNL1        0.0080
      8  C          7.9150   -2.0370    0.9420 C.2     1  UNL1        0.0540
      9  C          7.6400   -1.4570   -1.7460 C.2     1  UNL1        0.0510
     10  C          8.3740   -2.9410   -0.0130 C.2     1  UNL1        0.1660
     11  C          8.2310   -2.6420   -1.3520 C.2     1  UNL1        0.1650
     12  O          8.9970   -4.1870    0.0490 O.2     1  UNL1       -0.4540
     13  O          8.7640   -3.6970   -2.0790 O.2     1  UNL1       -0.4540
     14  C          9.0060   -4.8020   -1.2130 C.3     1  UNL1        0.4680
@<TRIPOS>BOND
     1    13    11    1
     2    13    14    1
     3     9    11    2
     4     9     7    1
     5    11    10    1
     6    14    12    1
     7     7     6    2
     8    10    12    1
     9    10     8    2
    10     3     2    1
    11     6     8    1
    12     6     5    1
    13     5     1    1
    14     2     1    1
    15     2     4    2
