@<TRIPOS>MOLECULE
/home/cewinharhar/GITHUB/reincatalyze/data/processed/docking_pred/2023-May-31-1603_sub9_nm5_bs15_s42_ex16_mel10_mts1000_k50_ec05_g099_lra3e-4_lrc9e-3/44bf36be1ccee3462d679cf400989bbed31f99fd_ligand_9.pdbqt
 14 15 0 0 0
SMALL
GASTEIGER

@<TRIPOS>ATOM
      1  C          5.6670    1.0490   -0.2500 C.3     1  UNL1        0.0800
      2  C          5.2190    1.1390    1.1550 C.2     1  UNL1        0.1300
      3  C          5.4380   -0.0110    2.0560 C.3     1  UNL1        0.0870
      4  O          4.6830    2.1490    1.5370 O.2     1  UNL1       -0.3000
      5  C          7.1790    1.0160   -0.3420 C.3     1  UNL1        0.0430
      6  C          7.6340   -0.2730   -0.8720 C.2     1  UNL1       -0.0440
      7  C          7.7710   -0.4580   -2.2320 C.2     1  UNL1        0.0080
      8  C          7.9390   -1.3390   -0.0430 C.2     1  UNL1        0.0540
      9  C          8.1990   -1.6660   -2.7750 C.2     1  UNL1        0.0510
     10  C          8.3700   -2.5590   -0.5570 C.2     1  UNL1        0.1660
     11  C          8.4960   -2.7130   -1.9220 C.2     1  UNL1        0.1650
     12  O          8.7390   -3.7770    0.0130 O.2     1  UNL1       -0.4540
     13  O          8.9360   -4.0070   -2.1630 O.2     1  UNL1       -0.4540
     14  C          8.8350   -4.7770   -0.9690 C.3     1  UNL1        0.4680
@<TRIPOS>BOND
     1     9     7    1
     2     9    11    2
     3     7     6    2
     4    13    11    1
     5    13    14    1
     6    11    10    1
     7    14    12    1
     8     6     5    1
     9     6     8    1
    10    10     8    2
    11    10    12    1
    12     5     1    1
    13     1     2    1
    14     2     4    2
    15     2     3    1
