MODEL 1
REMARK VINA RESULT:      -7.5      0.000      0.000
REMARK SMILES CC(=O)CCc1ccc2c(c1)OCO2
REMARK SMILES IDX 4 1 2 2 1 3 3 4 5 5 6 6 7 7 11 8 8 9 10 10 9 11 12 12 14 13
REMARK SMILES IDX 13 14
REMARK H PARENT
REMARK Flexibility Score: inf
ROOT
ATOM      1  C   UNL     1       5.670   1.820   1.308  1.00  0.00     0.080 C 
ENDROOT
BRANCH   1   2
ATOM      2  C   UNL     1       5.177   0.638   2.044  1.00  0.00     0.130 C 
ATOM      3  C   UNL     1       6.088  -0.502   2.270  1.00  0.00     0.087 C 
ATOM      4  O   UNL     1       4.040   0.628   2.445  1.00  0.00    -0.300 OA
ENDBRANCH   1   2
BRANCH   1   5
ATOM      5  C   UNL     1       5.483   1.654  -0.186  1.00  0.00     0.043 C 
BRANCH   5   6
ATOM      6  C   UNL     1       6.613   0.924  -0.768  1.00  0.00    -0.044 A 
ATOM      7  C   UNL     1       7.899   1.404  -0.629  1.00  0.00     0.008 A 
ATOM      8  C   UNL     1       6.440  -0.256  -1.470  1.00  0.00     0.054 A 
ATOM      9  C   UNL     1       8.999   0.742  -1.168  1.00  0.00     0.051 A 
ATOM     10  C   UNL     1       7.521  -0.941  -2.020  1.00  0.00     0.166 A 
ATOM     11  C   UNL     1       8.794  -0.434  -1.863  1.00  0.00     0.165 A 
ATOM     12  O   UNL     1       7.651  -2.118  -2.757  1.00  0.00    -0.454 OA
ATOM     13  O   UNL     1       9.673  -1.299  -2.499  1.00  0.00    -0.454 OA
ATOM     14  C   UNL     1       8.942  -2.223  -3.300  1.00  0.00     0.468 C 
ENDBRANCH   5   6
ENDBRANCH   1   5
TORSDOF 3
ENDMDL
MODEL 2
REMARK VINA RESULT:      -7.3      1.892      2.345
REMARK SMILES CC(=O)CCc1ccc2c(c1)OCO2
REMARK SMILES IDX 4 1 2 2 1 3 3 4 5 5 6 6 7 7 11 8 8 9 10 10 9 11 12 12 14 13
REMARK SMILES IDX 13 14
REMARK H PARENT
REMARK Flexibility Score: inf
ROOT
ATOM      1  C   UNL     1       5.667   1.049  -0.250  1.00  0.00     0.080 C 
ENDROOT
BRANCH   1   2
ATOM      2  C   UNL     1       5.219   1.139   1.155  1.00  0.00     0.130 C 
ATOM      3  C   UNL     1       5.438  -0.011   2.056  1.00  0.00     0.087 C 
ATOM      4  O   UNL     1       4.683   2.149   1.537  1.00  0.00    -0.300 OA
ENDBRANCH   1   2
BRANCH   1   5
ATOM      5  C   UNL     1       7.179   1.016  -0.342  1.00  0.00     0.043 C 
BRANCH   5   6
ATOM      6  C   UNL     1       7.634  -0.273  -0.872  1.00  0.00    -0.044 A 
ATOM      7  C   UNL     1       7.771  -0.458  -2.232  1.00  0.00     0.008 A 
ATOM      8  C   UNL     1       7.939  -1.339  -0.043  1.00  0.00     0.054 A 
ATOM      9  C   UNL     1       8.199  -1.666  -2.775  1.00  0.00     0.051 A 
ATOM     10  C   UNL     1       8.370  -2.559  -0.557  1.00  0.00     0.166 A 
ATOM     11  C   UNL     1       8.496  -2.713  -1.922  1.00  0.00     0.165 A 
ATOM     12  O   UNL     1       8.739  -3.777   0.013  1.00  0.00    -0.454 OA
ATOM     13  O   UNL     1       8.936  -4.007  -2.163  1.00  0.00    -0.454 OA
ATOM     14  C   UNL     1       8.835  -4.777  -0.969  1.00  0.00     0.468 C 
ENDBRANCH   5   6
ENDBRANCH   1   5
TORSDOF 3
ENDMDL
MODEL 3
REMARK VINA RESULT:      -7.3      1.992      2.577
REMARK SMILES CC(=O)CCc1ccc2c(c1)OCO2
REMARK SMILES IDX 4 1 2 2 1 3 3 4 5 5 6 6 7 7 11 8 8 9 10 10 9 11 12 12 14 13
REMARK SMILES IDX 13 14
REMARK H PARENT
REMARK Flexibility Score: inf
ROOT
ATOM      1  C   UNL     1       5.377  -0.015   1.983  1.00  0.00     0.080 C 
ENDROOT
BRANCH   1   2
ATOM      2  C   UNL     1       4.523   1.169   1.766  1.00  0.00     0.130 C 
ATOM      3  C   UNL     1       4.883   2.134   0.707  1.00  0.00     0.087 C 
ATOM      4  O   UNL     1       3.547   1.324   2.457  1.00  0.00    -0.300 OA
ENDBRANCH   1   2
BRANCH   1   5
ATOM      5  C   UNL     1       6.812   0.263   1.585  1.00  0.00     0.043 C 
BRANCH   5   6
ATOM      6  C   UNL     1       7.266  -0.706   0.584  1.00  0.00    -0.044 A 
ATOM      7  C   UNL     1       7.080  -0.458  -0.760  1.00  0.00     0.008 A 
ATOM      8  C   UNL     1       7.888  -1.890   0.939  1.00  0.00     0.054 A 
ATOM      9  C   UNL     1       7.495  -1.352  -1.743  1.00  0.00     0.051 A 
ATOM     10  C   UNL     1       8.315  -2.804  -0.021  1.00  0.00     0.166 A 
ATOM     11  C   UNL     1       8.114  -2.527  -1.357  1.00  0.00     0.165 A 
ATOM     12  O   UNL     1       8.953  -4.043   0.034  1.00  0.00    -0.454 OA
ATOM     13  O   UNL     1       8.626  -3.588  -2.090  1.00  0.00    -0.454 OA
ATOM     14  C   UNL     1       8.915  -4.677  -1.219  1.00  0.00     0.468 C 
ENDBRANCH   5   6
ENDBRANCH   1   5
TORSDOF 3
ENDMDL
MODEL 4
REMARK VINA RESULT:      -7.1      1.167      1.298
REMARK SMILES CC(=O)CCc1ccc2c(c1)OCO2
REMARK SMILES IDX 4 1 2 2 1 3 3 4 5 5 6 6 7 7 11 8 8 9 10 10 9 11 12 12 14 13
REMARK SMILES IDX 13 14
REMARK H PARENT
REMARK Flexibility Score: inf
ROOT
ATOM      1  C   UNL     1       6.234   1.348   0.914  1.00  0.00     0.080 C 
ENDROOT
BRANCH   1   2
ATOM      2  C   UNL     1       5.560   0.510   1.926  1.00  0.00     0.130 C 
ATOM      3  C   UNL     1       6.276  -0.650   2.494  1.00  0.00     0.087 C 
ATOM      4  O   UNL     1       4.439   0.792   2.269  1.00  0.00    -0.300 OA
ENDBRANCH   1   2
BRANCH   1   5
ATOM      5  C   UNL     1       5.743   1.024  -0.482  1.00  0.00     0.043 C 
BRANCH   5   6
ATOM      6  C   UNL     1       6.704   0.165  -1.180  1.00  0.00    -0.044 A 
ATOM      7  C   UNL     1       7.393   0.639  -2.277  1.00  0.00     0.008 A 
ATOM      8  C   UNL     1       6.954  -1.135  -0.775  1.00  0.00     0.054 A 
ATOM      9  C   UNL     1       8.313  -0.145  -2.968  1.00  0.00     0.051 A 
ATOM     10  C   UNL     1       7.868  -1.942  -1.447  1.00  0.00     0.166 A 
ATOM     11  C   UNL     1       8.542  -1.439  -2.540  1.00  0.00     0.165 A 
ATOM     12  O   UNL     1       8.316  -3.252  -1.275  1.00  0.00    -0.454 OA
ATOM     13  O   UNL     1       9.380  -2.437  -3.015  1.00  0.00    -0.454 OA
ATOM     14  C   UNL     1       9.051  -3.676  -2.394  1.00  0.00     0.468 C 
ENDBRANCH   5   6
ENDBRANCH   1   5
TORSDOF 3
ENDMDL
MODEL 5
REMARK VINA RESULT:      -7.0      1.834      2.445
REMARK SMILES CC(=O)CCc1ccc2c(c1)OCO2
REMARK SMILES IDX 4 1 2 2 1 3 3 4 5 5 6 6 7 7 11 8 8 9 10 10 9 11 12 12 14 13
REMARK SMILES IDX 13 14
REMARK H PARENT
REMARK Flexibility Score: inf
ROOT
ATOM      1  C   UNL     1       6.522   0.516   0.965  1.00  0.00     0.080 C 
ENDROOT
BRANCH   1   2
ATOM      2  C   UNL     1       5.208   1.060   1.361  1.00  0.00     0.130 C 
ATOM      3  C   UNL     1       4.610   2.150   0.564  1.00  0.00     0.087 C 
ATOM      4  O   UNL     1       4.649   0.604   2.328  1.00  0.00    -0.300 OA
ENDBRANCH   1   2
BRANCH   1   5
ATOM      5  C   UNL     1       6.745   0.650  -0.527  1.00  0.00     0.043 C 
BRANCH   5   6
ATOM      6  C   UNL     1       7.414  -0.542  -1.057  1.00  0.00    -0.044 A 
ATOM      7  C   UNL     1       7.798  -0.594  -2.381  1.00  0.00     0.008 A 
ATOM      8  C   UNL     1       7.681  -1.645  -0.265  1.00  0.00     0.054 A 
ATOM      9  C   UNL     1       8.434  -1.707  -2.923  1.00  0.00     0.051 A 
ATOM     10  C   UNL     1       8.316  -2.772  -0.780  1.00  0.00     0.166 A 
ATOM     11  C   UNL     1       8.688  -2.794  -2.108  1.00  0.00     0.165 A 
ATOM     12  O   UNL     1       8.707  -3.998  -0.240  1.00  0.00    -0.454 OA
ATOM     13  O   UNL     1       9.292  -4.017  -2.357  1.00  0.00    -0.454 OA
ATOM     14  C   UNL     1       9.070  -4.896  -1.257  1.00  0.00     0.468 C 
ENDBRANCH   5   6
ENDBRANCH   1   5
TORSDOF 3
ENDMDL
