@<TRIPOS>MOLECULE
/home/cewinharhar/GITHUB/reincatalyze/data/processed/docking_pred/2023-May-31-1603_sub9_nm5_bs15_s42_ex16_mel10_mts1000_k50_ec05_g099_lra3e-4_lrc9e-3/44bf36be1ccee3462d679cf400989bbed31f99fd_ligand_9.pdbqt
 14 15 0 0 0
SMALL
GASTEIGER

@<TRIPOS>ATOM
      1  C          5.3770   -0.0150    1.9830 C.3     1  UNL1        0.0800
      2  C          4.5230    1.1690    1.7660 C.2     1  UNL1        0.1300
      3  C          4.8830    2.1340    0.7070 C.3     1  UNL1        0.0870
      4  O          3.5470    1.3240    2.4570 O.2     1  UNL1       -0.3000
      5  C          6.8120    0.2630    1.5850 C.3     1  UNL1        0.0430
      6  C          7.2660   -0.7060    0.5840 C.2     1  UNL1       -0.0440
      7  C          7.0800   -0.4580   -0.7600 C.2     1  UNL1        0.0080
      8  C          7.8880   -1.8900    0.9390 C.2     1  UNL1        0.0540
      9  C          7.4950   -1.3520   -1.7430 C.2     1  UNL1        0.0510
     10  C          8.3150   -2.8040   -0.0210 C.2     1  UNL1        0.1660
     11  C          8.1140   -2.5270   -1.3570 C.2     1  UNL1        0.1650
     12  O          8.9530   -4.0430    0.0340 O.2     1  UNL1       -0.4540
     13  O          8.6260   -3.5880   -2.0900 O.2     1  UNL1       -0.4540
     14  C          8.9150   -4.6770   -1.2190 C.3     1  UNL1        0.4680
@<TRIPOS>BOND
     1    13    11    1
     2    13    14    1
     3     9    11    2
     4     9     7    1
     5    11    10    1
     6    14    12    1
     7     7     6    2
     8    10    12    1
     9    10     8    2
    10     6     8    1
    11     6     5    1
    12     3     2    1
    13     5     1    1
    14     2     1    1
    15     2     4    2
