@<TRIPOS>MOLECULE
/home/cewinharhar/GITHUB/reincatalyze/data/processed/docking_pred/2023-May-31-1603_sub9_nm5_bs15_s42_ex16_mel10_mts1000_k50_ec05_g099_lra3e-4_lrc9e-3/46824fcf52dc560be674bfd6df7e039c48ea1670_ligand_9.pdbqt
 14 15 0 0 0
SMALL
GASTEIGER

@<TRIPOS>ATOM
      1  C          8.3520    0.2340   -2.5490 C.3     1  UNL1        0.0800
      2  C          7.9950   -1.1900   -2.7060 C.2     1  UNL1        0.1300
      3  C          9.0570   -2.1700   -3.0110 C.3     1  UNL1        0.0870
      4  O          6.8430   -1.5250   -2.5830 O.2     1  UNL1       -0.3000
      5  C          8.8910    0.5150   -1.1620 C.3     1  UNL1        0.0430
      6  C          7.8190    0.4270   -0.1650 C.2     1  UNL1       -0.0440
      7  C          7.8080   -0.5980    0.7570 C.2     1  UNL1        0.0080
      8  C          6.7920    1.3530   -0.1110 C.2     1  UNL1        0.0540
      9  C          6.8080   -0.7170    1.7190 C.2     1  UNL1        0.0510
     10  C          5.7790    1.2600    0.8390 C.2     1  UNL1        0.1660
     11  C          5.7950    0.2230    1.7480 C.2     1  UNL1        0.1650
     12  O          4.6470    2.0220    1.1300 O.2     1  UNL1       -0.4540
     13  O          4.6870    0.3650    2.5710 O.2     1  UNL1       -0.4540
     14  C          3.8050    1.3400    2.0230 C.3     1  UNL1        0.4680
@<TRIPOS>BOND
     1     3     2    1
     2     2     4    2
     3     2     1    1
     4     1     5    1
     5     5     6    1
     6     6     8    2
     7     6     7    1
     8     8    10    1
     9     7     9    2
    10    10    12    1
    11    10    11    2
    12    12    14    1
    13     9    11    1
    14    11    13    1
    15    14    13    1
