@<TRIPOS>MOLECULE
/home/cewinharhar/GITHUB/reincatalyze/data/processed/docking_pred/2023-May-31-1603_sub9_nm5_bs15_s42_ex16_mel10_mts1000_k50_ec05_g099_lra3e-4_lrc9e-3/46824fcf52dc560be674bfd6df7e039c48ea1670_ligand_9.pdbqt
 14 15 0 0 0
SMALL
GASTEIGER

@<TRIPOS>ATOM
      1  C          5.6680    1.7970    1.3970 C.3     1  UNL1        0.0800
      2  C          5.1670    0.5940    2.0920 C.2     1  UNL1        0.1300
      3  C          6.0660   -0.5640    2.2670 C.3     1  UNL1        0.0870
      4  O          4.0340    0.5830    2.5040 O.2     1  UNL1       -0.3000
      5  C          5.4730    1.6850   -0.1010 C.3     1  UNL1        0.0430
      6  C          6.5910    0.9600   -0.7130 C.2     1  UNL1       -0.0440
      7  C          7.8840    1.4150   -0.5590 C.2     1  UNL1        0.0080
      8  C          6.3970   -0.1890   -1.4590 C.2     1  UNL1        0.0540
      9  C          8.9730    0.7560   -1.1240 C.2     1  UNL1        0.0510
     10  C          7.4670   -0.8700   -2.0360 C.2     1  UNL1        0.1660
     11  C          8.7480   -0.3900   -1.8630 C.2     1  UNL1        0.1650
     12  O          7.5770   -2.0200   -2.8170 O.2     1  UNL1       -0.4540
     13  O          9.6130   -1.2430   -2.5330 O.2     1  UNL1       -0.4540
     14  C          8.8660   -2.1260   -3.3660 C.3     1  UNL1        0.4680
@<TRIPOS>BOND
     1    14    12    1
     2    14    13    1
     3    12    10    1
     4    13    11    1
     5    10    11    2
     6    10     8    1
     7    11     9    1
     8     8     6    2
     9     9     7    2
    10     6     7    1
    11     6     5    1
    12     5     1    1
    13     1     2    1
    14     2     3    1
    15     2     4    2
