@<TRIPOS>MOLECULE
/home/cewinharhar/GITHUB/reincatalyze/data/processed/docking_pred/2023-May-31-1603_sub9_nm5_bs15_s42_ex16_mel10_mts1000_k50_ec05_g099_lra3e-4_lrc9e-3/46861e00ed193d15618049a480e2ca269f83ce14_ligand_9.pdbqt
 14 15 0 0 0
SMALL
GASTEIGER

@<TRIPOS>ATOM
      1  C          5.3670   -0.1060    1.8240 C.3     1  UNL1        0.0800
      2  C          4.6280    1.1550    1.6140 C.2     1  UNL1        0.1300
      3  C          5.0760    2.0860    0.5580 C.3     1  UNL1        0.0870
      4  O          3.6740    1.4000    2.3090 O.2     1  UNL1       -0.3000
      5  C          6.8520    0.0830    1.5920 C.3     1  UNL1        0.0430
      6  C          7.3430   -0.8710    0.5930 C.2     1  UNL1       -0.0440
      7  C          7.2330   -0.5880   -0.7530 C.2     1  UNL1        0.0080
      8  C          7.9260   -2.0730    0.9530 C.2     1  UNL1        0.0540
      9  C          7.6850   -1.4670   -1.7330 C.2     1  UNL1        0.0510
     10  C          8.3880   -2.9720   -0.0050 C.2     1  UNL1        0.1660
     11  C          8.2640   -2.6600   -1.3430 C.2     1  UNL1        0.1650
     12  O          9.0020   -4.2230    0.0530 O.2     1  UNL1       -0.4540
     13  O          8.7960   -3.7130   -2.0740 O.2     1  UNL1       -0.4540
     14  C          9.0210   -4.8270   -1.2150 C.3     1  UNL1        0.4680
@<TRIPOS>BOND
     1    13    11    1
     2    13    14    1
     3     9    11    2
     4     9     7    1
     5    11    10    1
     6    14    12    1
     7     7     6    2
     8    10    12    1
     9    10     8    2
    10     3     2    1
    11     6     8    1
    12     6     5    1
    13     5     1    1
    14     2     1    1
    15     2     4    2
