@<TRIPOS>MOLECULE
/home/cewinharhar/GITHUB/reincatalyze/data/processed/docking_pred/2023-May-31-1603_sub9_nm5_bs15_s42_ex16_mel10_mts1000_k50_ec05_g099_lra3e-4_lrc9e-3/46861e00ed193d15618049a480e2ca269f83ce14_ligand_9.pdbqt
 14 15 0 0 0
SMALL
GASTEIGER

@<TRIPOS>ATOM
      1  C          5.5480    1.8840    1.3100 C.3     1  UNL1        0.0800
      2  C          5.0730    0.6840    2.0270 C.2     1  UNL1        0.1300
      3  C          5.9810   -0.4700    2.1820 C.3     1  UNL1        0.0870
      4  O          3.9520    0.6700    2.4720 O.2     1  UNL1       -0.3000
      5  C          5.3790    1.7320   -0.1870 C.3     1  UNL1        0.0430
      6  C          6.5110    0.9970   -0.7610 C.2     1  UNL1       -0.0440
      7  C          7.8020    1.4350   -0.5550 C.2     1  UNL1        0.0080
      8  C          6.3320   -0.1450   -1.5220 C.2     1  UNL1        0.0540
      9  C          8.9040    0.7670   -1.0830 C.2     1  UNL1        0.0510
     10  C          7.4140   -0.8350   -2.0630 C.2     1  UNL1        0.1660
     11  C          8.6940   -0.3710   -1.8380 C.2     1  UNL1        0.1650
     12  O          7.5410   -1.9810   -2.8470 O.2     1  UNL1       -0.4540
     13  O          9.5730   -1.2310   -2.4810 O.2     1  UNL1       -0.4540
     14  C          8.8480   -2.0980   -3.3480 C.3     1  UNL1        0.4680
@<TRIPOS>BOND
     1    14    12    1
     2    14    13    1
     3    12    10    1
     4    13    11    1
     5    10    11    2
     6    10     8    1
     7    11     9    1
     8     8     6    2
     9     9     7    2
    10     6     7    1
    11     6     5    1
    12     5     1    1
    13     1     2    1
    14     2     3    1
    15     2     4    2
