@<TRIPOS>MOLECULE
/home/cewinharhar/GITHUB/reincatalyze/data/processed/docking_pred/2023-May-31-1603_sub9_nm5_bs15_s42_ex16_mel10_mts1000_k50_ec05_g099_lra3e-4_lrc9e-3/46861e00ed193d15618049a480e2ca269f83ce14_ligand_9.pdbqt
 14 15 0 0 0
SMALL
GASTEIGER

@<TRIPOS>ATOM
      1  C          5.6110    1.1210   -0.2890 C.3     1  UNL1        0.0800
      2  C          5.0730    1.1930    1.0840 C.2     1  UNL1        0.1300
      3  C          5.3670    0.0980    2.0310 C.3     1  UNL1        0.0870
      4  O          4.4050    2.1440    1.4050 O.2     1  UNL1       -0.3000
      5  C          7.1230    1.0380   -0.2830 C.3     1  UNL1        0.0430
      6  C          7.5700   -0.2570   -0.8050 C.2     1  UNL1       -0.0440
      7  C          7.6280   -0.4770   -2.1660 C.2     1  UNL1        0.0080
      8  C          7.9430   -1.2950    0.0310 C.2     1  UNL1        0.0540
      9  C          8.0450   -1.6920   -2.7020 C.2     1  UNL1        0.0510
     10  C          8.3650   -2.5210   -0.4770 C.2     1  UNL1        0.1660
     11  C          8.4120   -2.7100   -1.8420 C.2     1  UNL1        0.1650
     12  O          8.7910   -3.7170    0.1020 O.2     1  UNL1       -0.4540
     13  O          8.8600   -4.0020   -2.0750 O.2     1  UNL1       -0.4540
     14  C          8.8460   -4.7410   -0.8570 C.3     1  UNL1        0.4680
@<TRIPOS>BOND
     1     9     7    1
     2     9    11    2
     3     7     6    2
     4    13    11    1
     5    13    14    1
     6    11    10    1
     7    14    12    1
     8     6     5    1
     9     6     8    1
    10    10     8    2
    11    10    12    1
    12     1     5    1
    13     1     2    1
    14     2     4    2
    15     2     3    1
