MODEL 1
REMARK VINA RESULT:      -7.5      0.000      0.000
REMARK SMILES CC(=O)CCc1ccc2c(c1)OCO2
REMARK SMILES IDX 4 1 2 2 1 3 3 4 5 5 6 6 7 7 11 8 8 9 10 10 9 11 12 12 14 13
REMARK SMILES IDX 13 14
REMARK H PARENT
REMARK Flexibility Score: inf
ROOT
ATOM      1  C   UNL     1       5.633   1.823   1.344  1.00  0.00     0.080 C 
ENDROOT
BRANCH   1   2
ATOM      2  C   UNL     1       5.135   0.633   2.063  1.00  0.00     0.130 C 
ATOM      3  C   UNL     1       6.035  -0.522   2.254  1.00  0.00     0.087 C 
ATOM      4  O   UNL     1       4.003   0.629   2.479  1.00  0.00    -0.300 OA
ENDBRANCH   1   2
BRANCH   1   5
ATOM      5  C   UNL     1       5.448   1.678  -0.152  1.00  0.00     0.043 C 
BRANCH   5   6
ATOM      6  C   UNL     1       6.577   0.952  -0.742  1.00  0.00    -0.044 A 
ATOM      7  C   UNL     1       7.865   1.420  -0.584  1.00  0.00     0.008 A 
ATOM      8  C   UNL     1       6.399  -0.210  -1.472  1.00  0.00     0.054 A 
ATOM      9  C   UNL     1       8.964   0.761  -1.129  1.00  0.00     0.051 A 
ATOM     10  C   UNL     1       7.479  -0.891  -2.029  1.00  0.00     0.166 A 
ATOM     11  C   UNL     1       8.755  -0.398  -1.852  1.00  0.00     0.165 A 
ATOM     12  O   UNL     1       7.606  -2.053  -2.790  1.00  0.00    -0.454 OA
ATOM     13  O   UNL     1       9.632  -1.255  -2.501  1.00  0.00    -0.454 OA
ATOM     14  C   UNL     1       8.900  -2.156  -3.327  1.00  0.00     0.468 C 
ENDBRANCH   5   6
ENDBRANCH   1   5
TORSDOF 3
ENDMDL
MODEL 2
REMARK VINA RESULT:      -7.4      1.913      2.362
REMARK SMILES CC(=O)CCc1ccc2c(c1)OCO2
REMARK SMILES IDX 4 1 2 2 1 3 3 4 5 5 6 6 7 7 11 8 8 9 10 10 9 11 12 12 14 13
REMARK SMILES IDX 13 14
REMARK H PARENT
REMARK Flexibility Score: inf
ROOT
ATOM      1  C   UNL     1       5.676   1.139  -0.280  1.00  0.00     0.080 C 
ENDROOT
BRANCH   1   2
ATOM      2  C   UNL     1       5.135   1.197   1.093  1.00  0.00     0.130 C 
ATOM      3  C   UNL     1       5.418   0.087   2.026  1.00  0.00     0.087 C 
ATOM      4  O   UNL     1       4.474   2.149   1.425  1.00  0.00    -0.300 OA
ENDBRANCH   1   2
BRANCH   1   5
ATOM      5  C   UNL     1       7.188   1.048  -0.270  1.00  0.00     0.043 C 
BRANCH   5   6
ATOM      6  C   UNL     1       7.630  -0.234  -0.826  1.00  0.00    -0.044 A 
ATOM      7  C   UNL     1       7.731  -0.404  -2.192  1.00  0.00     0.008 A 
ATOM      8  C   UNL     1       7.957  -1.309  -0.018  1.00  0.00     0.054 A 
ATOM      9  C   UNL     1       8.146  -1.605  -2.759  1.00  0.00     0.051 A 
ATOM     10  C   UNL     1       8.376  -2.523  -0.557  1.00  0.00     0.166 A 
ATOM     11  C   UNL     1       8.466  -2.661  -1.927  1.00  0.00     0.165 A 
ATOM     12  O   UNL     1       8.761  -3.747  -0.011  1.00  0.00    -0.454 OA
ATOM     13  O   UNL     1       8.901  -3.952  -2.193  1.00  0.00    -0.454 OA
ATOM     14  C   UNL     1       8.832  -4.736  -1.006  1.00  0.00     0.468 C 
ENDBRANCH   5   6
ENDBRANCH   1   5
TORSDOF 3
ENDMDL
MODEL 3
REMARK VINA RESULT:      -7.3      2.086      2.633
REMARK SMILES CC(=O)CCc1ccc2c(c1)OCO2
REMARK SMILES IDX 4 1 2 2 1 3 3 4 5 5 6 6 7 7 11 8 8 9 10 10 9 11 12 12 14 13
REMARK SMILES IDX 13 14
REMARK H PARENT
REMARK Flexibility Score: inf
ROOT
ATOM      1  C   UNL     1       5.454   0.007   1.885  1.00  0.00     0.080 C 
ENDROOT
BRANCH   1   2
ATOM      2  C   UNL     1       4.617   1.197   1.636  1.00  0.00     0.130 C 
ATOM      3  C   UNL     1       5.013   2.148   0.578  1.00  0.00     0.087 C 
ATOM      4  O   UNL     1       3.626   1.369   2.302  1.00  0.00    -0.300 OA
ENDBRANCH   1   2
BRANCH   1   5
ATOM      5  C   UNL     1       6.895   0.256   1.490  1.00  0.00     0.043 C 
BRANCH   5   6
ATOM      6  C   UNL     1       7.340  -0.741   0.512  1.00  0.00    -0.044 A 
ATOM      7  C   UNL     1       7.169  -0.516  -0.839  1.00  0.00     0.008 A 
ATOM      8  C   UNL     1       7.939  -1.928   0.896  1.00  0.00     0.054 A 
ATOM      9  C   UNL     1       7.578  -1.437  -1.800  1.00  0.00     0.051 A 
ATOM     10  C   UNL     1       8.358  -2.868  -0.042  1.00  0.00     0.166 A 
ATOM     11  C   UNL     1       8.173  -2.613  -1.385  1.00  0.00     0.165 A 
ATOM     12  O   UNL     1       8.973  -4.116   0.042  1.00  0.00    -0.454 OA
ATOM     13  O   UNL     1       8.672  -3.697  -2.093  1.00  0.00    -0.454 OA
ATOM     14  C   UNL     1       8.935  -4.774  -1.198  1.00  0.00     0.468 C 
ENDBRANCH   5   6
ENDBRANCH   1   5
TORSDOF 3
ENDMDL
MODEL 4
REMARK VINA RESULT:      -7.1      1.221      1.387
REMARK SMILES CC(=O)CCc1ccc2c(c1)OCO2
REMARK SMILES IDX 4 1 2 2 1 3 3 4 5 5 6 6 7 7 11 8 8 9 10 10 9 11 12 12 14 13
REMARK SMILES IDX 13 14
REMARK H PARENT
REMARK Flexibility Score: inf
ROOT
ATOM      1  C   UNL     1       6.292   1.254   0.990  1.00  0.00     0.080 C 
ENDROOT
BRANCH   1   2
ATOM      2  C   UNL     1       5.601   0.410   1.985  1.00  0.00     0.130 C 
ATOM      3  C   UNL     1       6.297  -0.769   2.539  1.00  0.00     0.087 C 
ATOM      4  O   UNL     1       4.481   0.701   2.326  1.00  0.00    -0.300 OA
ENDBRANCH   1   2
BRANCH   1   5
ATOM      5  C   UNL     1       5.784   0.979  -0.410  1.00  0.00     0.043 C 
BRANCH   5   6
ATOM      6  C   UNL     1       6.721   0.117  -1.137  1.00  0.00    -0.044 A 
ATOM      7  C   UNL     1       7.356   0.579  -2.271  1.00  0.00     0.008 A 
ATOM      8  C   UNL     1       7.002  -1.173  -0.723  1.00  0.00     0.054 A 
ATOM      9  C   UNL     1       8.252  -0.208  -2.990  1.00  0.00     0.051 A 
ATOM     10  C   UNL     1       7.893  -1.984  -1.421  1.00  0.00     0.166 A 
ATOM     11  C   UNL     1       8.512  -1.492  -2.552  1.00  0.00     0.165 A 
ATOM     12  O   UNL     1       8.360  -3.286  -1.249  1.00  0.00    -0.454 OA
ATOM     13  O   UNL     1       9.338  -2.491  -3.049  1.00  0.00    -0.454 OA
ATOM     14  C   UNL     1       9.049  -3.722  -2.393  1.00  0.00     0.468 C 
ENDBRANCH   5   6
ENDBRANCH   1   5
TORSDOF 3
ENDMDL
MODEL 5
REMARK VINA RESULT:      -7.1      1.956      2.534
REMARK SMILES CC(=O)CCc1ccc2c(c1)OCO2
REMARK SMILES IDX 4 1 2 2 1 3 3 4 5 5 6 6 7 7 11 8 8 9 10 10 9 11 12 12 14 13
REMARK SMILES IDX 13 14
REMARK H PARENT
REMARK Flexibility Score: inf
ROOT
ATOM      1  C   UNL     1       6.783   0.742   1.196  1.00  0.00     0.080 C 
ENDROOT
BRANCH   1   2
ATOM      2  C   UNL     1       5.375   1.124   1.425  1.00  0.00     0.130 C 
ATOM      3  C   UNL     1       4.754   2.144   0.556  1.00  0.00     0.087 C 
ATOM      4  O   UNL     1       4.760   0.595   2.318  1.00  0.00    -0.300 OA
ENDBRANCH   1   2
BRANCH   1   5
ATOM      5  C   UNL     1       7.164   0.899  -0.261  1.00  0.00     0.043 C 
BRANCH   5   6
ATOM      6  C   UNL     1       7.623  -0.378  -0.814  1.00  0.00    -0.044 A 
ATOM      7  C   UNL     1       7.738  -0.546  -2.178  1.00  0.00     0.008 A 
ATOM      8  C   UNL     1       7.954  -1.450  -0.003  1.00  0.00     0.054 A 
ATOM      9  C   UNL     1       8.170  -1.743  -2.743  1.00  0.00     0.051 A 
ATOM     10  C   UNL     1       8.389  -2.660  -0.539  1.00  0.00     0.166 A 
ATOM     11  C   UNL     1       8.493  -2.796  -1.908  1.00  0.00     0.165 A 
ATOM     12  O   UNL     1       8.781  -3.880   0.011  1.00  0.00    -0.454 OA
ATOM     13  O   UNL     1       8.942  -4.082  -2.171  1.00  0.00    -0.454 OA
ATOM     14  C   UNL     1       8.870  -4.868  -0.984  1.00  0.00     0.468 C 
ENDBRANCH   5   6
ENDBRANCH   1   5
TORSDOF 3
ENDMDL
