@<TRIPOS>MOLECULE
/home/cewinharhar/GITHUB/reincatalyze/data/processed/docking_pred/2023-May-31-1603_sub9_nm5_bs15_s42_ex16_mel10_mts1000_k50_ec05_g099_lra3e-4_lrc9e-3/46aa5159a95d0d08c04f597503a56ad94e9ef6ed_ligand_9.pdbqt
 14 15 0 0 0
SMALL
GASTEIGER

@<TRIPOS>ATOM
      1  C          6.7830    0.7420    1.1960 C.3     1  UNL1        0.0800
      2  C          5.3750    1.1240    1.4250 C.2     1  UNL1        0.1300
      3  C          4.7540    2.1440    0.5560 C.3     1  UNL1        0.0870
      4  O          4.7600    0.5950    2.3180 O.2     1  UNL1       -0.3000
      5  C          7.1640    0.8990   -0.2610 C.3     1  UNL1        0.0430
      6  C          7.6230   -0.3780   -0.8140 C.2     1  UNL1       -0.0440
      7  C          7.7380   -0.5460   -2.1780 C.2     1  UNL1        0.0080
      8  C          7.9540   -1.4500   -0.0030 C.2     1  UNL1        0.0540
      9  C          8.1700   -1.7430   -2.7430 C.2     1  UNL1        0.0510
     10  C          8.3890   -2.6600   -0.5390 C.2     1  UNL1        0.1660
     11  C          8.4930   -2.7960   -1.9080 C.2     1  UNL1        0.1650
     12  O          8.7810   -3.8800    0.0110 O.2     1  UNL1       -0.4540
     13  O          8.9420   -4.0820   -2.1710 O.2     1  UNL1       -0.4540
     14  C          8.8700   -4.8680   -0.9840 C.3     1  UNL1        0.4680
@<TRIPOS>BOND
     1     9     7    1
     2     9    11    2
     3     7     6    2
     4    13    11    1
     5    13    14    1
     6    11    10    1
     7    14    12    1
     8     6     5    1
     9     6     8    1
    10    10     8    2
    11    10    12    1
    12     5     1    1
    13     3     2    1
    14     1     2    1
    15     2     4    2
