@<TRIPOS>MOLECULE
/home/cewinharhar/GITHUB/reincatalyze/data/processed/docking_pred/2023-May-31-1603_sub9_nm5_bs15_s42_ex16_mel10_mts1000_k50_ec05_g099_lra3e-4_lrc9e-3/49b3117837231080fe644fe44c00424f4b8d2b91_ligand_9.pdbqt
 14 15 0 0 0
SMALL
GASTEIGER

@<TRIPOS>ATOM
      1  C          5.7540    0.7840    0.2580 C.3     1  UNL1        0.0800
      2  C          5.5110    0.0990    1.5430 C.2     1  UNL1        0.1300
      3  C          6.1740   -1.1930    1.8080 C.3     1  UNL1        0.0870
      4  O          4.7740    0.6090    2.3510 O.2     1  UNL1       -0.3000
      5  C          6.4900    2.0920    0.4640 C.3     1  UNL1        0.0430
      6  C          7.9080    1.8480    0.7420 C.2     1  UNL1       -0.0440
      7  C          8.7230    1.3000   -0.2270 C.2     1  UNL1        0.0080
      8  C          8.4770    2.1500    1.9660 C.2     1  UNL1        0.0540
      9  C         10.0740    1.0510   -0.0030 C.2     1  UNL1        0.0510
     10  C          9.8260    1.9130    2.2190 C.2     1  UNL1        0.1660
     11  C         10.6150    1.3640    1.2300 C.2     1  UNL1        0.1650
     12  O         10.6560    2.1080    3.3230 O.2     1  UNL1       -0.4540
     13  O         11.9000    1.2330    1.7370 O.2     1  UNL1       -0.4540
     14  C         11.8830    1.4470    3.1460 C.3     1  UNL1        0.4680
@<TRIPOS>BOND
     1     7     9    1
     2     7     6    2
     3     9    11    2
     4     1     5    1
     5     1     2    1
     6     5     6    1
     7     6     8    1
     8    11    13    1
     9    11    10    1
    10     2     3    1
    11     2     4    2
    12    13    14    1
    13     8    10    2
    14    10    12    1
    15    14    12    1
