@<TRIPOS>MOLECULE
/home/cewinharhar/GITHUB/reincatalyze/data/processed/docking_pred/2023-May-31-1603_sub9_nm5_bs15_s42_ex16_mel10_mts1000_k50_ec05_g099_lra3e-4_lrc9e-3/49b3117837231080fe644fe44c00424f4b8d2b91_ligand_9.pdbqt
 14 15 0 0 0
SMALL
GASTEIGER

@<TRIPOS>ATOM
      1  C          9.3670    1.3710    2.6690 C.3     1  UNL1        0.0800
      2  C         10.8350    1.3490    2.8260 C.2     1  UNL1        0.1300
      3  C         11.6240    0.3480    2.0800 C.3     1  UNL1        0.0870
      4  O         11.3600    2.1490    3.5600 O.2     1  UNL1       -0.3000
      5  C          8.9580    2.1500    1.4360 C.3     1  UNL1        0.0430
      6  C          8.3420    1.2610    0.4470 C.2     1  UNL1       -0.0440
      7  C          6.9700    1.1320    0.3860 C.2     1  UNL1        0.0080
      8  C          9.0980    0.5280   -0.4500 C.2     1  UNL1        0.0540
      9  C          6.3450    0.2980   -0.5390 C.2     1  UNL1        0.0510
     10  C          8.5020   -0.3140   -1.3860 C.2     1  UNL1        0.1660
     11  C          7.1270   -0.4220   -1.4220 C.2     1  UNL1        0.1650
     12  O          8.9900   -1.1520   -2.3880 O.2     1  UNL1       -0.4540
     13  O          6.8000   -1.3140   -2.4330 O.2     1  UNL1       -0.4540
     14  C          7.9730   -1.9910   -2.8730 C.3     1  UNL1        0.4680
@<TRIPOS>BOND
     1    14    13    1
     2    14    12    1
     3    13    11    1
     4    12    10    1
     5    11    10    2
     6    11     9    1
     7    10     8    1
     8     9     7    2
     9     8     6    2
    10     7     6    1
    11     6     5    1
    12     5     1    1
    13     3     2    1
    14     1     2    1
    15     2     4    2
