@<TRIPOS>MOLECULE
/home/cewinharhar/GITHUB/reincatalyze/data/processed/docking_pred/2023-May-31-1603_sub9_nm5_bs15_s42_ex16_mel10_mts1000_k50_ec05_g099_lra3e-4_lrc9e-3/49b3117837231080fe644fe44c00424f4b8d2b91_ligand_9.pdbqt
 14 15 0 0 0
SMALL
GASTEIGER

@<TRIPOS>ATOM
      1  C         10.4360    1.7170    1.9480 C.3     1  UNL1        0.0800
      2  C         11.5840    1.0320    2.5760 C.2     1  UNL1        0.1300
      3  C         12.2060    1.6230    3.7780 C.3     1  UNL1        0.0870
      4  O         11.9900    0.0040    2.0940 O.2     1  UNL1       -0.3000
      5  C          9.1220    1.1150    2.4010 C.3     1  UNL1        0.0430
      6  C          8.4860    0.3810    1.3020 C.2     1  UNL1       -0.0440
      7  C          7.2380   -0.1810    1.4710 C.2     1  UNL1        0.0080
      8  C          9.1020    0.2260    0.0730 C.2     1  UNL1        0.0540
      9  C          6.6010   -0.8860    0.4540 C.2     1  UNL1        0.0510
     10  C          8.4880   -0.4740   -0.9640 C.2     1  UNL1        0.1660
     11  C          7.2400   -1.0250   -0.7640 C.2     1  UNL1        0.1650
     12  O          8.8520   -0.7850   -2.2740 O.2     1  UNL1       -0.4540
     13  O          6.8640   -1.6580   -1.9400 O.2     1  UNL1       -0.4540
     14  C          7.9850   -1.7490   -2.8150 C.3     1  UNL1        0.4680
@<TRIPOS>BOND
     1    14    12    1
     2    14    13    1
     3    12    10    1
     4    13    11    1
     5    10    11    2
     6    10     8    1
     7    11     9    1
     8     8     6    2
     9     9     7    2
    10     6     7    1
    11     6     5    1
    12     1     5    1
    13     1     2    1
    14     4     2    2
    15     2     3    1
