MODEL 1
REMARK VINA RESULT:      -7.1      0.000      0.000
REMARK SMILES CC(=O)CCc1ccc2c(c1)OCO2
REMARK SMILES IDX 4 1 2 2 1 3 3 4 5 5 6 6 7 7 11 8 8 9 10 10 9 11 12 12 14 13
REMARK SMILES IDX 13 14
REMARK H PARENT
REMARK Flexibility Score: inf
ROOT
ATOM      1  C   UNL     1      10.436   1.717   1.948  1.00  0.00     0.080 C 
ENDROOT
BRANCH   1   2
ATOM      2  C   UNL     1      11.584   1.032   2.576  1.00  0.00     0.130 C 
ATOM      3  C   UNL     1      12.206   1.623   3.778  1.00  0.00     0.087 C 
ATOM      4  O   UNL     1      11.990   0.004   2.094  1.00  0.00    -0.300 OA
ENDBRANCH   1   2
BRANCH   1   5
ATOM      5  C   UNL     1       9.122   1.115   2.401  1.00  0.00     0.043 C 
BRANCH   5   6
ATOM      6  C   UNL     1       8.486   0.381   1.302  1.00  0.00    -0.044 A 
ATOM      7  C   UNL     1       7.238  -0.181   1.471  1.00  0.00     0.008 A 
ATOM      8  C   UNL     1       9.102   0.226   0.073  1.00  0.00     0.054 A 
ATOM      9  C   UNL     1       6.601  -0.886   0.454  1.00  0.00     0.051 A 
ATOM     10  C   UNL     1       8.488  -0.474  -0.964  1.00  0.00     0.166 A 
ATOM     11  C   UNL     1       7.240  -1.025  -0.764  1.00  0.00     0.165 A 
ATOM     12  O   UNL     1       8.852  -0.785  -2.274  1.00  0.00    -0.454 OA
ATOM     13  O   UNL     1       6.864  -1.658  -1.940  1.00  0.00    -0.454 OA
ATOM     14  C   UNL     1       7.985  -1.749  -2.815  1.00  0.00     0.468 C 
ENDBRANCH   5   6
ENDBRANCH   1   5
TORSDOF 3
ENDMDL
MODEL 2
REMARK VINA RESULT:      -7.0      1.222      1.349
REMARK SMILES CC(=O)CCc1ccc2c(c1)OCO2
REMARK SMILES IDX 4 1 2 2 1 3 3 4 5 5 6 6 7 7 11 8 8 9 10 10 9 11 12 12 14 13
REMARK SMILES IDX 13 14
REMARK H PARENT
REMARK Flexibility Score: inf
ROOT
ATOM      1  C   UNL     1       9.367   1.371   2.669  1.00  0.00     0.080 C 
ENDROOT
BRANCH   1   2
ATOM      2  C   UNL     1      10.835   1.349   2.826  1.00  0.00     0.130 C 
ATOM      3  C   UNL     1      11.624   0.348   2.080  1.00  0.00     0.087 C 
ATOM      4  O   UNL     1      11.360   2.149   3.560  1.00  0.00    -0.300 OA
ENDBRANCH   1   2
BRANCH   1   5
ATOM      5  C   UNL     1       8.958   2.150   1.436  1.00  0.00     0.043 C 
BRANCH   5   6
ATOM      6  C   UNL     1       8.342   1.261   0.447  1.00  0.00    -0.044 A 
ATOM      7  C   UNL     1       6.970   1.132   0.386  1.00  0.00     0.008 A 
ATOM      8  C   UNL     1       9.098   0.528  -0.450  1.00  0.00     0.054 A 
ATOM      9  C   UNL     1       6.345   0.298  -0.539  1.00  0.00     0.051 A 
ATOM     10  C   UNL     1       8.502  -0.314  -1.386  1.00  0.00     0.166 A 
ATOM     11  C   UNL     1       7.127  -0.422  -1.422  1.00  0.00     0.165 A 
ATOM     12  O   UNL     1       8.990  -1.152  -2.388  1.00  0.00    -0.454 OA
ATOM     13  O   UNL     1       6.800  -1.314  -2.433  1.00  0.00    -0.454 OA
ATOM     14  C   UNL     1       7.973  -1.991  -2.873  1.00  0.00     0.468 C 
ENDBRANCH   5   6
ENDBRANCH   1   5
TORSDOF 3
ENDMDL
MODEL 3
REMARK VINA RESULT:      -6.9      2.467      5.461
REMARK SMILES CC(=O)CCc1ccc2c(c1)OCO2
REMARK SMILES IDX 4 1 2 2 1 3 3 4 5 5 6 6 7 7 11 8 8 9 10 10 9 11 12 12 14 13
REMARK SMILES IDX 13 14
REMARK H PARENT
REMARK Flexibility Score: inf
ROOT
ATOM      1  C   UNL     1       5.912   0.131   0.843  1.00  0.00     0.080 C 
ENDROOT
BRANCH   1   2
ATOM      2  C   UNL     1       5.222   1.425   0.667  1.00  0.00     0.130 C 
ATOM      3  C   UNL     1       5.365   2.150  -0.611  1.00  0.00     0.087 C 
ATOM      4  O   UNL     1       4.556   1.863   1.572  1.00  0.00    -0.300 OA
ENDBRANCH   1   2
BRANCH   1   5
ATOM      5  C   UNL     1       7.239   0.113   0.113  1.00  0.00     0.043 C 
BRANCH   5   6
ATOM      6  C   UNL     1       8.327   0.505   1.014  1.00  0.00    -0.044 A 
ATOM      7  C   UNL     1       8.134   1.503   1.947  1.00  0.00     0.008 A 
ATOM      8  C   UNL     1       9.571  -0.099   0.965  1.00  0.00     0.054 A 
ATOM      9  C   UNL     1       9.142   1.905   2.819  1.00  0.00     0.051 A 
ATOM     10  C   UNL     1      10.598   0.282   1.826  1.00  0.00     0.166 A 
ATOM     11  C   UNL     1      10.374   1.283   2.747  1.00  0.00     0.165 A 
ATOM     12  O   UNL     1      11.918  -0.132   2.006  1.00  0.00    -0.454 OA
ATOM     13  O   UNL     1      11.545   1.464   3.468  1.00  0.00    -0.454 OA
ATOM     14  C   UNL     1      12.612   0.766   2.832  1.00  0.00     0.468 C 
ENDBRANCH   5   6
ENDBRANCH   1   5
TORSDOF 3
ENDMDL
MODEL 4
REMARK VINA RESULT:      -6.9      3.466      4.459
REMARK SMILES CC(=O)CCc1ccc2c(c1)OCO2
REMARK SMILES IDX 4 1 2 2 1 3 3 4 5 5 6 6 7 7 11 8 8 9 10 10 9 11 12 12 14 13
REMARK SMILES IDX 13 14
REMARK H PARENT
REMARK Flexibility Score: inf
ROOT
ATOM      1  C   UNL     1       6.479   1.365   0.494  1.00  0.00     0.080 C 
ENDROOT
BRANCH   1   2
ATOM      2  C   UNL     1       5.360   1.051   1.406  1.00  0.00     0.130 C 
ATOM      3  C   UNL     1       5.390  -0.209   2.176  1.00  0.00     0.087 C 
ATOM      4  O   UNL     1       4.445   1.830   1.503  1.00  0.00    -0.300 OA
ENDBRANCH   1   2
BRANCH   1   5
ATOM      5  C   UNL     1       6.145   0.989  -0.934  1.00  0.00     0.043 C 
BRANCH   5   6
ATOM      6  C   UNL     1       6.929  -0.175  -1.357  1.00  0.00    -0.044 A 
ATOM      7  C   UNL     1       7.365  -0.285  -2.661  1.00  0.00     0.008 A 
ATOM      8  C   UNL     1       7.258  -1.194  -0.481  1.00  0.00     0.054 A 
ATOM      9  C   UNL     1       8.111  -1.375  -3.103  1.00  0.00     0.051 A 
ATOM     10  C   UNL     1       8.003  -2.296  -0.893  1.00  0.00     0.166 A 
ATOM     11  C   UNL     1       8.424  -2.377  -2.204  1.00  0.00     0.165 A 
ATOM     12  O   UNL     1       8.474  -3.444  -0.256  1.00  0.00    -0.454 OA
ATOM     13  O   UNL     1       9.137  -3.559  -2.347  1.00  0.00    -0.454 OA
ATOM     14  C   UNL     1       8.947  -4.375  -1.195  1.00  0.00     0.468 C 
ENDBRANCH   5   6
ENDBRANCH   1   5
TORSDOF 3
ENDMDL
MODEL 5
REMARK VINA RESULT:      -6.9      2.634      5.348
REMARK SMILES CC(=O)CCc1ccc2c(c1)OCO2
REMARK SMILES IDX 4 1 2 2 1 3 3 4 5 5 6 6 7 7 11 8 8 9 10 10 9 11 12 12 14 13
REMARK SMILES IDX 13 14
REMARK H PARENT
REMARK Flexibility Score: inf
ROOT
ATOM      1  C   UNL     1       5.754   0.784   0.258  1.00  0.00     0.080 C 
ENDROOT
BRANCH   1   2
ATOM      2  C   UNL     1       5.511   0.099   1.543  1.00  0.00     0.130 C 
ATOM      3  C   UNL     1       6.174  -1.193   1.808  1.00  0.00     0.087 C 
ATOM      4  O   UNL     1       4.774   0.609   2.351  1.00  0.00    -0.300 OA
ENDBRANCH   1   2
BRANCH   1   5
ATOM      5  C   UNL     1       6.490   2.092   0.464  1.00  0.00     0.043 C 
BRANCH   5   6
ATOM      6  C   UNL     1       7.908   1.848   0.742  1.00  0.00    -0.044 A 
ATOM      7  C   UNL     1       8.723   1.300  -0.227  1.00  0.00     0.008 A 
ATOM      8  C   UNL     1       8.477   2.150   1.966  1.00  0.00     0.054 A 
ATOM      9  C   UNL     1      10.074   1.051  -0.003  1.00  0.00     0.051 A 
ATOM     10  C   UNL     1       9.826   1.913   2.219  1.00  0.00     0.166 A 
ATOM     11  C   UNL     1      10.615   1.364   1.230  1.00  0.00     0.165 A 
ATOM     12  O   UNL     1      10.656   2.108   3.323  1.00  0.00    -0.454 OA
ATOM     13  O   UNL     1      11.900   1.233   1.737  1.00  0.00    -0.454 OA
ATOM     14  C   UNL     1      11.883   1.447   3.146  1.00  0.00     0.468 C 
ENDBRANCH   5   6
ENDBRANCH   1   5
TORSDOF 3
ENDMDL
