@<TRIPOS>MOLECULE
/home/cewinharhar/GITHUB/reincatalyze/data/processed/docking_pred/2023-May-31-1603_sub9_nm5_bs15_s42_ex16_mel10_mts1000_k50_ec05_g099_lra3e-4_lrc9e-3/49b3117837231080fe644fe44c00424f4b8d2b91_ligand_9.pdbqt
 14 15 0 0 0
SMALL
GASTEIGER

@<TRIPOS>ATOM
      1  C          5.9120    0.1310    0.8430 C.3     1  UNL1        0.0800
      2  C          5.2220    1.4250    0.6670 C.2     1  UNL1        0.1300
      3  C          5.3650    2.1500   -0.6110 C.3     1  UNL1        0.0870
      4  O          4.5560    1.8630    1.5720 O.2     1  UNL1       -0.3000
      5  C          7.2390    0.1130    0.1130 C.3     1  UNL1        0.0430
      6  C          8.3270    0.5050    1.0140 C.2     1  UNL1       -0.0440
      7  C          8.1340    1.5030    1.9470 C.2     1  UNL1        0.0080
      8  C          9.5710   -0.0990    0.9650 C.2     1  UNL1        0.0540
      9  C          9.1420    1.9050    2.8190 C.2     1  UNL1        0.0510
     10  C         10.5980    0.2820    1.8260 C.2     1  UNL1        0.1660
     11  C         10.3740    1.2830    2.7470 C.2     1  UNL1        0.1650
     12  O         11.9180   -0.1320    2.0060 O.2     1  UNL1       -0.4540
     13  O         11.5450    1.4640    3.4680 O.2     1  UNL1       -0.4540
     14  C         12.6120    0.7660    2.8320 C.3     1  UNL1        0.4680
@<TRIPOS>BOND
     1     3     2    1
     2     5     1    1
     3     5     6    1
     4     2     1    1
     5     2     4    2
     6     8     6    2
     7     8    10    1
     8     6     7    1
     9    10    12    1
    10    10    11    2
    11     7     9    2
    12    12    14    1
    13    11     9    1
    14    11    13    1
    15    14    13    1
