@<TRIPOS>MOLECULE
/home/cewinharhar/GITHUB/reincatalyze/data/processed/docking_pred/2023-May-31-1603_sub9_nm5_bs15_s42_ex16_mel10_mts1000_k50_ec05_g099_lra3e-4_lrc9e-3/4a3a178b6a4326eb13634b12f3ce9c4ec26f8538_ligand_9.pdbqt
 14 15 0 0 0
SMALL
GASTEIGER

@<TRIPOS>ATOM
      1  C          6.3450    1.1910    0.9780 C.3     1  UNL1        0.0800
      2  C          5.6000    0.3910    1.9700 C.2     1  UNL1        0.1300
      3  C          6.2220   -0.8250    2.5300 C.3     1  UNL1        0.0870
      4  O          4.4970    0.7480    2.3030 O.2     1  UNL1       -0.3000
      5  C          5.8470    0.9250   -0.4280 C.3     1  UNL1        0.0430
      6  C          6.7670    0.0340   -1.1410 C.2     1  UNL1       -0.0440
      7  C          7.3380    0.4310   -2.3320 C.2     1  UNL1        0.0080
      8  C          7.0940   -1.2200   -0.6570 C.2     1  UNL1        0.0540
      9  C          8.2160   -0.3850   -3.0400 C.2     1  UNL1        0.0510
     10  C          7.9690   -2.0590   -1.3430 C.2     1  UNL1        0.1660
     11  C          8.5240   -1.6330   -2.5310 C.2     1  UNL1        0.1650
     12  O          8.4710   -3.3390   -1.1080 O.2     1  UNL1       -0.4540
     13  O          9.3470   -2.6470   -3.0000 O.2     1  UNL1       -0.4540
     14  C          9.1150   -3.8370   -2.2530 C.3     1  UNL1        0.4680
@<TRIPOS>BOND
     1     9    11    2
     2     9     7    1
     3    13    11    1
     4    13    14    1
     5    11    10    1
     6     7     6    2
     7    14    12    1
     8    10    12    1
     9    10     8    2
    10     6     8    1
    11     6     5    1
    12     5     1    1
    13     1     2    1
    14     2     4    2
    15     2     3    1
