@<TRIPOS>MOLECULE
/home/cewinharhar/GITHUB/reincatalyze/data/processed/docking_pred/2023-May-31-1603_sub9_nm5_bs15_s42_ex16_mel10_mts1000_k50_ec05_g099_lra3e-4_lrc9e-3/4a3a178b6a4326eb13634b12f3ce9c4ec26f8538_ligand_9.pdbqt
 14 15 0 0 0
SMALL
GASTEIGER

@<TRIPOS>ATOM
      1  C          6.8090    0.8280    0.9650 C.3     1  UNL1        0.0800
      2  C          5.4210    1.1920    1.3140 C.2     1  UNL1        0.1300
      3  C          4.6910    2.1500    0.4600 C.3     1  UNL1        0.0870
      4  O          4.9120    0.6990    2.2910 O.2     1  UNL1       -0.3000
      5  C          7.0340    0.8930   -0.5310 C.3     1  UNL1        0.0430
      6  C          7.5630   -0.3800   -1.0290 C.2     1  UNL1       -0.0440
      7  C          7.8050   -0.5550   -2.3760 C.2     1  UNL1        0.0080
      8  C          7.8360   -1.4400   -0.1830 C.2     1  UNL1        0.0540
      9  C          8.3060   -1.7480   -2.8890 C.2     1  UNL1        0.0510
     10  C          8.3380   -2.6460   -0.6670 C.2     1  UNL1        0.1660
     11  C          8.5690   -2.7900   -2.0190 C.2     1  UNL1        0.1650
     12  O          8.6990   -3.8550   -0.0740 O.2     1  UNL1       -0.4540
     13  O          9.0620   -4.0690   -2.2300 O.2     1  UNL1       -0.4540
     14  C          8.8950   -4.8480   -1.0480 C.3     1  UNL1        0.4680
@<TRIPOS>BOND
     1     9     7    1
     2     9    11    2
     3     7     6    2
     4    13    11    1
     5    13    14    1
     6    11    10    1
     7    14    12    1
     8     6     5    1
     9     6     8    1
    10    10     8    2
    11    10    12    1
    12     5     1    1
    13     3     2    1
    14     1     2    1
    15     2     4    2
