@<TRIPOS>MOLECULE
/home/cewinharhar/GITHUB/reincatalyze/data/processed/docking_pred/2023-May-31-1603_sub9_nm5_bs15_s42_ex16_mel10_mts1000_k50_ec05_g099_lra3e-4_lrc9e-3/4a3a178b6a4326eb13634b12f3ce9c4ec26f8538_ligand_9.pdbqt
 14 15 0 0 0
SMALL
GASTEIGER

@<TRIPOS>ATOM
      1  C          5.3540   -0.0430    1.9870 C.3     1  UNL1        0.0800
      2  C          4.5280    1.1610    1.7680 C.2     1  UNL1        0.1300
      3  C          4.9150    2.1190    0.7130 C.3     1  UNL1        0.0870
      4  O          3.5530    1.3380    2.4570 O.2     1  UNL1       -0.3000
      5  C          6.8040    0.2140    1.6300 C.3     1  UNL1        0.0430
      6  C          7.2620   -0.7430    0.6180 C.2     1  UNL1       -0.0440
      7  C          7.0810   -0.4770   -0.7240 C.2     1  UNL1        0.0080
      8  C          7.8830   -1.9310    0.9610 C.2     1  UNL1        0.0540
      9  C          7.5000   -1.3600   -1.7160 C.2     1  UNL1        0.0510
     10  C          8.3140   -2.8330   -0.0090 C.2     1  UNL1        0.1660
     11  C          8.1180   -2.5380   -1.3420 C.2     1  UNL1        0.1650
     12  O          8.9520   -4.0720    0.0330 O.2     1  UNL1       -0.4540
     13  O          8.6330   -3.5900   -2.0870 O.2     1  UNL1       -0.4540
     14  C          8.9190   -4.6900   -1.2280 C.3     1  UNL1        0.4680
@<TRIPOS>BOND
     1    13    11    1
     2    13    14    1
     3     9    11    2
     4     9     7    1
     5    11    10    1
     6    14    12    1
     7     7     6    2
     8    10    12    1
     9    10     8    2
    10     6     8    1
    11     6     5    1
    12     3     2    1
    13     5     1    1
    14     2     1    1
    15     2     4    2
