@<TRIPOS>MOLECULE
/home/cewinharhar/GITHUB/reincatalyze/data/processed/docking_pred/2023-May-31-1603_sub9_nm5_bs15_s42_ex16_mel10_mts1000_k50_ec05_g099_lra3e-4_lrc9e-3/4a3a178b6a4326eb13634b12f3ce9c4ec26f8538_ligand_9.pdbqt
 14 15 0 0 0
SMALL
GASTEIGER

@<TRIPOS>ATOM
      1  C          5.6850    1.3930   -0.2850 C.3     1  UNL1        0.0800
      2  C          5.0430    1.2890    1.0410 C.2     1  UNL1        0.1300
      3  C          5.4030    0.1660    1.9300 C.3     1  UNL1        0.0870
      4  O          4.2390    2.1250    1.3720 O.2     1  UNL1       -0.3000
      5  C          7.1820    1.1850   -0.1890 C.3     1  UNL1        0.0430
      6  C          7.5610   -0.1070   -0.7680 C.2     1  UNL1       -0.0440
      7  C          7.4740   -0.3120   -2.1300 C.2     1  UNL1        0.0080
      8  C          8.0130   -1.1560    0.0130 C.2     1  UNL1        0.0540
      9  C          7.8230   -1.5240   -2.7200 C.2     1  UNL1        0.0510
     10  C          8.3690   -2.3790   -0.5480 C.2     1  UNL1        0.1660
     11  C          8.2710   -2.5530   -1.9130 C.2     1  UNL1        0.1650
     12  O          8.8450   -3.5840   -0.0300 O.2     1  UNL1       -0.4540
     13  O          8.6830   -3.8450   -2.2050 O.2     1  UNL1       -0.4540
     14  C          8.7910   -4.5980   -1.0000 C.3     1  UNL1        0.4680
@<TRIPOS>BOND
     1     9     7    1
     2     9    11    2
     3    13    11    1
     4    13    14    1
     5     7     6    2
     6    11    10    1
     7    14    12    1
     8     6     5    1
     9     6     8    1
    10    10    12    1
    11    10     8    2
    12     1     5    1
    13     1     2    1
    14     2     4    2
    15     2     3    1
