@<TRIPOS>MOLECULE
/home/cewinharhar/GITHUB/reincatalyze/data/processed/docking_pred/2023-May-31-1603_sub9_nm5_bs15_s42_ex16_mel10_mts1000_k50_ec05_g099_lra3e-4_lrc9e-3/4c3a486d5bbb1ad3c8ce5b6da142191fd088767a_ligand_9.pdbqt
 14 15 0 0 0
SMALL
GASTEIGER

@<TRIPOS>ATOM
      1  C          5.3590   -0.0340    1.9240 C.3     1  UNL1        0.0800
      2  C          4.5370    1.1790    1.7370 C.2     1  UNL1        0.1300
      3  C          4.9060    2.1430    0.6810 C.3     1  UNL1        0.0870
      4  O          3.5810    1.3560    2.4500 O.2     1  UNL1       -0.3000
      5  C          6.8070    0.2230    1.5620 C.3     1  UNL1        0.0430
      6  C          7.2570   -0.7220    0.5360 C.2     1  UNL1       -0.0440
      7  C          7.0340   -0.4600   -0.8000 C.2     1  UNL1        0.0080
      8  C          7.9120   -1.8970    0.8600 C.2     1  UNL1        0.0540
      9  C          7.4440   -1.3320   -1.8040 C.2     1  UNL1        0.0510
     10  C          8.3350   -2.7890   -0.1230 C.2     1  UNL1        0.1660
     11  C          8.0960   -2.4980   -1.4500 C.2     1  UNL1        0.1650
     12  O          8.9990   -4.0150   -0.1010 O.2     1  UNL1       -0.4540
     13  O          8.6120   -3.5380   -2.2100 O.2     1  UNL1       -0.4540
     14  C          8.9450   -4.6330   -1.3610 C.3     1  UNL1        0.4680
@<TRIPOS>BOND
     1    13    11    1
     2    13    14    1
     3     9    11    2
     4     9     7    1
     5    11    10    1
     6    14    12    1
     7     7     6    2
     8    10    12    1
     9    10     8    2
    10     6     8    1
    11     6     5    1
    12     3     2    1
    13     5     1    1
    14     2     1    1
    15     2     4    2
