MODEL 1
REMARK VINA RESULT:      -7.3      0.000      0.000
REMARK SMILES CC(=O)CCc1ccc2c(c1)OCO2
REMARK SMILES IDX 4 1 2 2 1 3 3 4 5 5 6 6 7 7 11 8 8 9 10 10 9 11 12 12 14 13
REMARK SMILES IDX 13 14
REMARK H PARENT
REMARK Flexibility Score: inf
ROOT
ATOM      1  C   UNL     1       5.773   1.789   1.467  1.00  0.00     0.080 C 
ENDROOT
BRANCH   1   2
ATOM      2  C   UNL     1       5.239   0.581   2.127  1.00  0.00     0.130 C 
ATOM      3  C   UNL     1       6.122  -0.588   2.312  1.00  0.00     0.087 C 
ATOM      4  O   UNL     1       4.092   0.574   2.500  1.00  0.00    -0.300 OA
ENDBRANCH   1   2
BRANCH   1   5
ATOM      5  C   UNL     1       5.574   1.729  -0.033  1.00  0.00     0.043 C 
BRANCH   5   6
ATOM      6  C   UNL     1       6.668   0.989  -0.669  1.00  0.00    -0.044 A 
ATOM      7  C   UNL     1       7.969   1.435  -0.557  1.00  0.00     0.008 A 
ATOM      8  C   UNL     1       6.445  -0.168  -1.395  1.00  0.00     0.054 A 
ATOM      9  C   UNL     1       9.036   0.762  -1.146  1.00  0.00     0.051 A 
ATOM     10  C   UNL     1       7.492  -0.863  -1.995  1.00  0.00     0.166 A 
ATOM     11  C   UNL     1       8.781  -0.391  -1.865  1.00  0.00     0.165 A 
ATOM     12  O   UNL     1       7.572  -2.023  -2.765  1.00  0.00    -0.454 OA
ATOM     13  O   UNL     1       9.620  -1.258  -2.550  1.00  0.00    -0.454 OA
ATOM     14  C   UNL     1       8.843  -2.144  -3.351  1.00  0.00     0.468 C 
ENDBRANCH   5   6
ENDBRANCH   1   5
TORSDOF 3
ENDMDL
MODEL 2
REMARK VINA RESULT:      -7.1      1.660      2.131
REMARK SMILES CC(=O)CCc1ccc2c(c1)OCO2
REMARK SMILES IDX 4 1 2 2 1 3 3 4 5 5 6 6 7 7 11 8 8 9 10 10 9 11 12 12 14 13
REMARK SMILES IDX 13 14
REMARK H PARENT
REMARK Flexibility Score: inf
ROOT
ATOM      1  C   UNL     1       6.569   1.433   0.296  1.00  0.00     0.080 C 
ENDROOT
BRANCH   1   2
ATOM      2  C   UNL     1       5.456   1.279   1.254  1.00  0.00     0.130 C 
ATOM      3  C   UNL     1       5.388   0.063   2.090  1.00  0.00     0.087 C 
ATOM      4  O   UNL     1       4.625   2.150   1.335  1.00  0.00    -0.300 OA
ENDBRANCH   1   2
BRANCH   1   5
ATOM      5  C   UNL     1       6.171   0.961  -1.087  1.00  0.00     0.043 C 
BRANCH   5   6
ATOM      6  C   UNL     1       6.980  -0.193  -1.490  1.00  0.00    -0.044 A 
ATOM      7  C   UNL     1       7.483  -0.279  -2.771  1.00  0.00     0.008 A 
ATOM      8  C   UNL     1       7.265  -1.228  -0.616  1.00  0.00     0.054 A 
ATOM      9  C   UNL     1       8.254  -1.359  -3.193  1.00  0.00     0.051 A 
ATOM     10  C   UNL     1       8.034  -2.320  -1.009  1.00  0.00     0.166 A 
ATOM     11  C   UNL     1       8.523  -2.376  -2.297  1.00  0.00     0.165 A 
ATOM     12  O   UNL     1       8.475  -3.478  -0.368  1.00  0.00    -0.454 OA
ATOM     13  O   UNL     1       9.246  -3.554  -2.424  1.00  0.00    -0.454 OA
ATOM     14  C   UNL     1       9.000  -4.391  -1.298  1.00  0.00     0.468 C 
ENDBRANCH   5   6
ENDBRANCH   1   5
TORSDOF 3
ENDMDL
MODEL 3
REMARK VINA RESULT:      -7.0      1.998      2.577
REMARK SMILES CC(=O)CCc1ccc2c(c1)OCO2
REMARK SMILES IDX 4 1 2 2 1 3 3 4 5 5 6 6 7 7 11 8 8 9 10 10 9 11 12 12 14 13
REMARK SMILES IDX 13 14
REMARK H PARENT
REMARK Flexibility Score: inf
ROOT
ATOM      1  C   UNL     1       5.359  -0.034   1.924  1.00  0.00     0.080 C 
ENDROOT
BRANCH   1   2
ATOM      2  C   UNL     1       4.537   1.179   1.737  1.00  0.00     0.130 C 
ATOM      3  C   UNL     1       4.906   2.143   0.681  1.00  0.00     0.087 C 
ATOM      4  O   UNL     1       3.581   1.356   2.450  1.00  0.00    -0.300 OA
ENDBRANCH   1   2
BRANCH   1   5
ATOM      5  C   UNL     1       6.807   0.223   1.562  1.00  0.00     0.043 C 
BRANCH   5   6
ATOM      6  C   UNL     1       7.257  -0.722   0.536  1.00  0.00    -0.044 A 
ATOM      7  C   UNL     1       7.034  -0.460  -0.800  1.00  0.00     0.008 A 
ATOM      8  C   UNL     1       7.912  -1.897   0.860  1.00  0.00     0.054 A 
ATOM      9  C   UNL     1       7.444  -1.332  -1.804  1.00  0.00     0.051 A 
ATOM     10  C   UNL     1       8.335  -2.789  -0.123  1.00  0.00     0.166 A 
ATOM     11  C   UNL     1       8.096  -2.498  -1.450  1.00  0.00     0.165 A 
ATOM     12  O   UNL     1       8.999  -4.015  -0.101  1.00  0.00    -0.454 OA
ATOM     13  O   UNL     1       8.612  -3.538  -2.210  1.00  0.00    -0.454 OA
ATOM     14  C   UNL     1       8.945  -4.633  -1.361  1.00  0.00     0.468 C 
ENDBRANCH   5   6
ENDBRANCH   1   5
TORSDOF 3
ENDMDL
MODEL 4
REMARK VINA RESULT:      -7.0      1.210      1.376
REMARK SMILES CC(=O)CCc1ccc2c(c1)OCO2
REMARK SMILES IDX 4 1 2 2 1 3 3 4 5 5 6 6 7 7 11 8 8 9 10 10 9 11 12 12 14 13
REMARK SMILES IDX 13 14
REMARK H PARENT
REMARK Flexibility Score: inf
ROOT
ATOM      1  C   UNL     1       6.283   1.274   0.956  1.00  0.00     0.080 C 
ENDROOT
BRANCH   1   2
ATOM      2  C   UNL     1       5.591   0.436   1.955  1.00  0.00     0.130 C 
ATOM      3  C   UNL     1       6.275  -0.758   2.491  1.00  0.00     0.087 C 
ATOM      4  O   UNL     1       4.481   0.743   2.313  1.00  0.00    -0.300 OA
ENDBRANCH   1   2
BRANCH   1   5
ATOM      5  C   UNL     1       5.779   0.989  -0.444  1.00  0.00     0.043 C 
BRANCH   5   6
ATOM      6  C   UNL     1       6.725   0.132  -1.166  1.00  0.00    -0.044 A 
ATOM      7  C   UNL     1       7.374   0.603  -2.288  1.00  0.00     0.008 A 
ATOM      8  C   UNL     1       6.999  -1.162  -0.760  1.00  0.00     0.054 A 
ATOM      9  C   UNL     1       8.278  -0.178  -3.003  1.00  0.00     0.051 A 
ATOM     10  C   UNL     1       7.898  -1.967  -1.454  1.00  0.00     0.166 A 
ATOM     11  C   UNL     1       8.532  -1.467  -2.572  1.00  0.00     0.165 A 
ATOM     12  O   UNL     1       8.362  -3.272  -1.287  1.00  0.00    -0.454 OA
ATOM     13  O   UNL     1       9.363  -2.461  -3.067  1.00  0.00    -0.454 OA
ATOM     14  C   UNL     1       9.065  -3.698  -2.426  1.00  0.00     0.468 C 
ENDBRANCH   5   6
ENDBRANCH   1   5
TORSDOF 3
ENDMDL
MODEL 5
REMARK VINA RESULT:      -6.9      1.190      5.162
REMARK SMILES CC(=O)CCc1ccc2c(c1)OCO2
REMARK SMILES IDX 4 1 2 2 1 3 3 4 5 5 6 6 7 7 11 8 8 9 10 10 9 11 12 12 14 13
REMARK SMILES IDX 13 14
REMARK H PARENT
REMARK Flexibility Score: inf
ROOT
ATOM      1  C   UNL     1       8.271   0.187  -2.654  1.00  0.00     0.080 C 
ENDROOT
BRANCH   1   2
ATOM      2  C   UNL     1       7.971  -1.256  -2.745  1.00  0.00     0.130 C 
ATOM      3  C   UNL     1       9.072  -2.205  -3.008  1.00  0.00     0.087 C 
ATOM      4  O   UNL     1       6.834  -1.630  -2.603  1.00  0.00    -0.300 OA
ENDBRANCH   1   2
BRANCH   1   5
ATOM      5  C   UNL     1       8.837   0.546  -1.295  1.00  0.00     0.043 C 
BRANCH   5   6
ATOM      6  C   UNL     1       7.800   0.452  -0.264  1.00  0.00    -0.044 A 
ATOM      7  C   UNL     1       7.845  -0.553   0.680  1.00  0.00     0.008 A 
ATOM      8  C   UNL     1       6.751   1.352  -0.197  1.00  0.00     0.054 A 
ATOM      9  C   UNL     1       6.879  -0.677   1.675  1.00  0.00     0.051 A 
ATOM     10  C   UNL     1       5.770   1.253   0.787  1.00  0.00     0.166 A 
ATOM     11  C   UNL     1       5.843   0.237   1.717  1.00  0.00     0.165 A 
ATOM     12  O   UNL     1       4.628   1.991   1.097  1.00  0.00    -0.454 OA
ATOM     13  O   UNL     1       4.758   0.367   2.571  1.00  0.00    -0.454 OA
ATOM     14  C   UNL     1       3.833   1.307   2.031  1.00  0.00     0.468 C 
ENDBRANCH   5   6
ENDBRANCH   1   5
TORSDOF 3
ENDMDL
