@<TRIPOS>MOLECULE
/home/cewinharhar/GITHUB/reincatalyze/data/processed/docking_pred/2023-May-31-1603_sub9_nm5_bs15_s42_ex16_mel10_mts1000_k50_ec05_g099_lra3e-4_lrc9e-3/4c41b041102a8d5d821093d1e21668bd2b50a839_ligand_9.pdbqt
 14 15 0 0 0
SMALL
GASTEIGER

@<TRIPOS>ATOM
      1  C          6.8520    0.7640    1.1530 C.3     1  UNL1        0.0800
      2  C          5.4430    1.0490    1.4870 C.2     1  UNL1        0.1300
      3  C          4.7450    2.1500    0.7920 C.3     1  UNL1        0.0870
      4  O          4.8890    0.3770    2.3220 O.2     1  UNL1       -0.3000
      5  C          7.0950    0.8720   -0.3390 C.3     1  UNL1        0.0430
      6  C          7.5950   -0.3990   -0.8720 C.2     1  UNL1       -0.0440
      7  C          7.7810   -0.5600   -2.2290 C.2     1  UNL1        0.0080
      8  C          7.8940   -1.4710   -0.0500 C.2     1  UNL1        0.0540
      9  C          8.2530   -1.7500   -2.7760 C.2     1  UNL1        0.0510
     10  C          8.3680   -2.6740   -0.5670 C.2     1  UNL1        0.1660
     11  C          8.5440   -2.8030   -1.9290 C.2     1  UNL1        0.1650
     12  O          8.7450   -3.8930   -0.0030 O.2     1  UNL1       -0.4540
     13  O          9.0180   -4.0840   -2.1740 O.2     1  UNL1       -0.4540
     14  C          8.8940   -4.8750   -0.9960 C.3     1  UNL1        0.4680
@<TRIPOS>BOND
     1     9     7    1
     2     9    11    2
     3     7     6    2
     4    13    11    1
     5    13    14    1
     6    11    10    1
     7    14    12    1
     8     6     5    1
     9     6     8    1
    10    10     8    2
    11    10    12    1
    12     5     1    1
    13     3     2    1
    14     1     2    1
    15     2     4    2
