@<TRIPOS>MOLECULE
/home/cewinharhar/GITHUB/reincatalyze/data/processed/docking_pred/2023-May-31-1603_sub9_nm5_bs15_s42_ex16_mel10_mts1000_k50_ec05_g099_lra3e-4_lrc9e-3/4c41b041102a8d5d821093d1e21668bd2b50a839_ligand_9.pdbqt
 14 15 0 0 0
SMALL
GASTEIGER

@<TRIPOS>ATOM
      1  C          6.5680    1.2970    0.3830 C.3     1  UNL1        0.0800
      2  C          5.3970    1.2070    1.2790 C.2     1  UNL1        0.1300
      3  C          5.2310    0.0120    2.1300 C.3     1  UNL1        0.0870
      4  O          4.6000    2.1120    1.2960 O.2     1  UNL1       -0.3000
      5  C          6.2200    0.8510   -1.0220 C.3     1  UNL1        0.0430
      6  C          6.9900   -0.3410   -1.3900 C.2     1  UNL1       -0.0440
      7  C          7.4010   -0.5300   -2.6930 C.2     1  UNL1        0.0080
      8  C          7.3300   -1.3090   -0.4610 C.2     1  UNL1        0.0540
      9  C          8.1330   -1.6480   -3.0830 C.2     1  UNL1        0.0510
     10  C          8.0610   -2.4380   -0.8220 C.2     1  UNL1        0.1660
     11  C          8.4580   -2.5980   -2.1330 C.2     1  UNL1        0.1650
     12  O          8.5380   -3.5490   -0.1270 O.2     1  UNL1       -0.4540
     13  O          9.1620   -3.7900   -2.2190 O.2     1  UNL1       -0.4540
     14  C          8.9890   -4.5360   -1.0180 C.3     1  UNL1        0.4680
@<TRIPOS>BOND
     1     9     7    1
     2     9    11    2
     3     7     6    2
     4    13    11    1
     5    13    14    1
     6    11    10    1
     7     6     5    1
     8     6     8    1
     9     5     1    1
    10    14    12    1
    11    10     8    2
    12    10    12    1
    13     1     2    1
    14     2     4    2
    15     2     3    1
