@<TRIPOS>MOLECULE
/home/cewinharhar/GITHUB/reincatalyze/data/processed/docking_pred/2023-May-31-1603_sub9_nm5_bs15_s42_ex16_mel10_mts1000_k50_ec05_g099_lra3e-4_lrc9e-3/4dfe2a4ebf2cd2c58b23ebebd9c83ff91bb12173_ligand_9.pdbqt
 14 15 0 0 0
SMALL
GASTEIGER

@<TRIPOS>ATOM
      1  C          5.6240    1.8110    1.3550 C.3     1  UNL1        0.0800
      2  C          5.1390    0.6180    2.0770 C.2     1  UNL1        0.1300
      3  C          6.0460   -0.5350    2.2540 C.3     1  UNL1        0.0870
      4  O          4.0120    0.6080    2.5060 O.2     1  UNL1       -0.3000
      5  C          5.4360    1.6630   -0.1400 C.3     1  UNL1        0.0430
      6  C          6.5680    0.9430   -0.7320 C.2     1  UNL1       -0.0440
      7  C          7.8540    1.4130   -0.5690 C.2     1  UNL1        0.0080
      8  C          6.3940   -0.2160   -1.4680 C.2     1  UNL1        0.0540
      9  C          8.9560    0.7600   -1.1160 C.2     1  UNL1        0.0510
     10  C          7.4760   -0.8910   -2.0270 C.2     1  UNL1        0.1660
     11  C          8.7510   -0.3960   -1.8450 C.2     1  UNL1        0.1650
     12  O          7.6070   -2.0490   -2.7940 O.2     1  UNL1       -0.4540
     13  O          9.6310   -1.2480   -2.4970 O.2     1  UNL1       -0.4540
     14  C          8.9020   -2.1460   -3.3280 C.3     1  UNL1        0.4680
@<TRIPOS>BOND
     1    14    12    1
     2    14    13    1
     3    12    10    1
     4    13    11    1
     5    10    11    2
     6    10     8    1
     7    11     9    1
     8     8     6    2
     9     9     7    2
    10     6     7    1
    11     6     5    1
    12     5     1    1
    13     1     2    1
    14     2     3    1
    15     2     4    2
