@<TRIPOS>MOLECULE
/home/cewinharhar/GITHUB/reincatalyze/data/processed/docking_pred/2023-May-31-1603_sub9_nm5_bs15_s42_ex16_mel10_mts1000_k50_ec05_g099_lra3e-4_lrc9e-3/4dfe2a4ebf2cd2c58b23ebebd9c83ff91bb12173_ligand_9.pdbqt
 14 15 0 0 0
SMALL
GASTEIGER

@<TRIPOS>ATOM
      1  C          6.3270    1.2310    1.0120 C.3     1  UNL1        0.0800
      2  C          5.6210    0.3930    2.0020 C.2     1  UNL1        0.1300
      3  C          6.3120   -0.7780    2.5780 C.3     1  UNL1        0.0870
      4  O          4.4940    0.6830    2.3210 O.2     1  UNL1       -0.3000
      5  C          5.8280    0.9600   -0.3920 C.3     1  UNL1        0.0430
      6  C          6.7490    0.0670   -1.1020 C.2     1  UNL1       -0.0440
      7  C          7.3320    0.4670   -2.2860 C.2     1  UNL1        0.0080
      8  C          7.0650   -1.1920   -0.6220 C.2     1  UNL1        0.0540
      9  C          8.2110   -0.3510   -2.9920 C.2     1  UNL1        0.0510
     10  C          7.9410   -2.0320   -1.3050 C.2     1  UNL1        0.1660
     11  C          8.5080   -1.6030   -2.4870 C.2     1  UNL1        0.1650
     12  O          8.4340   -3.3160   -1.0730 O.2     1  UNL1       -0.4540
     13  O          9.3290   -2.6190   -2.9550 O.2     1  UNL1       -0.4540
     14  C          9.0840   -3.8120   -2.2150 C.3     1  UNL1        0.4680
@<TRIPOS>BOND
     1     9    11    2
     2     9     7    1
     3    13    11    1
     4    13    14    1
     5    11    10    1
     6     7     6    2
     7    14    12    1
     8    10    12    1
     9    10     8    2
    10     6     8    1
    11     6     5    1
    12     5     1    1
    13     1     2    1
    14     2     4    2
    15     2     3    1
