@<TRIPOS>MOLECULE
/home/cewinharhar/GITHUB/reincatalyze/data/processed/docking_pred/2023-May-31-1603_sub9_nm5_bs15_s42_ex16_mel10_mts1000_k50_ec05_g099_lra3e-4_lrc9e-3/4e2e003c692afcef440410ba16f5bc8e831af6c9_ligand_9.pdbqt
 14 15 0 0 0
SMALL
GASTEIGER

@<TRIPOS>ATOM
      1  C          9.7370    1.3120    2.6180 C.3     1  UNL1        0.0800
      2  C         11.1700    0.9600    2.6590 C.2     1  UNL1        0.1300
      3  C         12.0750    1.7240    3.5410 C.3     1  UNL1        0.0870
      4  O         11.5730    0.0560    1.9700 O.2     1  UNL1       -0.3000
      5  C          9.3890    2.0540    1.3440 C.3     1  UNL1        0.0430
      6  C          8.6600    1.1790    0.4210 C.2     1  UNL1       -0.0440
      7  C          7.2980    1.0050    0.5560 C.2     1  UNL1        0.0080
      8  C          9.2970    0.5040   -0.6040 C.2     1  UNL1        0.0540
      9  C          6.5690    0.1830   -0.2990 C.2     1  UNL1        0.0510
     10  C          8.5940   -0.3260   -1.4750 C.2     1  UNL1        0.1660
     11  C          7.2330   -0.4790   -1.3140 C.2     1  UNL1        0.1650
     12  O          8.9540   -1.1120   -2.5700 O.2     1  UNL1       -0.4540
     13  O          6.7860   -1.3470   -2.3000 O.2     1  UNL1       -0.4540
     14  C          7.9020   -1.9680   -2.9340 C.3     1  UNL1        0.4680
@<TRIPOS>BOND
     1    14    12    1
     2    14    13    1
     3    12    10    1
     4    13    11    1
     5    10    11    2
     6    10     8    1
     7    11     9    1
     8     8     6    2
     9     9     7    2
    10     6     7    1
    11     6     5    1
    12     5     1    1
    13     4     2    2
    14     1     2    1
    15     2     3    1
