@<TRIPOS>MOLECULE
/home/cewinharhar/GITHUB/reincatalyze/data/processed/docking_pred/2023-May-31-1603_sub9_nm5_bs15_s42_ex16_mel10_mts1000_k50_ec05_g099_lra3e-4_lrc9e-3/4e2e003c692afcef440410ba16f5bc8e831af6c9_ligand_9.pdbqt
 14 15 0 0 0
SMALL
GASTEIGER

@<TRIPOS>ATOM
      1  C          6.4710    0.4680   -1.0120 C.3     1  UNL1        0.0800
      2  C          7.1200   -0.4060   -2.0090 C.2     1  UNL1        0.1300
      3  C          8.2490    0.1190   -2.8030 C.3     1  UNL1        0.0870
      4  O          6.7140   -1.5330   -2.1550 O.2     1  UNL1       -0.3000
      5  C          6.5360   -0.1380    0.3750 C.3     1  UNL1        0.0430
      6  C          7.7460    0.3030    1.0740 C.2     1  UNL1       -0.0440
      7  C          7.7320    1.4540    1.8330 C.2     1  UNL1        0.0080
      8  C          8.9330   -0.4050    1.0010 C.2     1  UNL1        0.0540
      9  C          8.8600    1.9080    2.5110 C.2     1  UNL1        0.0510
     10  C         10.0770    0.0230    1.6690 C.2     1  UNL1        0.1660
     11  C         10.0310    1.1790    2.4200 C.2     1  UNL1        0.1650
     12  O         11.3780   -0.4670    1.7790 O.2     1  UNL1       -0.4540
     13  O         11.2890    1.3760    2.9710 O.2     1  UNL1       -0.4540
     14  C         12.2240    0.4930    2.3580 C.3     1  UNL1        0.4680
@<TRIPOS>BOND
     1     3     2    1
     2     4     2    2
     3     2     1    1
     4     1     5    1
     5     5     6    1
     6     8     6    2
     7     8    10    1
     8     6     7    1
     9    10    12    1
    10    10    11    2
    11    12    14    1
    12     7     9    2
    13    14    13    1
    14    11     9    1
    15    11    13    1
