@<TRIPOS>MOLECULE
/home/cewinharhar/GITHUB/reincatalyze/data/processed/docking_pred/2023-May-31-1603_sub9_nm5_bs15_s42_ex16_mel10_mts1000_k50_ec05_g099_lra3e-4_lrc9e-3/4e2e003c692afcef440410ba16f5bc8e831af6c9_ligand_9.pdbqt
 14 15 0 0 0
SMALL
GASTEIGER

@<TRIPOS>ATOM
      1  C          6.4920    1.3220    0.3740 C.3     1  UNL1        0.0800
      2  C          5.3850    1.0870    1.3230 C.2     1  UNL1        0.1300
      3  C          5.3720   -0.1540    2.1220 C.3     1  UNL1        0.0870
      4  O          4.5140    1.9150    1.4260 O.2     1  UNL1       -0.3000
      5  C          6.1200    0.8750   -1.0240 C.3     1  UNL1        0.0430
      6  C          6.9470   -0.2620   -1.4390 C.2     1  UNL1       -0.0440
      7  C          7.4530   -0.3260   -2.7210 C.2     1  UNL1        0.0080
      8  C          7.2500   -1.3010   -0.5750 C.2     1  UNL1        0.0540
      9  C          8.2410   -1.3880   -3.1540 C.2     1  UNL1        0.0510
     10  C          8.0370   -2.3770   -0.9800 C.2     1  UNL1        0.1660
     11  C          8.5270   -2.4110   -2.2690 C.2     1  UNL1        0.1650
     12  O          8.4960   -3.5340   -0.3520 O.2     1  UNL1       -0.4540
     13  O          9.2690   -3.5750   -2.4070 O.2     1  UNL1       -0.4540
     14  C          9.0350   -4.4280   -1.2900 C.3     1  UNL1        0.4680
@<TRIPOS>BOND
     1     9     7    1
     2     9    11    2
     3     7     6    2
     4    13    11    1
     5    13    14    1
     6    11    10    1
     7     6     5    1
     8     6     8    1
     9    14    12    1
    10     5     1    1
    11    10     8    2
    12    10    12    1
    13     1     2    1
    14     2     4    2
    15     2     3    1
