@<TRIPOS>MOLECULE
/home/cewinharhar/GITHUB/reincatalyze/data/processed/docking_pred/2023-May-31-1603_sub9_nm5_bs15_s42_ex16_mel10_mts1000_k50_ec05_g099_lra3e-4_lrc9e-3/4f8338f1f65f27d68c3e57a6b5041c9c59ec4c55_ligand_9.pdbqt
 14 15 0 0 0
SMALL
GASTEIGER

@<TRIPOS>ATOM
      1  C          6.2420    1.3330    0.9220 C.3     1  UNL1        0.0800
      2  C          5.5680    0.5010    1.9380 C.2     1  UNL1        0.1300
      3  C          6.2740   -0.6700    2.4950 C.3     1  UNL1        0.0870
      4  O          4.4530    0.7950    2.2930 O.2     1  UNL1       -0.3000
      5  C          5.7400    1.0130   -0.4710 C.3     1  UNL1        0.0430
      6  C          6.6970    0.1580   -1.1800 C.2     1  UNL1       -0.0440
      7  C          7.3690    0.6350   -2.2860 C.2     1  UNL1        0.0080
      8  C          6.9600   -1.1390   -0.7750 C.2     1  UNL1        0.0540
      9  C          8.2850   -0.1450   -2.9880 C.2     1  UNL1        0.0510
     10  C          7.8710   -1.9420   -1.4570 C.2     1  UNL1        0.1660
     11  C          8.5270   -1.4370   -2.5600 C.2     1  UNL1        0.1650
     12  O          8.3290   -3.2480   -1.2890 O.2     1  UNL1       -0.4540
     13  O          9.3660   -2.4300   -3.0440 O.2     1  UNL1       -0.4540
     14  C          9.0520   -3.6700   -2.4160 C.3     1  UNL1        0.4680
@<TRIPOS>BOND
     1    13    11    1
     2    13    14    1
     3     9    11    2
     4     9     7    1
     5    11    10    1
     6    14    12    1
     7     7     6    2
     8    10    12    1
     9    10     8    2
    10     6     8    1
    11     6     5    1
    12     5     1    1
    13     1     2    1
    14     2     4    2
    15     2     3    1
