@<TRIPOS>MOLECULE
/home/cewinharhar/GITHUB/reincatalyze/data/processed/docking_pred/2023-May-31-1603_sub9_nm5_bs15_s42_ex16_mel10_mts1000_k50_ec05_g099_lra3e-4_lrc9e-3/4f8485ffa73320ccf1b94cd7b1ea99ef776c762b_ligand_9.pdbqt
 14 15 0 0 0
SMALL
GASTEIGER

@<TRIPOS>ATOM
      1  C          5.4780    1.9450    1.2860 C.3     1  UNL1        0.0800
      2  C          4.9130    0.7810    1.9970 C.2     1  UNL1        0.1300
      3  C          5.7010   -0.4660    2.0790 C.3     1  UNL1        0.0870
      4  O          3.8190    0.8710    2.4960 O.2     1  UNL1       -0.3000
      5  C          5.3430    1.7910   -0.2140 C.3     1  UNL1        0.0430
      6  C          6.4850    1.0500   -0.7610 C.2     1  UNL1       -0.0440
      7  C          7.7740    1.4580   -0.4890 C.2     1  UNL1        0.0080
      8  C          6.3180   -0.0690   -1.5580 C.2     1  UNL1        0.0540
      9  C          8.8850    0.7830   -0.9890 C.2     1  UNL1        0.0510
     10  C          7.4090   -0.7640   -2.0720 C.2     1  UNL1        0.1660
     11  C          8.6860   -0.3310   -1.7820 C.2     1  UNL1        0.1650
     12  O          7.5490   -1.8920   -2.8800 O.2     1  UNL1       -0.4540
     13  O          9.5770   -1.1900   -2.4100 O.2     1  UNL1       -0.4540
     14  C          8.8730   -2.0210   -3.3290 C.3     1  UNL1        0.4680
@<TRIPOS>BOND
     1    14    12    1
     2    14    13    1
     3    12    10    1
     4    13    11    1
     5    10    11    2
     6    10     8    1
     7    11     9    1
     8     8     6    2
     9     9     7    2
    10     6     7    1
    11     6     5    1
    12     5     1    1
    13     1     2    1
    14     2     3    1
    15     2     4    2
