@<TRIPOS>MOLECULE
/home/cewinharhar/GITHUB/reincatalyze/data/processed/docking_pred/2023-May-31-1603_sub9_nm5_bs15_s42_ex16_mel10_mts1000_k50_ec05_g099_lra3e-4_lrc9e-3/4f8485ffa73320ccf1b94cd7b1ea99ef776c762b_ligand_9.pdbqt
 14 15 0 0 0
SMALL
GASTEIGER

@<TRIPOS>ATOM
      1  C          5.4600   -0.2510    1.8640 C.3     1  UNL1        0.0800
      2  C          5.3480    0.9850    1.0640 C.2     1  UNL1        0.1300
      3  C          5.9070    1.0130   -0.3030 C.3     1  UNL1        0.0870
      4  O          4.8020    1.9480    1.5440 O.2     1  UNL1       -0.3000
      5  C          6.3660   -1.2600    1.1900 C.3     1  UNL1        0.0430
      6  C          7.5000   -1.5940    2.0560 C.2     1  UNL1       -0.0440
      7  C          7.4870   -1.2350    3.3880 C.2     1  UNL1        0.0080
      8  C          8.6100   -2.2710    1.5820 C.2     1  UNL1        0.0540
      9  C          8.5440   -1.5330    4.2450 C.2     1  UNL1        0.0510
     10  C          9.6820   -2.5820    2.4150 C.2     1  UNL1        0.1660
     11  C          9.6390   -2.2090    3.7420 C.2     1  UNL1        0.1650
     12  O         10.8990   -3.2360    2.2270 O.2     1  UNL1       -0.4540
     13  O         10.8170   -2.6360    4.3380 O.2     1  UNL1       -0.4540
     14  C         11.7410   -3.0470    3.3350 C.3     1  UNL1        0.4680
@<TRIPOS>BOND
     1     3     2    1
     2     2     4    2
     3     2     1    1
     4     5     1    1
     5     5     6    1
     6     8     6    2
     7     8    10    1
     8     6     7    1
     9    12    10    1
    10    12    14    1
    11    10    11    2
    12    14    13    1
    13     7     9    2
    14    11     9    1
    15    11    13    1
