@<TRIPOS>MOLECULE
/home/cewinharhar/GITHUB/reincatalyze/data/processed/docking_pred/2023-May-31-1603_sub9_nm5_bs15_s42_ex16_mel10_mts1000_k50_ec05_g099_lra3e-4_lrc9e-3/4f8485ffa73320ccf1b94cd7b1ea99ef776c762b_ligand_9.pdbqt
 14 15 0 0 0
SMALL
GASTEIGER

@<TRIPOS>ATOM
      1  C          5.6840    1.2520   -0.2150 C.3     1  UNL1        0.0800
      2  C          5.0930    1.2310    1.1380 C.2     1  UNL1        0.1300
      3  C          5.3710    0.0860    2.0280 C.3     1  UNL1        0.0870
      4  O          4.3940    2.1490    1.4880 O.2     1  UNL1       -0.3000
      5  C          7.1870    1.0750   -0.1600 C.3     1  UNL1        0.0430
      6  C          7.5780   -0.2070   -0.7550 C.2     1  UNL1       -0.0440
      7  C          7.4770   -0.4020   -2.1170 C.2     1  UNL1        0.0080
      8  C          8.0530   -1.2550    0.0130 C.2     1  UNL1        0.0540
      9  C          7.8370   -1.6040   -2.7200 C.2     1  UNL1        0.0510
     10  C          8.4210   -2.4690   -0.5630 C.2     1  UNL1        0.1660
     11  C          8.3090   -2.6330   -1.9280 C.2     1  UNL1        0.1650
     12  O          8.9190   -3.6710   -0.0610 O.2     1  UNL1       -0.4540
     13  O          8.7350   -3.9170   -2.2360 O.2     1  UNL1       -0.4540
     14  C          8.8670   -4.6780   -1.0380 C.3     1  UNL1        0.4680
@<TRIPOS>BOND
     1     9     7    1
     2     9    11    2
     3    13    11    1
     4    13    14    1
     5     7     6    2
     6    11    10    1
     7    14    12    1
     8     6     5    1
     9     6     8    1
    10    10    12    1
    11    10     8    2
    12     1     5    1
    13     1     2    1
    14     2     4    2
    15     2     3    1
