MODEL 1
REMARK VINA RESULT:      -6.7      0.000      0.000
REMARK SMILES CC(=O)CCc1ccc2c(c1)OCO2
REMARK SMILES IDX 4 1 2 2 1 3 3 4 5 5 6 6 7 7 11 8 8 9 10 10 9 11 12 12 14 13
REMARK SMILES IDX 13 14
REMARK H PARENT
REMARK Flexibility Score: inf
ROOT
ATOM      1  C   UNL     1       5.460  -0.251   1.864  1.00  0.00     0.080 C 
ENDROOT
BRANCH   1   2
ATOM      2  C   UNL     1       5.348   0.985   1.064  1.00  0.00     0.130 C 
ATOM      3  C   UNL     1       5.907   1.013  -0.303  1.00  0.00     0.087 C 
ATOM      4  O   UNL     1       4.802   1.948   1.544  1.00  0.00    -0.300 OA
ENDBRANCH   1   2
BRANCH   1   5
ATOM      5  C   UNL     1       6.366  -1.260   1.190  1.00  0.00     0.043 C 
BRANCH   5   6
ATOM      6  C   UNL     1       7.500  -1.594   2.056  1.00  0.00    -0.044 A 
ATOM      7  C   UNL     1       7.487  -1.235   3.388  1.00  0.00     0.008 A 
ATOM      8  C   UNL     1       8.610  -2.271   1.582  1.00  0.00     0.054 A 
ATOM      9  C   UNL     1       8.544  -1.533   4.245  1.00  0.00     0.051 A 
ATOM     10  C   UNL     1       9.682  -2.582   2.415  1.00  0.00     0.166 A 
ATOM     11  C   UNL     1       9.639  -2.209   3.742  1.00  0.00     0.165 A 
ATOM     12  O   UNL     1      10.899  -3.236   2.227  1.00  0.00    -0.454 OA
ATOM     13  O   UNL     1      10.817  -2.636   4.338  1.00  0.00    -0.454 OA
ATOM     14  C   UNL     1      11.741  -3.047   3.335  1.00  0.00     0.468 C 
ENDBRANCH   5   6
ENDBRANCH   1   5
TORSDOF 3
ENDMDL
MODEL 2
REMARK VINA RESULT:      -6.6      3.802      4.827
REMARK SMILES CC(=O)CCc1ccc2c(c1)OCO2
REMARK SMILES IDX 4 1 2 2 1 3 3 4 5 5 6 6 7 7 11 8 8 9 10 10 9 11 12 12 14 13
REMARK SMILES IDX 13 14
REMARK H PARENT
REMARK Flexibility Score: inf
ROOT
ATOM      1  C   UNL     1       5.478   1.945   1.286  1.00  0.00     0.080 C 
ENDROOT
BRANCH   1   2
ATOM      2  C   UNL     1       4.913   0.781   1.997  1.00  0.00     0.130 C 
ATOM      3  C   UNL     1       5.701  -0.466   2.079  1.00  0.00     0.087 C 
ATOM      4  O   UNL     1       3.819   0.871   2.496  1.00  0.00    -0.300 OA
ENDBRANCH   1   2
BRANCH   1   5
ATOM      5  C   UNL     1       5.343   1.791  -0.214  1.00  0.00     0.043 C 
BRANCH   5   6
ATOM      6  C   UNL     1       6.485   1.050  -0.761  1.00  0.00    -0.044 A 
ATOM      7  C   UNL     1       7.774   1.458  -0.489  1.00  0.00     0.008 A 
ATOM      8  C   UNL     1       6.318  -0.069  -1.558  1.00  0.00     0.054 A 
ATOM      9  C   UNL     1       8.885   0.783  -0.989  1.00  0.00     0.051 A 
ATOM     10  C   UNL     1       7.409  -0.764  -2.072  1.00  0.00     0.166 A 
ATOM     11  C   UNL     1       8.686  -0.331  -1.782  1.00  0.00     0.165 A 
ATOM     12  O   UNL     1       7.549  -1.892  -2.880  1.00  0.00    -0.454 OA
ATOM     13  O   UNL     1       9.577  -1.190  -2.410  1.00  0.00    -0.454 OA
ATOM     14  C   UNL     1       8.873  -2.021  -3.329  1.00  0.00     0.468 C 
ENDBRANCH   5   6
ENDBRANCH   1   5
TORSDOF 3
ENDMDL
MODEL 3
REMARK VINA RESULT:      -6.5      1.165      1.165
REMARK SMILES CC(=O)CCc1ccc2c(c1)OCO2
REMARK SMILES IDX 4 1 2 2 1 3 3 4 5 5 6 6 7 7 11 8 8 9 10 10 9 11 12 12 14 13
REMARK SMILES IDX 13 14
REMARK H PARENT
REMARK Flexibility Score: inf
ROOT
ATOM      1  C   UNL     1       5.422   0.121   1.945  1.00  0.00     0.080 C 
ENDROOT
BRANCH   1   2
ATOM      2  C   UNL     1       5.209   1.197   0.957  1.00  0.00     0.130 C 
ATOM      3  C   UNL     1       5.827   1.082  -0.380  1.00  0.00     0.087 C 
ATOM      4  O   UNL     1       4.534   2.149   1.262  1.00  0.00    -0.300 OA
ENDBRANCH   1   2
BRANCH   1   5
ATOM      5  C   UNL     1       6.312  -0.970   1.385  1.00  0.00     0.043 C 
BRANCH   5   6
ATOM      6  C   UNL     1       7.544  -1.083   2.171  1.00  0.00    -0.044 A 
ATOM      7  C   UNL     1       7.488  -1.389   3.515  1.00  0.00     0.008 A 
ATOM      8  C   UNL     1       8.793  -0.889   1.607  1.00  0.00     0.054 A 
ATOM      9  C   UNL     1       8.634  -1.505   4.296  1.00  0.00     0.051 A 
ATOM     10  C   UNL     1       9.958  -0.998   2.364  1.00  0.00     0.166 A 
ATOM     11  C   UNL     1       9.867  -1.306   3.705  1.00  0.00     0.165 A 
ATOM     12  O   UNL     1      11.316  -0.863   2.080  1.00  0.00    -0.454 OA
ATOM     13  O   UNL     1      11.157  -1.353   4.215  1.00  0.00    -0.454 OA
ATOM     14  C   UNL     1      12.069  -0.809   3.265  1.00  0.00     0.468 C 
ENDBRANCH   5   6
ENDBRANCH   1   5
TORSDOF 3
ENDMDL
MODEL 4
REMARK VINA RESULT:      -6.4      2.996      4.212
REMARK SMILES CC(=O)CCc1ccc2c(c1)OCO2
REMARK SMILES IDX 4 1 2 2 1 3 3 4 5 5 6 6 7 7 11 8 8 9 10 10 9 11 12 12 14 13
REMARK SMILES IDX 13 14
REMARK H PARENT
REMARK Flexibility Score: inf
ROOT
ATOM      1  C   UNL     1       5.684   1.252  -0.215  1.00  0.00     0.080 C 
ENDROOT
BRANCH   1   2
ATOM      2  C   UNL     1       5.093   1.231   1.138  1.00  0.00     0.130 C 
ATOM      3  C   UNL     1       5.371   0.086   2.028  1.00  0.00     0.087 C 
ATOM      4  O   UNL     1       4.394   2.149   1.488  1.00  0.00    -0.300 OA
ENDBRANCH   1   2
BRANCH   1   5
ATOM      5  C   UNL     1       7.187   1.075  -0.160  1.00  0.00     0.043 C 
BRANCH   5   6
ATOM      6  C   UNL     1       7.578  -0.207  -0.755  1.00  0.00    -0.044 A 
ATOM      7  C   UNL     1       7.477  -0.402  -2.117  1.00  0.00     0.008 A 
ATOM      8  C   UNL     1       8.053  -1.255   0.013  1.00  0.00     0.054 A 
ATOM      9  C   UNL     1       7.837  -1.604  -2.720  1.00  0.00     0.051 A 
ATOM     10  C   UNL     1       8.421  -2.469  -0.563  1.00  0.00     0.166 A 
ATOM     11  C   UNL     1       8.309  -2.633  -1.928  1.00  0.00     0.165 A 
ATOM     12  O   UNL     1       8.919  -3.671  -0.061  1.00  0.00    -0.454 OA
ATOM     13  O   UNL     1       8.735  -3.917  -2.236  1.00  0.00    -0.454 OA
ATOM     14  C   UNL     1       8.867  -4.678  -1.038  1.00  0.00     0.468 C 
ENDBRANCH   5   6
ENDBRANCH   1   5
TORSDOF 3
ENDMDL
MODEL 5
REMARK VINA RESULT:      -6.4      0.982      1.006
REMARK SMILES CC(=O)CCc1ccc2c(c1)OCO2
REMARK SMILES IDX 4 1 2 2 1 3 3 4 5 5 6 6 7 7 11 8 8 9 10 10 9 11 12 12 14 13
REMARK SMILES IDX 13 14
REMARK H PARENT
REMARK Flexibility Score: inf
ROOT
ATOM      1  C   UNL     1       5.736   0.103   1.468  1.00  0.00     0.080 C 
ENDROOT
BRANCH   1   2
ATOM      2  C   UNL     1       5.742   0.835   0.186  1.00  0.00     0.130 C 
ATOM      3  C   UNL     1       5.064   2.145   0.100  1.00  0.00     0.087 C 
ATOM      4  O   UNL     1       6.301   0.349  -0.766  1.00  0.00    -0.300 OA
ENDBRANCH   1   2
BRANCH   1   5
ATOM      5  C   UNL     1       6.216  -1.322   1.289  1.00  0.00     0.043 C 
BRANCH   5   6
ATOM      6  C   UNL     1       7.369  -1.590   2.154  1.00  0.00    -0.044 A 
ATOM      7  C   UNL     1       7.310  -1.302   3.502  1.00  0.00     0.008 A 
ATOM      8  C   UNL     1       8.543  -2.131   1.661  1.00  0.00     0.054 A 
ATOM      9  C   UNL     1       8.383  -1.540   4.356  1.00  0.00     0.051 A 
ATOM     10  C   UNL     1       9.633  -2.381   2.492  1.00  0.00     0.166 A 
ATOM     11  C   UNL     1       9.543  -2.082   3.836  1.00  0.00     0.165 A 
ATOM     12  O   UNL     1      10.910  -2.904   2.288  1.00  0.00    -0.454 OA
ATOM     13  O   UNL     1      10.752  -2.424   4.426  1.00  0.00    -0.454 OA
ATOM     14  C   UNL     1      11.720  -2.692   3.415  1.00  0.00     0.468 C 
ENDBRANCH   5   6
ENDBRANCH   1   5
TORSDOF 3
ENDMDL
