@<TRIPOS>MOLECULE
/home/cewinharhar/GITHUB/reincatalyze/data/processed/docking_pred/2023-May-31-1603_sub9_nm5_bs15_s42_ex16_mel10_mts1000_k50_ec05_g099_lra3e-4_lrc9e-3/4f8485ffa73320ccf1b94cd7b1ea99ef776c762b_ligand_9.pdbqt
 14 15 0 0 0
SMALL
GASTEIGER

@<TRIPOS>ATOM
      1  C          5.4220    0.1210    1.9450 C.3     1  UNL1        0.0800
      2  C          5.2090    1.1970    0.9570 C.2     1  UNL1        0.1300
      3  C          5.8270    1.0820   -0.3800 C.3     1  UNL1        0.0870
      4  O          4.5340    2.1490    1.2620 O.2     1  UNL1       -0.3000
      5  C          6.3120   -0.9700    1.3850 C.3     1  UNL1        0.0430
      6  C          7.5440   -1.0830    2.1710 C.2     1  UNL1       -0.0440
      7  C          7.4880   -1.3890    3.5150 C.2     1  UNL1        0.0080
      8  C          8.7930   -0.8890    1.6070 C.2     1  UNL1        0.0540
      9  C          8.6340   -1.5050    4.2960 C.2     1  UNL1        0.0510
     10  C          9.9580   -0.9980    2.3640 C.2     1  UNL1        0.1660
     11  C          9.8670   -1.3060    3.7050 C.2     1  UNL1        0.1650
     12  O         11.3160   -0.8630    2.0800 O.2     1  UNL1       -0.4540
     13  O         11.1570   -1.3530    4.2150 O.2     1  UNL1       -0.4540
     14  C         12.0690   -0.8090    3.2650 C.3     1  UNL1        0.4680
@<TRIPOS>BOND
     1     3     2    1
     2     2     4    2
     3     2     1    1
     4     5     1    1
     5     5     6    1
     6     8     6    2
     7     8    10    1
     8    12    10    1
     9    12    14    1
    10     6     7    1
    11    10    11    2
    12    14    13    1
    13     7     9    2
    14    11    13    1
    15    11     9    1
