@<TRIPOS>MOLECULE
/home/cewinharhar/GITHUB/reincatalyze/data/processed/docking_pred/2023-May-31-1603_sub9_nm5_bs15_s42_ex16_mel10_mts1000_k50_ec05_g099_lra3e-4_lrc9e-3/4f8485ffa73320ccf1b94cd7b1ea99ef776c762b_ligand_9.pdbqt
 14 15 0 0 0
SMALL
GASTEIGER

@<TRIPOS>ATOM
      1  C          5.7360    0.1030    1.4680 C.3     1  UNL1        0.0800
      2  C          5.7420    0.8350    0.1860 C.2     1  UNL1        0.1300
      3  C          5.0640    2.1450    0.1000 C.3     1  UNL1        0.0870
      4  O          6.3010    0.3490   -0.7660 O.2     1  UNL1       -0.3000
      5  C          6.2160   -1.3220    1.2890 C.3     1  UNL1        0.0430
      6  C          7.3690   -1.5900    2.1540 C.2     1  UNL1       -0.0440
      7  C          7.3100   -1.3020    3.5020 C.2     1  UNL1        0.0080
      8  C          8.5430   -2.1310    1.6610 C.2     1  UNL1        0.0540
      9  C          8.3830   -1.5400    4.3560 C.2     1  UNL1        0.0510
     10  C          9.6330   -2.3810    2.4920 C.2     1  UNL1        0.1660
     11  C          9.5430   -2.0820    3.8360 C.2     1  UNL1        0.1650
     12  O         10.9100   -2.9040    2.2880 O.2     1  UNL1       -0.4540
     13  O         10.7520   -2.4240    4.4260 O.2     1  UNL1       -0.4540
     14  C         11.7200   -2.6920    3.4150 C.3     1  UNL1        0.4680
@<TRIPOS>BOND
     1     4     2    2
     2     3     2    1
     3     2     1    1
     4     5     1    1
     5     5     6    1
     6     8     6    2
     7     8    10    1
     8     6     7    1
     9    12    10    1
    10    12    14    1
    11    10    11    2
    12    14    13    1
    13     7     9    2
    14    11     9    1
    15    11    13    1
