@<TRIPOS>MOLECULE
/home/cewinharhar/GITHUB/reincatalyze/data/processed/docking_pred/2023-May-31-1603_sub9_nm5_bs15_s42_ex16_mel10_mts1000_k50_ec05_g099_lra3e-4_lrc9e-3/4fd116288ae20ad94bf91d23a53b6bc9c92e4cae_ligand_9.pdbqt
 14 15 0 0 0
SMALL
GASTEIGER

@<TRIPOS>ATOM
      1  C          5.7360    0.7540    0.3050 C.3     1  UNL1        0.0800
      2  C          5.4760    0.1620    1.6330 C.2     1  UNL1        0.1300
      3  C          6.2450   -1.0270    2.0540 C.3     1  UNL1        0.0870
      4  O          4.6410    0.6600    2.3460 O.2     1  UNL1       -0.3000
      5  C          6.4670    2.0760    0.4280 C.3     1  UNL1        0.0430
      6  C          7.8850    1.8540    0.7270 C.2     1  UNL1       -0.0440
      7  C          8.7270    1.3360   -0.2350 C.2     1  UNL1        0.0080
      8  C          8.4270    2.1500    1.9660 C.2     1  UNL1        0.0540
      9  C         10.0790    1.1090    0.0100 C.2     1  UNL1        0.0510
     10  C          9.7750    1.9350    2.2390 C.2     1  UNL1        0.1660
     11  C         10.5910    1.4150    1.2560 C.2     1  UNL1        0.1650
     12  O         10.5820    2.1310    3.3600 O.2     1  UNL1       -0.4540
     13  O         11.8690    1.3020    1.7850 O.2     1  UNL1       -0.4540
     14  C         11.8240    1.4960    3.1960 C.3     1  UNL1        0.4680
@<TRIPOS>BOND
     1     7     9    1
     2     7     6    2
     3     9    11    2
     4     1     5    1
     5     1     2    1
     6     5     6    1
     7     6     8    1
     8    11    13    1
     9    11    10    1
    10     2     3    1
    11     2     4    2
    12    13    14    1
    13     8    10    2
    14    10    12    1
    15    14    12    1
