@<TRIPOS>MOLECULE
/home/cewinharhar/GITHUB/reincatalyze/data/processed/docking_pred/2023-May-31-1603_sub9_nm5_bs15_s42_ex16_mel10_mts1000_k50_ec05_g099_lra3e-4_lrc9e-3/4fd116288ae20ad94bf91d23a53b6bc9c92e4cae_ligand_9.pdbqt
 14 15 0 0 0
SMALL
GASTEIGER

@<TRIPOS>ATOM
      1  C          5.8220    0.3610    1.4950 C.3     1  UNL1        0.0800
      2  C          4.9260    1.4580    1.0780 C.2     1  UNL1        0.1300
      3  C          5.1630    2.1300   -0.2150 C.3     1  UNL1        0.0870
      4  O          4.0170    1.7820    1.8020 O.2     1  UNL1       -0.3000
      5  C          7.0260    0.2590    0.5820 C.3     1  UNL1        0.0430
      6  C          8.2540    0.5870    1.3110 C.2     1  UNL1       -0.0440
      7  C          8.2750    1.6400    2.2020 C.2     1  UNL1        0.0080
      8  C          9.4240   -0.1320    1.1380 C.2     1  UNL1        0.0540
      9  C          9.4210    1.9850    2.9140 C.2     1  UNL1        0.0510
     10  C         10.5850    0.1890    1.8360 C.2     1  UNL1        0.1660
     11  C         10.5730    1.2480    2.7200 C.2     1  UNL1        0.1650
     12  O         11.8760   -0.3380    1.8680 O.2     1  UNL1       -0.4540
     13  O         11.8420    1.3510    3.2730 O.2     1  UNL1       -0.4540
     14  C         12.7500    0.5280    2.5460 C.3     1  UNL1        0.4680
@<TRIPOS>BOND
     1     3     2    1
     2     5     6    1
     3     5     1    1
     4     2     1    1
     5     2     4    2
     6     8     6    2
     7     8    10    1
     8     6     7    1
     9    10    12    1
    10    10    11    2
    11    12    14    1
    12     7     9    2
    13    14    13    1
    14    11     9    1
    15    11    13    1
