@<TRIPOS>MOLECULE
/home/cewinharhar/GITHUB/reincatalyze/data/processed/docking_pred/2023-May-31-1603_sub9_nm5_bs15_s42_ex16_mel10_mts1000_k50_ec05_g099_lra3e-4_lrc9e-3/4fd116288ae20ad94bf91d23a53b6bc9c92e4cae_ligand_9.pdbqt
 14 15 0 0 0
SMALL
GASTEIGER

@<TRIPOS>ATOM
      1  C          5.7250    0.2680    1.4550 C.3     1  UNL1        0.0800
      2  C          4.9410    1.4530    1.0510 C.2     1  UNL1        0.1300
      3  C          5.2300    2.1010   -0.2440 C.3     1  UNL1        0.0870
      4  O          4.0810    1.8680    1.7880 O.2     1  UNL1       -0.3000
      5  C          6.7120   -0.1300    0.3780 C.3     1  UNL1        0.0430
      6  C          8.0550    0.3610    0.7030 C.2     1  UNL1       -0.0440
      7  C          8.9940    0.5320   -0.2920 C.2     1  UNL1        0.0080
      8  C          8.4280    0.6660    2.0010 C.2     1  UNL1        0.0540
      9  C         10.2800    0.9950   -0.0250 C.2     1  UNL1        0.0510
     10  C          9.7070    1.1310    2.2990 C.2     1  UNL1        0.1660
     11  C         10.6240    1.2910    1.2810 C.2     1  UNL1        0.1650
     12  O         10.3520    1.5100    3.4750 O.2     1  UNL1       -0.4540
     13  O         11.8020    1.7600    1.8440 O.2     1  UNL1       -0.4540
     14  C         11.7340    1.6460    3.2630 C.3     1  UNL1        0.4680
@<TRIPOS>BOND
     1     7     9    1
     2     7     6    2
     3     3     2    1
     4     9    11    2
     5     5     6    1
     6     5     1    1
     7     6     8    1
     8     2     1    1
     9     2     4    2
    10    11    13    1
    11    11    10    1
    12    13    14    1
    13     8    10    2
    14    10    12    1
    15    14    12    1
