@<TRIPOS>MOLECULE
/home/cewinharhar/GITHUB/reincatalyze/data/processed/docking_pred/2023-May-31-1603_sub9_nm5_bs15_s42_ex16_mel10_mts1000_k50_ec05_g099_lra3e-4_lrc9e-3/5131ba4422f83928eab452067adeb3f7f7723c60_ligand_9.pdbqt
 14 15 0 0 0
SMALL
GASTEIGER

@<TRIPOS>ATOM
      1  C          5.6570    1.7980    1.4260 C.3     1  UNL1        0.0800
      2  C          5.1490    0.5830    2.0940 C.2     1  UNL1        0.1300
      3  C          6.0510   -0.5730    2.2710 C.3     1  UNL1        0.0870
      4  O          4.0070    0.5590    2.4800 O.2     1  UNL1       -0.3000
      5  C          5.4670    1.7200   -0.0750 C.3     1  UNL1        0.0430
      6  C          6.5730    0.9870   -0.6970 C.2     1  UNL1       -0.0440
      7  C          7.8720    1.4260   -0.5450 C.2     1  UNL1        0.0080
      8  C          6.3640   -0.1560   -1.4490 C.2     1  UNL1        0.0540
      9  C          8.9510    0.7590   -1.1200 C.2     1  UNL1        0.0510
     10  C          7.4230   -0.8440   -2.0360 C.2     1  UNL1        0.1660
     11  C          8.7100   -0.3790   -1.8660 C.2     1  UNL1        0.1650
     12  O          7.5170   -1.9900   -2.8250 O.2     1  UNL1       -0.4540
     13  O          9.5620   -1.2380   -2.5450 O.2     1  UNL1       -0.4540
     14  C          8.8010   -2.1060   -3.3810 C.3     1  UNL1        0.4680
@<TRIPOS>BOND
     1    14    12    1
     2    14    13    1
     3    12    10    1
     4    13    11    1
     5    10    11    2
     6    10     8    1
     7    11     9    1
     8     8     6    2
     9     9     7    2
    10     6     7    1
    11     6     5    1
    12     5     1    1
    13     1     2    1
    14     2     3    1
    15     2     4    2
