@<TRIPOS>MOLECULE
/home/cewinharhar/GITHUB/reincatalyze/data/processed/docking_pred/2023-May-31-1603_sub9_nm5_bs15_s42_ex16_mel10_mts1000_k50_ec05_g099_lra3e-4_lrc9e-3/5131ba4422f83928eab452067adeb3f7f7723c60_ligand_9.pdbqt
 14 15 0 0 0
SMALL
GASTEIGER

@<TRIPOS>ATOM
      1  C          6.3030    1.2120    0.9850 C.3     1  UNL1        0.0800
      2  C          5.5890    0.3840    1.9780 C.2     1  UNL1        0.1300
      3  C          6.2550   -0.8120    2.5320 C.3     1  UNL1        0.0870
      4  O          4.4760    0.7020    2.3160 O.2     1  UNL1       -0.3000
      5  C          5.8040    0.9380   -0.4190 C.3     1  UNL1        0.0430
      6  C          6.7430    0.0750   -1.1410 C.2     1  UNL1       -0.0440
      7  C          7.3820    0.5350   -2.2740 C.2     1  UNL1        0.0080
      8  C          7.0220   -1.2140   -0.7230 C.2     1  UNL1        0.0540
      9  C          8.2800   -0.2540   -2.9880 C.2     1  UNL1        0.0510
     10  C          7.9160   -2.0260   -1.4170 C.2     1  UNL1        0.1660
     11  C          8.5390   -1.5370   -2.5460 C.2     1  UNL1        0.1650
     12  O          8.3830   -3.3280   -1.2400 O.2     1  UNL1       -0.4540
     13  O          9.3670   -2.5360   -3.0380 O.2     1  UNL1       -0.4540
     14  C          9.0760   -3.7670   -2.3810 C.3     1  UNL1        0.4680
@<TRIPOS>BOND
     1    13    11    1
     2    13    14    1
     3     9    11    2
     4     9     7    1
     5    11    10    1
     6    14    12    1
     7     7     6    2
     8    10    12    1
     9    10     8    2
    10     6     8    1
    11     6     5    1
    12     5     1    1
    13     1     2    1
    14     2     4    2
    15     2     3    1
