MODEL 1
REMARK VINA RESULT:      -7.5      0.000      0.000
REMARK SMILES CC(=O)CCc1ccc2c(c1)OCO2
REMARK SMILES IDX 4 1 2 2 1 3 3 4 5 5 6 6 7 7 11 8 8 9 10 10 9 11 12 12 14 13
REMARK SMILES IDX 13 14
REMARK H PARENT
REMARK Flexibility Score: inf
ROOT
ATOM      1  C   UNL     1       5.610   1.843   1.333  1.00  0.00     0.080 C 
ENDROOT
BRANCH   1   2
ATOM      2  C   UNL     1       5.136   0.646   2.057  1.00  0.00     0.130 C 
ATOM      3  C   UNL     1       6.054  -0.496   2.241  1.00  0.00     0.087 C 
ATOM      4  O   UNL     1       4.007   0.626   2.483  1.00  0.00    -0.300 OA
ENDBRANCH   1   2
BRANCH   1   5
ATOM      5  C   UNL     1       5.423   1.690  -0.162  1.00  0.00     0.043 C 
BRANCH   5   6
ATOM      6  C   UNL     1       6.552   0.962  -0.750  1.00  0.00    -0.044 A 
ATOM      7  C   UNL     1       7.843   1.414  -0.570  1.00  0.00     0.008 A 
ATOM      8  C   UNL     1       6.372  -0.189  -1.497  1.00  0.00     0.054 A 
ATOM      9  C   UNL     1       8.941   0.753  -1.112  1.00  0.00     0.051 A 
ATOM     10  C   UNL     1       7.451  -0.873  -2.051  1.00  0.00     0.166 A 
ATOM     11  C   UNL     1       8.730  -0.394  -1.853  1.00  0.00     0.165 A 
ATOM     12  O   UNL     1       7.576  -2.025  -2.827  1.00  0.00    -0.454 OA
ATOM     13  O   UNL     1       9.606  -1.251  -2.504  1.00  0.00    -0.454 OA
ATOM     14  C   UNL     1       8.875  -2.133  -3.350  1.00  0.00     0.468 C 
ENDBRANCH   5   6
ENDBRANCH   1   5
TORSDOF 3
ENDMDL
MODEL 2
REMARK VINA RESULT:      -7.4      1.954      2.396
REMARK SMILES CC(=O)CCc1ccc2c(c1)OCO2
REMARK SMILES IDX 4 1 2 2 1 3 3 4 5 5 6 6 7 7 11 8 8 9 10 10 9 11 12 12 14 13
REMARK SMILES IDX 13 14
REMARK H PARENT
REMARK Flexibility Score: inf
ROOT
ATOM      1  C   UNL     1       5.671   1.128  -0.282  1.00  0.00     0.080 C 
ENDROOT
BRANCH   1   2
ATOM      2  C   UNL     1       5.151   1.164   1.100  1.00  0.00     0.130 C 
ATOM      3  C   UNL     1       5.354  -0.007   1.977  1.00  0.00     0.087 C 
ATOM      4  O   UNL     1       4.571   2.149   1.484  1.00  0.00    -0.300 OA
ENDBRANCH   1   2
BRANCH   1   5
ATOM      5  C   UNL     1       7.183   1.050  -0.297  1.00  0.00     0.043 C 
BRANCH   5   6
ATOM      6  C   UNL     1       7.626  -0.241  -0.833  1.00  0.00    -0.044 A 
ATOM      7  C   UNL     1       7.731  -0.430  -2.196  1.00  0.00     0.008 A 
ATOM      8  C   UNL     1       7.952  -1.304  -0.009  1.00  0.00     0.054 A 
ATOM      9  C   UNL     1       8.146  -1.640  -2.745  1.00  0.00     0.051 A 
ATOM     10  C   UNL     1       8.371  -2.526  -0.529  1.00  0.00     0.166 A 
ATOM     11  C   UNL     1       8.465  -2.684  -1.896  1.00  0.00     0.165 A 
ATOM     12  O   UNL     1       8.755  -3.741   0.037  1.00  0.00    -0.454 OA
ATOM     13  O   UNL     1       8.899  -3.978  -2.143  1.00  0.00    -0.454 OA
ATOM     14  C   UNL     1       8.828  -4.744  -0.944  1.00  0.00     0.468 C 
ENDBRANCH   5   6
ENDBRANCH   1   5
TORSDOF 3
ENDMDL
MODEL 3
REMARK VINA RESULT:      -7.3      2.082      2.651
REMARK SMILES CC(=O)CCc1ccc2c(c1)OCO2
REMARK SMILES IDX 4 1 2 2 1 3 3 4 5 5 6 6 7 7 11 8 8 9 10 10 9 11 12 12 14 13
REMARK SMILES IDX 13 14
REMARK H PARENT
REMARK Flexibility Score: inf
ROOT
ATOM      1  C   UNL     1       5.380  -0.048   1.967  1.00  0.00     0.080 C 
ENDROOT
BRANCH   1   2
ATOM      2  C   UNL     1       4.551   1.156   1.752  1.00  0.00     0.130 C 
ATOM      3  C   UNL     1       4.941   2.121   0.704  1.00  0.00     0.087 C 
ATOM      4  O   UNL     1       3.573   1.325   2.436  1.00  0.00    -0.300 OA
ENDBRANCH   1   2
BRANCH   1   5
ATOM      5  C   UNL     1       6.827   0.210   1.604  1.00  0.00     0.043 C 
BRANCH   5   6
ATOM      6  C   UNL     1       7.288  -0.758   0.605  1.00  0.00    -0.044 A 
ATOM      7  C   UNL     1       7.112  -0.508  -0.741  1.00  0.00     0.008 A 
ATOM      8  C   UNL     1       7.906  -1.943   0.964  1.00  0.00     0.054 A 
ATOM      9  C   UNL     1       7.534  -1.403  -1.721  1.00  0.00     0.051 A 
ATOM     10  C   UNL     1       8.339  -2.857   0.006  1.00  0.00     0.166 A 
ATOM     11  C   UNL     1       8.149  -2.578  -1.331  1.00  0.00     0.165 A 
ATOM     12  O   UNL     1       8.975  -4.097   0.065  1.00  0.00    -0.454 OA
ATOM     13  O   UNL     1       8.665  -3.639  -2.061  1.00  0.00    -0.454 OA
ATOM     14  C   UNL     1       8.946  -4.730  -1.189  1.00  0.00     0.468 C 
ENDBRANCH   5   6
ENDBRANCH   1   5
TORSDOF 3
ENDMDL
MODEL 4
REMARK VINA RESULT:      -7.1      1.226      1.389
REMARK SMILES CC(=O)CCc1ccc2c(c1)OCO2
REMARK SMILES IDX 4 1 2 2 1 3 3 4 5 5 6 6 7 7 11 8 8 9 10 10 9 11 12 12 14 13
REMARK SMILES IDX 13 14
REMARK H PARENT
REMARK Flexibility Score: inf
ROOT
ATOM      1  C   UNL     1       6.264   1.265   1.003  1.00  0.00     0.080 C 
ENDROOT
BRANCH   1   2
ATOM      2  C   UNL     1       5.579   0.412   1.996  1.00  0.00     0.130 C 
ATOM      3  C   UNL     1       6.275  -0.777   2.526  1.00  0.00     0.087 C 
ATOM      4  O   UNL     1       4.465   0.705   2.352  1.00  0.00    -0.300 OA
ENDBRANCH   1   2
BRANCH   1   5
ATOM      5  C   UNL     1       5.757   0.992  -0.398  1.00  0.00     0.043 C 
BRANCH   5   6
ATOM      6  C   UNL     1       6.698   0.137  -1.128  1.00  0.00    -0.044 A 
ATOM      7  C   UNL     1       7.322   0.601  -2.267  1.00  0.00     0.008 A 
ATOM      8  C   UNL     1       6.992  -1.150  -0.712  1.00  0.00     0.054 A 
ATOM      9  C   UNL     1       8.221  -0.180  -2.989  1.00  0.00     0.051 A 
ATOM     10  C   UNL     1       7.887  -1.954  -1.413  1.00  0.00     0.166 A 
ATOM     11  C   UNL     1       8.495  -1.461  -2.549  1.00  0.00     0.165 A 
ATOM     12  O   UNL     1       8.366  -3.252  -1.241  1.00  0.00    -0.454 OA
ATOM     13  O   UNL     1       9.327  -2.453  -3.047  1.00  0.00    -0.454 OA
ATOM     14  C   UNL     1       9.052  -3.685  -2.387  1.00  0.00     0.468 C 
ENDBRANCH   5   6
ENDBRANCH   1   5
TORSDOF 3
ENDMDL
MODEL 5
REMARK VINA RESULT:      -7.0      1.213      5.173
REMARK SMILES CC(=O)CCc1ccc2c(c1)OCO2
REMARK SMILES IDX 4 1 2 2 1 3 3 4 5 5 6 6 7 7 11 8 8 9 10 10 9 11 12 12 14 13
REMARK SMILES IDX 13 14
REMARK H PARENT
REMARK Flexibility Score: inf
ROOT
ATOM      1  C   UNL     1       8.284   0.202  -2.596  1.00  0.00     0.080 C 
ENDROOT
BRANCH   1   2
ATOM      2  C   UNL     1       7.950  -1.232  -2.703  1.00  0.00     0.130 C 
ATOM      3  C   UNL     1       9.025  -2.202  -2.995  1.00  0.00     0.087 C 
ATOM      4  O   UNL     1       6.806  -1.583  -2.550  1.00  0.00    -0.300 OA
ENDBRANCH   1   2
BRANCH   1   5
ATOM      5  C   UNL     1       8.840   0.536  -1.227  1.00  0.00     0.043 C 
BRANCH   5   6
ATOM      6  C   UNL     1       7.788   0.450  -0.209  1.00  0.00    -0.044 A 
ATOM      7  C   UNL     1       7.816  -0.552   0.738  1.00  0.00     0.008 A 
ATOM      8  C   UNL     1       6.742   1.355  -0.159  1.00  0.00     0.054 A 
ATOM      9  C   UNL     1       6.836  -0.669   1.721  1.00  0.00     0.051 A 
ATOM     10  C   UNL     1       5.748   1.264   0.812  1.00  0.00     0.166 A 
ATOM     11  C   UNL     1       5.804   0.250   1.746  1.00  0.00     0.165 A 
ATOM     12  O   UNL     1       4.606   2.008   1.105  1.00  0.00    -0.454 OA
ATOM     13  O   UNL     1       4.708   0.388   2.585  1.00  0.00    -0.454 OA
ATOM     14  C   UNL     1       3.795   1.330   2.030  1.00  0.00     0.468 C 
ENDBRANCH   5   6
ENDBRANCH   1   5
TORSDOF 3
ENDMDL
