@<TRIPOS>MOLECULE
/home/cewinharhar/GITHUB/reincatalyze/data/processed/docking_pred/2023-May-31-1603_sub9_nm5_bs15_s42_ex16_mel10_mts1000_k50_ec05_g099_lra3e-4_lrc9e-3/51335195432d6c3c52ef841bfe8bb9323d602809_ligand_9.pdbqt
 14 15 0 0 0
SMALL
GASTEIGER

@<TRIPOS>ATOM
      1  C          6.2640    1.2650    1.0030 C.3     1  UNL1        0.0800
      2  C          5.5790    0.4120    1.9960 C.2     1  UNL1        0.1300
      3  C          6.2750   -0.7770    2.5260 C.3     1  UNL1        0.0870
      4  O          4.4650    0.7050    2.3520 O.2     1  UNL1       -0.3000
      5  C          5.7570    0.9920   -0.3980 C.3     1  UNL1        0.0430
      6  C          6.6980    0.1370   -1.1280 C.2     1  UNL1       -0.0440
      7  C          7.3220    0.6010   -2.2670 C.2     1  UNL1        0.0080
      8  C          6.9920   -1.1500   -0.7120 C.2     1  UNL1        0.0540
      9  C          8.2210   -0.1800   -2.9890 C.2     1  UNL1        0.0510
     10  C          7.8870   -1.9540   -1.4130 C.2     1  UNL1        0.1660
     11  C          8.4950   -1.4610   -2.5490 C.2     1  UNL1        0.1650
     12  O          8.3660   -3.2520   -1.2410 O.2     1  UNL1       -0.4540
     13  O          9.3270   -2.4530   -3.0470 O.2     1  UNL1       -0.4540
     14  C          9.0520   -3.6850   -2.3870 C.3     1  UNL1        0.4680
@<TRIPOS>BOND
     1    13    11    1
     2    13    14    1
     3     9    11    2
     4     9     7    1
     5    11    10    1
     6    14    12    1
     7     7     6    2
     8    10    12    1
     9    10     8    2
    10     6     8    1
    11     6     5    1
    12     5     1    1
    13     1     2    1
    14     2     4    2
    15     2     3    1
