@<TRIPOS>MOLECULE
/home/cewinharhar/GITHUB/reincatalyze/data/processed/docking_pred/2023-May-31-1603_sub9_nm5_bs15_s42_ex16_mel10_mts1000_k50_ec05_g099_lra3e-4_lrc9e-3/51335195432d6c3c52ef841bfe8bb9323d602809_ligand_9.pdbqt
 14 15 0 0 0
SMALL
GASTEIGER

@<TRIPOS>ATOM
      1  C          8.2840    0.2020   -2.5960 C.3     1  UNL1        0.0800
      2  C          7.9500   -1.2320   -2.7030 C.2     1  UNL1        0.1300
      3  C          9.0250   -2.2020   -2.9950 C.3     1  UNL1        0.0870
      4  O          6.8060   -1.5830   -2.5500 O.2     1  UNL1       -0.3000
      5  C          8.8400    0.5360   -1.2270 C.3     1  UNL1        0.0430
      6  C          7.7880    0.4500   -0.2090 C.2     1  UNL1       -0.0440
      7  C          7.8160   -0.5520    0.7380 C.2     1  UNL1        0.0080
      8  C          6.7420    1.3550   -0.1590 C.2     1  UNL1        0.0540
      9  C          6.8360   -0.6690    1.7210 C.2     1  UNL1        0.0510
     10  C          5.7480    1.2640    0.8120 C.2     1  UNL1        0.1660
     11  C          5.8040    0.2500    1.7460 C.2     1  UNL1        0.1650
     12  O          4.6060    2.0080    1.1050 O.2     1  UNL1       -0.4540
     13  O          4.7080    0.3880    2.5850 O.2     1  UNL1       -0.4540
     14  C          3.7950    1.3300    2.0300 C.3     1  UNL1        0.4680
@<TRIPOS>BOND
     1     3     2    1
     2     2     1    1
     3     2     4    2
     4     1     5    1
     5     5     6    1
     6     6     8    2
     7     6     7    1
     8     8    10    1
     9     7     9    2
    10    10    12    1
    11    10    11    2
    12    12    14    1
    13     9    11    1
    14    11    13    1
    15    14    13    1
