@<TRIPOS>MOLECULE
/home/cewinharhar/GITHUB/reincatalyze/data/processed/docking_pred/2023-May-31-1603_sub9_nm5_bs15_s42_ex16_mel10_mts1000_k50_ec05_g099_lra3e-4_lrc9e-3/51cadb519a72bd0ce332fe372f57097c9ba117cb_ligand_9.pdbqt
 14 15 0 0 0
SMALL
GASTEIGER

@<TRIPOS>ATOM
      1  C          6.2500    1.3240    0.9550 C.3     1  UNL1        0.0800
      2  C          5.5680    0.4840    1.9590 C.2     1  UNL1        0.1300
      3  C          6.2740   -0.6850    2.5210 C.3     1  UNL1        0.0870
      4  O          4.4460    0.7690    2.2990 O.2     1  UNL1       -0.3000
      5  C          5.7490    1.0270   -0.4420 C.3     1  UNL1        0.0430
      6  C          6.6960    0.1660   -1.1570 C.2     1  UNL1       -0.0440
      7  C          7.3520    0.6320   -2.2780 C.2     1  UNL1        0.0080
      8  C          6.9660   -1.1270   -0.7450 C.2     1  UNL1        0.0540
      9  C          8.2580   -0.1530   -2.9850 C.2     1  UNL1        0.0510
     10  C          7.8680   -1.9360   -1.4320 C.2     1  UNL1        0.1660
     11  C          8.5070   -1.4410   -2.5490 C.2     1  UNL1        0.1650
     12  O          8.3290   -3.2410   -1.2590 O.2     1  UNL1       -0.4540
     13  O          9.3400   -2.4380   -3.0360 O.2     1  UNL1       -0.4540
     14  C          9.0360   -3.6730   -2.3920 C.3     1  UNL1        0.4680
@<TRIPOS>BOND
     1    13    11    1
     2    13    14    1
     3     9    11    2
     4     9     7    1
     5    11    10    1
     6    14    12    1
     7     7     6    2
     8    10    12    1
     9    10     8    2
    10     6     8    1
    11     6     5    1
    12     5     1    1
    13     1     2    1
    14     2     4    2
    15     2     3    1
