@<TRIPOS>MOLECULE
/home/cewinharhar/GITHUB/reincatalyze/data/processed/docking_pred/2023-May-31-1603_sub9_nm5_bs15_s42_ex16_mel10_mts1000_k50_ec05_g099_lra3e-4_lrc9e-3/51cadb519a72bd0ce332fe372f57097c9ba117cb_ligand_9.pdbqt
 14 15 0 0 0
SMALL
GASTEIGER

@<TRIPOS>ATOM
      1  C          5.6160    1.8310    1.3710 C.3     1  UNL1        0.0800
      2  C          5.1450    0.6200    2.0730 C.2     1  UNL1        0.1300
      3  C          6.0680   -0.5210    2.2400 C.3     1  UNL1        0.0870
      4  O          4.0160    0.5870    2.4950 O.2     1  UNL1       -0.3000
      5  C          5.4310    1.7050   -0.1270 C.3     1  UNL1        0.0430
      6  C          6.5530    0.9770   -0.7250 C.2     1  UNL1       -0.0440
      7  C          7.8470    1.4230   -0.5470 C.2     1  UNL1        0.0080
      8  C          6.3650   -0.1670   -1.4800 C.2     1  UNL1        0.0540
      9  C          8.9400    0.7610   -1.0990 C.2     1  UNL1        0.0510
     10  C          7.4400   -0.8510   -2.0450 C.2     1  UNL1        0.1660
     11  C          8.7210   -0.3790   -1.8480 C.2     1  UNL1        0.1650
     12  O          7.5560   -1.9970   -2.8300 O.2     1  UNL1       -0.4540
     13  O          9.5910   -1.2340   -2.5090 O.2     1  UNL1       -0.4540
     14  C          8.8530   -2.1070   -3.3600 C.3     1  UNL1        0.4680
@<TRIPOS>BOND
     1    14    12    1
     2    14    13    1
     3    12    10    1
     4    13    11    1
     5    10    11    2
     6    10     8    1
     7    11     9    1
     8     8     6    2
     9     9     7    2
    10     6     7    1
    11     6     5    1
    12     5     1    1
    13     1     2    1
    14     2     3    1
    15     2     4    2
