@<TRIPOS>MOLECULE
/home/cewinharhar/GITHUB/reincatalyze/data/processed/docking_pred/2023-May-31-1603_sub9_nm5_bs15_s42_ex16_mel10_mts1000_k50_ec05_g099_lra3e-4_lrc9e-3/51cadb519a72bd0ce332fe372f57097c9ba117cb_ligand_9.pdbqt
 14 15 0 0 0
SMALL
GASTEIGER

@<TRIPOS>ATOM
      1  C          5.6880    1.2790   -0.2110 C.3     1  UNL1        0.0800
      2  C          5.0600    1.2470    1.1250 C.2     1  UNL1        0.1300
      3  C          5.3690    0.1280    2.0390 C.3     1  UNL1        0.0870
      4  O          4.3090    2.1350    1.4440 O.2     1  UNL1       -0.3000
      5  C          7.1890    1.1010   -0.1170 C.3     1  UNL1        0.0430
      6  C          7.5920   -0.1880   -0.6860 C.2     1  UNL1       -0.0440
      7  C          7.5640   -0.3860   -2.0510 C.2     1  UNL1        0.0080
      8  C          8.0080   -1.2420    0.1090 C.2     1  UNL1        0.0540
      9  C          7.9380   -1.5950   -2.6310 C.2     1  UNL1        0.0510
     10  C          8.3870   -2.4630   -0.4430 C.2     1  UNL1        0.1660
     11  C          8.3490   -2.6290   -1.8120 C.2     1  UNL1        0.1650
     12  O          8.8380   -3.6700    0.0890 O.2     1  UNL1       -0.4540
     13  O          8.7720   -3.9210   -2.0920 O.2     1  UNL1       -0.4540
     14  C          8.8260   -4.6790   -0.8870 C.3     1  UNL1        0.4680
@<TRIPOS>BOND
     1     9     7    1
     2     9    11    2
     3    13    11    1
     4    13    14    1
     5     7     6    2
     6    11    10    1
     7    14    12    1
     8     6     5    1
     9     6     8    1
    10    10    12    1
    11    10     8    2
    12     1     5    1
    13     1     2    1
    14     2     4    2
    15     2     3    1
