@<TRIPOS>MOLECULE
/home/cewinharhar/GITHUB/reincatalyze/data/processed/docking_pred/2023-May-31-1603_sub9_nm5_bs15_s42_ex16_mel10_mts1000_k50_ec05_g099_lra3e-4_lrc9e-3/53c3fbcdd7c01d09a3e8b21e27d629f70ce21da9_ligand_9.pdbqt
 14 15 0 0 0
SMALL
GASTEIGER

@<TRIPOS>ATOM
      1  C          5.3690   -0.0740    1.9480 C.3     1  UNL1        0.0800
      2  C          4.5440    1.1330    1.7440 C.2     1  UNL1        0.1300
      3  C          4.9210    2.0940    0.6880 C.3     1  UNL1        0.0870
      4  O          3.5780    1.3100    2.4440 O.2     1  UNL1       -0.3000
      5  C          6.8170    0.1840    1.5860 C.3     1  UNL1        0.0430
      6  C          7.2750   -0.7780    0.5780 C.2     1  UNL1       -0.0440
      7  C          7.0800   -0.5270   -0.7640 C.2     1  UNL1        0.0080
      8  C          7.9090   -1.9580    0.9270 C.2     1  UNL1        0.0540
      9  C          7.4980   -1.4150   -1.7510 C.2     1  UNL1        0.0510
     10  C          8.3390   -2.8650   -0.0380 C.2     1  UNL1        0.1660
     11  C          8.1290   -2.5850   -1.3720 C.2     1  UNL1        0.1650
     12  O          8.9880   -4.0980    0.0090 O.2     1  UNL1       -0.4540
     13  O          8.6470   -3.6390   -2.1120 O.2     1  UNL1       -0.4540
     14  C          8.9500   -4.7290   -1.2450 C.3     1  UNL1        0.4680
@<TRIPOS>BOND
     1    13    11    1
     2    13    14    1
     3     9    11    2
     4     9     7    1
     5    11    10    1
     6    14    12    1
     7     7     6    2
     8    10    12    1
     9    10     8    2
    10     6     8    1
    11     6     5    1
    12     3     2    1
    13     5     1    1
    14     2     1    1
    15     2     4    2
