@<TRIPOS>MOLECULE
/home/cewinharhar/GITHUB/reincatalyze/data/processed/docking_pred/2023-May-31-1603_sub9_nm5_bs15_s42_ex16_mel10_mts1000_k50_ec05_g099_lra3e-4_lrc9e-3/544f4ddee7da09465e084ab518e20d4fbc72de61_ligand_9.pdbqt
 14 15 0 0 0
SMALL
GASTEIGER

@<TRIPOS>ATOM
      1  C          8.2730    0.2120   -2.5610 C.3     1  UNL1        0.0800
      2  C          7.9840   -1.2290   -2.7020 C.2     1  UNL1        0.1300
      3  C          9.0890   -2.1590   -3.0120 C.3     1  UNL1        0.0870
      4  O          6.8510   -1.6180   -2.5610 O.2     1  UNL1       -0.3000
      5  C          8.8150    0.5310   -1.1840 C.3     1  UNL1        0.0430
      6  C          7.7520    0.4450   -0.1790 C.2     1  UNL1       -0.0440
      7  C          7.7490   -0.5790    0.7460 C.2     1  UNL1        0.0080
      8  C          6.7250    1.3710   -0.1170 C.2     1  UNL1        0.0540
      9  C          6.7570   -0.6970    1.7160 C.2     1  UNL1        0.0510
     10  C          5.7200    1.2790    0.8420 C.2     1  UNL1        0.1660
     11  C          5.7440    0.2430    1.7520 C.2     1  UNL1        0.1650
     12  O          4.5900    2.0400    1.1410 O.2     1  UNL1       -0.4540
     13  O          4.6430    0.3850    2.5840 O.2     1  UNL1       -0.4540
     14  C          3.7550    1.3590    2.0420 C.3     1  UNL1        0.4680
@<TRIPOS>BOND
     1     3     2    1
     2     2     1    1
     3     2     4    2
     4     1     5    1
     5     5     6    1
     6     6     8    2
     7     6     7    1
     8     8    10    1
     9     7     9    2
    10    10    12    1
    11    10    11    2
    12    12    14    1
    13     9    11    1
    14    11    13    1
    15    14    13    1
