MODEL 1
REMARK VINA RESULT:      -7.5      0.000      0.000
REMARK SMILES CC(=O)CCc1ccc2c(c1)OCO2
REMARK SMILES IDX 4 1 2 2 1 3 3 4 5 5 6 6 7 7 11 8 8 9 10 10 9 11 12 12 14 13
REMARK SMILES IDX 13 14
REMARK H PARENT
REMARK Flexibility Score: inf
ROOT
ATOM      1  C   UNL     1       5.641   1.820   1.371  1.00  0.00     0.080 C 
ENDROOT
BRANCH   1   2
ATOM      2  C   UNL     1       5.151   0.619   2.075  1.00  0.00     0.130 C 
ATOM      3  C   UNL     1       6.059  -0.531   2.258  1.00  0.00     0.087 C 
ATOM      4  O   UNL     1       4.017   0.601   2.487  1.00  0.00    -0.300 OA
ENDBRANCH   1   2
BRANCH   1   5
ATOM      5  C   UNL     1       5.451   1.694  -0.127  1.00  0.00     0.043 C 
BRANCH   5   6
ATOM      6  C   UNL     1       6.571   0.965  -0.729  1.00  0.00    -0.044 A 
ATOM      7  C   UNL     1       7.864   1.415  -0.564  1.00  0.00     0.008 A 
ATOM      8  C   UNL     1       6.380  -0.184  -1.475  1.00  0.00     0.054 A 
ATOM      9  C   UNL     1       8.955   0.752  -1.120  1.00  0.00     0.051 A 
ATOM     10  C   UNL     1       7.451  -0.869  -2.044  1.00  0.00     0.166 A 
ATOM     11  C   UNL     1       8.733  -0.393  -1.860  1.00  0.00     0.165 A 
ATOM     12  O   UNL     1       7.565  -2.020  -2.822  1.00  0.00    -0.454 OA
ATOM     13  O   UNL     1       9.600  -1.250  -2.523  1.00  0.00    -0.454 OA
ATOM     14  C   UNL     1       8.857  -2.131  -3.361  1.00  0.00     0.468 C 
ENDBRANCH   5   6
ENDBRANCH   1   5
TORSDOF 3
ENDMDL
MODEL 2
REMARK VINA RESULT:      -7.3      2.065      2.627
REMARK SMILES CC(=O)CCc1ccc2c(c1)OCO2
REMARK SMILES IDX 4 1 2 2 1 3 3 4 5 5 6 6 7 7 11 8 8 9 10 10 9 11 12 12 14 13
REMARK SMILES IDX 13 14
REMARK H PARENT
REMARK Flexibility Score: inf
ROOT
ATOM      1  C   UNL     1       5.377  -0.014   1.985  1.00  0.00     0.080 C 
ENDROOT
BRANCH   1   2
ATOM      2  C   UNL     1       4.525   1.171   1.762  1.00  0.00     0.130 C 
ATOM      3  C   UNL     1       4.892   2.134   0.705  1.00  0.00     0.087 C 
ATOM      4  O   UNL     1       3.545   1.328   2.448  1.00  0.00    -0.300 OA
ENDBRANCH   1   2
BRANCH   1   5
ATOM      5  C   UNL     1       6.814   0.261   1.592  1.00  0.00     0.043 C 
BRANCH   5   6
ATOM      6  C   UNL     1       7.270  -0.712   0.595  1.00  0.00    -0.044 A 
ATOM      7  C   UNL     1       7.096  -0.464  -0.751  1.00  0.00     0.008 A 
ATOM      8  C   UNL     1       7.883  -1.899   0.957  1.00  0.00     0.054 A 
ATOM      9  C   UNL     1       7.514  -1.362  -1.729  1.00  0.00     0.051 A 
ATOM     10  C   UNL     1       8.312  -2.816   0.001  1.00  0.00     0.166 A 
ATOM     11  C   UNL     1       8.123  -2.539  -1.337  1.00  0.00     0.165 A 
ATOM     12  O   UNL     1       8.942  -4.059   0.062  1.00  0.00    -0.454 OA
ATOM     13  O   UNL     1       8.635  -3.604  -2.065  1.00  0.00    -0.454 OA
ATOM     14  C   UNL     1       8.911  -4.694  -1.190  1.00  0.00     0.468 C 
ENDBRANCH   5   6
ENDBRANCH   1   5
TORSDOF 3
ENDMDL
MODEL 3
REMARK VINA RESULT:      -7.3      1.932      2.375
REMARK SMILES CC(=O)CCc1ccc2c(c1)OCO2
REMARK SMILES IDX 4 1 2 2 1 3 3 4 5 5 6 6 7 7 11 8 8 9 10 10 9 11 12 12 14 13
REMARK SMILES IDX 13 14
REMARK H PARENT
REMARK Flexibility Score: inf
ROOT
ATOM      1  C   UNL     1       5.659   1.157  -0.270  1.00  0.00     0.080 C 
ENDROOT
BRANCH   1   2
ATOM      2  C   UNL     1       5.105   1.211   1.098  1.00  0.00     0.130 C 
ATOM      3  C   UNL     1       5.405   0.114   2.040  1.00  0.00     0.087 C 
ATOM      4  O   UNL     1       4.420   2.150   1.418  1.00  0.00    -0.300 OA
ENDBRANCH   1   2
BRANCH   1   5
ATOM      5  C   UNL     1       7.170   1.051  -0.247  1.00  0.00     0.043 C 
BRANCH   5   6
ATOM      6  C   UNL     1       7.605  -0.230  -0.812  1.00  0.00    -0.044 A 
ATOM      7  C   UNL     1       7.684  -0.397  -2.179  1.00  0.00     0.008 A 
ATOM      8  C   UNL     1       7.947  -1.305  -0.011  1.00  0.00     0.054 A 
ATOM      9  C   UNL     1       8.091  -1.598  -2.755  1.00  0.00     0.051 A 
ATOM     10  C   UNL     1       8.358  -2.518  -0.558  1.00  0.00     0.166 A 
ATOM     11  C   UNL     1       8.427  -2.654  -1.929  1.00  0.00     0.165 A 
ATOM     12  O   UNL     1       8.754  -3.741  -0.019  1.00  0.00    -0.454 OA
ATOM     13  O   UNL     1       8.859  -3.943  -2.204  1.00  0.00    -0.454 OA
ATOM     14  C   UNL     1       8.810  -4.729  -1.016  1.00  0.00     0.468 C 
ENDBRANCH   5   6
ENDBRANCH   1   5
TORSDOF 3
ENDMDL
MODEL 4
REMARK VINA RESULT:      -7.1      1.219      1.387
REMARK SMILES CC(=O)CCc1ccc2c(c1)OCO2
REMARK SMILES IDX 4 1 2 2 1 3 3 4 5 5 6 6 7 7 11 8 8 9 10 10 9 11 12 12 14 13
REMARK SMILES IDX 13 14
REMARK H PARENT
REMARK Flexibility Score: inf
ROOT
ATOM      1  C   UNL     1       6.259   1.309   0.915  1.00  0.00     0.080 C 
ENDROOT
BRANCH   1   2
ATOM      2  C   UNL     1       5.574   0.484   1.930  1.00  0.00     0.130 C 
ATOM      3  C   UNL     1       6.270  -0.691   2.492  1.00  0.00     0.087 C 
ATOM      4  O   UNL     1       4.460   0.786   2.278  1.00  0.00    -0.300 OA
ENDBRANCH   1   2
BRANCH   1   5
ATOM      5  C   UNL     1       5.760   0.992  -0.479  1.00  0.00     0.043 C 
BRANCH   5   6
ATOM      6  C   UNL     1       6.715   0.132  -1.185  1.00  0.00    -0.044 A 
ATOM      7  C   UNL     1       7.384   0.600  -2.297  1.00  0.00     0.008 A 
ATOM      8  C   UNL     1       6.980  -1.162  -0.772  1.00  0.00     0.054 A 
ATOM      9  C   UNL     1       8.298  -0.184  -2.996  1.00  0.00     0.051 A 
ATOM     10  C   UNL     1       7.890  -1.970  -1.450  1.00  0.00     0.166 A 
ATOM     11  C   UNL     1       8.542  -1.473  -2.559  1.00  0.00     0.165 A 
ATOM     12  O   UNL     1       8.348  -3.275  -1.274  1.00  0.00    -0.454 OA
ATOM     13  O   UNL     1       9.379  -2.470  -3.038  1.00  0.00    -0.454 OA
ATOM     14  C   UNL     1       9.068  -3.705  -2.400  1.00  0.00     0.468 C 
ENDBRANCH   5   6
ENDBRANCH   1   5
TORSDOF 3
ENDMDL
MODEL 5
REMARK VINA RESULT:      -6.9      1.207      5.169
REMARK SMILES CC(=O)CCc1ccc2c(c1)OCO2
REMARK SMILES IDX 4 1 2 2 1 3 3 4 5 5 6 6 7 7 11 8 8 9 10 10 9 11 12 12 14 13
REMARK SMILES IDX 13 14
REMARK H PARENT
REMARK Flexibility Score: inf
ROOT
ATOM      1  C   UNL     1       8.277   0.189  -2.656  1.00  0.00     0.080 C 
ENDROOT
BRANCH   1   2
ATOM      2  C   UNL     1       7.974  -1.254  -2.747  1.00  0.00     0.130 C 
ATOM      3  C   UNL     1       9.073  -2.207  -2.999  1.00  0.00     0.087 C 
ATOM      4  O   UNL     1       6.834  -1.624  -2.614  1.00  0.00    -0.300 OA
ENDBRANCH   1   2
BRANCH   1   5
ATOM      5  C   UNL     1       8.840   0.546  -1.296  1.00  0.00     0.043 C 
BRANCH   5   6
ATOM      6  C   UNL     1       7.800   0.451  -0.267  1.00  0.00    -0.044 A 
ATOM      7  C   UNL     1       7.837  -0.562   0.669  1.00  0.00     0.008 A 
ATOM      8  C   UNL     1       6.757   1.357  -0.193  1.00  0.00     0.054 A 
ATOM      9  C   UNL     1       6.869  -0.689   1.661  1.00  0.00     0.051 A 
ATOM     10  C   UNL     1       5.774   1.256   0.788  1.00  0.00     0.166 A 
ATOM     11  C   UNL     1       5.839   0.232   1.710  1.00  0.00     0.165 A 
ATOM     12  O   UNL     1       4.637   1.999   1.103  1.00  0.00    -0.454 OA
ATOM     13  O   UNL     1       4.754   0.362   2.563  1.00  0.00    -0.454 OA
ATOM     14  C   UNL     1       3.836   1.313   2.030  1.00  0.00     0.468 C 
ENDBRANCH   5   6
ENDBRANCH   1   5
TORSDOF 3
ENDMDL
