@<TRIPOS>MOLECULE
/home/cewinharhar/GITHUB/reincatalyze/data/processed/docking_pred/2023-May-31-1603_sub9_nm5_bs15_s42_ex16_mel10_mts1000_k50_ec05_g099_lra3e-4_lrc9e-3/54a2e3ceee1b2a6ac8591f20fd198e2f201bb612_ligand_9.pdbqt
 14 15 0 0 0
SMALL
GASTEIGER

@<TRIPOS>ATOM
      1  C          5.3770   -0.0140    1.9850 C.3     1  UNL1        0.0800
      2  C          4.5250    1.1710    1.7620 C.2     1  UNL1        0.1300
      3  C          4.8920    2.1340    0.7050 C.3     1  UNL1        0.0870
      4  O          3.5450    1.3280    2.4480 O.2     1  UNL1       -0.3000
      5  C          6.8140    0.2610    1.5920 C.3     1  UNL1        0.0430
      6  C          7.2700   -0.7120    0.5950 C.2     1  UNL1       -0.0440
      7  C          7.0960   -0.4640   -0.7510 C.2     1  UNL1        0.0080
      8  C          7.8830   -1.8990    0.9570 C.2     1  UNL1        0.0540
      9  C          7.5140   -1.3620   -1.7290 C.2     1  UNL1        0.0510
     10  C          8.3120   -2.8160    0.0010 C.2     1  UNL1        0.1660
     11  C          8.1230   -2.5390   -1.3370 C.2     1  UNL1        0.1650
     12  O          8.9420   -4.0590    0.0620 O.2     1  UNL1       -0.4540
     13  O          8.6350   -3.6040   -2.0650 O.2     1  UNL1       -0.4540
     14  C          8.9110   -4.6940   -1.1900 C.3     1  UNL1        0.4680
@<TRIPOS>BOND
     1    13    11    1
     2    13    14    1
     3     9    11    2
     4     9     7    1
     5    11    10    1
     6    14    12    1
     7     7     6    2
     8    10    12    1
     9    10     8    2
    10     6     8    1
    11     6     5    1
    12     3     2    1
    13     5     1    1
    14     2     1    1
    15     2     4    2
