@<TRIPOS>MOLECULE
/home/cewinharhar/GITHUB/reincatalyze/data/processed/docking_pred/2023-May-31-1603_sub9_nm5_bs15_s42_ex16_mel10_mts1000_k50_ec05_g099_lra3e-4_lrc9e-3/54a2e3ceee1b2a6ac8591f20fd198e2f201bb612_ligand_9.pdbqt
 14 15 0 0 0
SMALL
GASTEIGER

@<TRIPOS>ATOM
      1  C          6.2590    1.3090    0.9150 C.3     1  UNL1        0.0800
      2  C          5.5740    0.4840    1.9300 C.2     1  UNL1        0.1300
      3  C          6.2700   -0.6910    2.4920 C.3     1  UNL1        0.0870
      4  O          4.4600    0.7860    2.2780 O.2     1  UNL1       -0.3000
      5  C          5.7600    0.9920   -0.4790 C.3     1  UNL1        0.0430
      6  C          6.7150    0.1320   -1.1850 C.2     1  UNL1       -0.0440
      7  C          7.3840    0.6000   -2.2970 C.2     1  UNL1        0.0080
      8  C          6.9800   -1.1620   -0.7720 C.2     1  UNL1        0.0540
      9  C          8.2980   -0.1840   -2.9960 C.2     1  UNL1        0.0510
     10  C          7.8900   -1.9700   -1.4500 C.2     1  UNL1        0.1660
     11  C          8.5420   -1.4730   -2.5590 C.2     1  UNL1        0.1650
     12  O          8.3480   -3.2750   -1.2740 O.2     1  UNL1       -0.4540
     13  O          9.3790   -2.4700   -3.0380 O.2     1  UNL1       -0.4540
     14  C          9.0680   -3.7050   -2.4000 C.3     1  UNL1        0.4680
@<TRIPOS>BOND
     1    13    11    1
     2    13    14    1
     3     9    11    2
     4     9     7    1
     5    11    10    1
     6    14    12    1
     7     7     6    2
     8    10    12    1
     9    10     8    2
    10     6     8    1
    11     6     5    1
    12     5     1    1
    13     1     2    1
    14     2     4    2
    15     2     3    1
