@<TRIPOS>MOLECULE
/home/cewinharhar/GITHUB/reincatalyze/data/processed/docking_pred/2023-May-31-1603_sub9_nm5_bs15_s42_ex16_mel10_mts1000_k50_ec05_g099_lra3e-4_lrc9e-3/54a2e3ceee1b2a6ac8591f20fd198e2f201bb612_ligand_9.pdbqt
 14 15 0 0 0
SMALL
GASTEIGER

@<TRIPOS>ATOM
      1  C          5.6410    1.8200    1.3710 C.3     1  UNL1        0.0800
      2  C          5.1510    0.6190    2.0750 C.2     1  UNL1        0.1300
      3  C          6.0590   -0.5310    2.2580 C.3     1  UNL1        0.0870
      4  O          4.0170    0.6010    2.4870 O.2     1  UNL1       -0.3000
      5  C          5.4510    1.6940   -0.1270 C.3     1  UNL1        0.0430
      6  C          6.5710    0.9650   -0.7290 C.2     1  UNL1       -0.0440
      7  C          7.8640    1.4150   -0.5640 C.2     1  UNL1        0.0080
      8  C          6.3800   -0.1840   -1.4750 C.2     1  UNL1        0.0540
      9  C          8.9550    0.7520   -1.1200 C.2     1  UNL1        0.0510
     10  C          7.4510   -0.8690   -2.0440 C.2     1  UNL1        0.1660
     11  C          8.7330   -0.3930   -1.8600 C.2     1  UNL1        0.1650
     12  O          7.5650   -2.0200   -2.8220 O.2     1  UNL1       -0.4540
     13  O          9.6000   -1.2500   -2.5230 O.2     1  UNL1       -0.4540
     14  C          8.8570   -2.1310   -3.3610 C.3     1  UNL1        0.4680
@<TRIPOS>BOND
     1    14    12    1
     2    14    13    1
     3    12    10    1
     4    13    11    1
     5    10    11    2
     6    10     8    1
     7    11     9    1
     8     8     6    2
     9     9     7    2
    10     6     7    1
    11     6     5    1
    12     5     1    1
    13     1     2    1
    14     2     3    1
    15     2     4    2
