@<TRIPOS>MOLECULE
/home/cewinharhar/GITHUB/reincatalyze/data/processed/docking_pred/2023-May-31-1603_sub9_nm5_bs15_s42_ex16_mel10_mts1000_k50_ec05_g099_lra3e-4_lrc9e-3/54a2e3ceee1b2a6ac8591f20fd198e2f201bb612_ligand_9.pdbqt
 14 15 0 0 0
SMALL
GASTEIGER

@<TRIPOS>ATOM
      1  C          8.2770    0.1890   -2.6560 C.3     1  UNL1        0.0800
      2  C          7.9740   -1.2540   -2.7470 C.2     1  UNL1        0.1300
      3  C          9.0730   -2.2070   -2.9990 C.3     1  UNL1        0.0870
      4  O          6.8340   -1.6240   -2.6140 O.2     1  UNL1       -0.3000
      5  C          8.8400    0.5460   -1.2960 C.3     1  UNL1        0.0430
      6  C          7.8000    0.4510   -0.2670 C.2     1  UNL1       -0.0440
      7  C          7.8370   -0.5620    0.6690 C.2     1  UNL1        0.0080
      8  C          6.7570    1.3570   -0.1930 C.2     1  UNL1        0.0540
      9  C          6.8690   -0.6890    1.6610 C.2     1  UNL1        0.0510
     10  C          5.7740    1.2560    0.7880 C.2     1  UNL1        0.1660
     11  C          5.8390    0.2320    1.7100 C.2     1  UNL1        0.1650
     12  O          4.6370    1.9990    1.1030 O.2     1  UNL1       -0.4540
     13  O          4.7540    0.3620    2.5630 O.2     1  UNL1       -0.4540
     14  C          3.8360    1.3130    2.0300 C.3     1  UNL1        0.4680
@<TRIPOS>BOND
     1     3     2    1
     2     2     1    1
     3     2     4    2
     4     1     5    1
     5     5     6    1
     6     6     8    2
     7     6     7    1
     8     8    10    1
     9     7     9    2
    10    10    12    1
    11    10    11    2
    12    12    14    1
    13     9    11    1
    14    11    13    1
    15    14    13    1
