@<TRIPOS>MOLECULE
/home/cewinharhar/GITHUB/reincatalyze/data/processed/docking_pred/2023-May-31-1603_sub9_nm5_bs15_s42_ex16_mel10_mts1000_k50_ec05_g099_lra3e-4_lrc9e-3/54a2e3ceee1b2a6ac8591f20fd198e2f201bb612_ligand_9.pdbqt
 14 15 0 0 0
SMALL
GASTEIGER

@<TRIPOS>ATOM
      1  C          5.6590    1.1570   -0.2700 C.3     1  UNL1        0.0800
      2  C          5.1050    1.2110    1.0980 C.2     1  UNL1        0.1300
      3  C          5.4050    0.1140    2.0400 C.3     1  UNL1        0.0870
      4  O          4.4200    2.1500    1.4180 O.2     1  UNL1       -0.3000
      5  C          7.1700    1.0510   -0.2470 C.3     1  UNL1        0.0430
      6  C          7.6050   -0.2300   -0.8120 C.2     1  UNL1       -0.0440
      7  C          7.6840   -0.3970   -2.1790 C.2     1  UNL1        0.0080
      8  C          7.9470   -1.3050   -0.0110 C.2     1  UNL1        0.0540
      9  C          8.0910   -1.5980   -2.7550 C.2     1  UNL1        0.0510
     10  C          8.3580   -2.5180   -0.5580 C.2     1  UNL1        0.1660
     11  C          8.4270   -2.6540   -1.9290 C.2     1  UNL1        0.1650
     12  O          8.7540   -3.7410   -0.0190 O.2     1  UNL1       -0.4540
     13  O          8.8590   -3.9430   -2.2040 O.2     1  UNL1       -0.4540
     14  C          8.8100   -4.7290   -1.0160 C.3     1  UNL1        0.4680
@<TRIPOS>BOND
     1     9     7    1
     2     9    11    2
     3    13    11    1
     4    13    14    1
     5     7     6    2
     6    11    10    1
     7    14    12    1
     8     6     5    1
     9     6     8    1
    10    10    12    1
    11    10     8    2
    12     1     5    1
    13     1     2    1
    14     2     4    2
    15     2     3    1
