@<TRIPOS>MOLECULE
/home/cewinharhar/GITHUB/reincatalyze/data/processed/docking_pred/2023-May-31-1603_sub9_nm5_bs15_s42_ex16_mel10_mts1000_k50_ec05_g099_lra3e-4_lrc9e-3/551c5941f3bf749be32b1159c48b101be233bdbe_ligand_9.pdbqt
 14 15 0 0 0
SMALL
GASTEIGER

@<TRIPOS>ATOM
      1  C          5.6280    1.8250    1.3650 C.3     1  UNL1        0.0800
      2  C          5.1440    0.6230    2.0720 C.2     1  UNL1        0.1300
      3  C          6.0590   -0.5210    2.2580 C.3     1  UNL1        0.0870
      4  O          4.0110    0.5990    2.4840 O.2     1  UNL1       -0.3000
      5  C          5.4390    1.6950   -0.1320 C.3     1  UNL1        0.0430
      6  C          6.5610    0.9670   -0.7320 C.2     1  UNL1       -0.0440
      7  C          7.8540    1.4180   -0.5600 C.2     1  UNL1        0.0080
      8  C          6.3740   -0.1800   -1.4820 C.2     1  UNL1        0.0540
      9  C          8.9480    0.7570   -1.1130 C.2     1  UNL1        0.0510
     10  C          7.4480   -0.8630   -2.0480 C.2     1  UNL1        0.1660
     11  C          8.7290   -0.3870   -1.8580 C.2     1  UNL1        0.1650
     12  O          7.5650   -2.0120   -2.8290 O.2     1  UNL1       -0.4540
     13  O          9.5990   -1.2420   -2.5190 O.2     1  UNL1       -0.4540
     14  C          8.8590   -2.1200   -3.3630 C.3     1  UNL1        0.4680
@<TRIPOS>BOND
     1    14    12    1
     2    14    13    1
     3    12    10    1
     4    13    11    1
     5    10    11    2
     6    10     8    1
     7    11     9    1
     8     8     6    2
     9     9     7    2
    10     6     7    1
    11     6     5    1
    12     5     1    1
    13     1     2    1
    14     2     3    1
    15     2     4    2
