MODEL 1
REMARK VINA RESULT:      -7.5      0.000      0.000
REMARK SMILES CC(=O)CCc1ccc2c(c1)OCO2
REMARK SMILES IDX 4 1 2 2 1 3 3 4 5 5 6 6 7 7 11 8 8 9 10 10 9 11 12 12 14 13
REMARK SMILES IDX 13 14
REMARK H PARENT
REMARK Flexibility Score: inf
ROOT
ATOM      1  C   UNL     1       5.628   1.825   1.365  1.00  0.00     0.080 C 
ENDROOT
BRANCH   1   2
ATOM      2  C   UNL     1       5.144   0.623   2.072  1.00  0.00     0.130 C 
ATOM      3  C   UNL     1       6.059  -0.521   2.258  1.00  0.00     0.087 C 
ATOM      4  O   UNL     1       4.011   0.599   2.484  1.00  0.00    -0.300 OA
ENDBRANCH   1   2
BRANCH   1   5
ATOM      5  C   UNL     1       5.439   1.695  -0.132  1.00  0.00     0.043 C 
BRANCH   5   6
ATOM      6  C   UNL     1       6.561   0.967  -0.732  1.00  0.00    -0.044 A 
ATOM      7  C   UNL     1       7.854   1.418  -0.560  1.00  0.00     0.008 A 
ATOM      8  C   UNL     1       6.374  -0.180  -1.482  1.00  0.00     0.054 A 
ATOM      9  C   UNL     1       8.948   0.757  -1.113  1.00  0.00     0.051 A 
ATOM     10  C   UNL     1       7.448  -0.863  -2.048  1.00  0.00     0.166 A 
ATOM     11  C   UNL     1       8.729  -0.387  -1.858  1.00  0.00     0.165 A 
ATOM     12  O   UNL     1       7.565  -2.012  -2.829  1.00  0.00    -0.454 OA
ATOM     13  O   UNL     1       9.599  -1.242  -2.519  1.00  0.00    -0.454 OA
ATOM     14  C   UNL     1       8.859  -2.120  -3.363  1.00  0.00     0.468 C 
ENDBRANCH   5   6
ENDBRANCH   1   5
TORSDOF 3
ENDMDL
MODEL 2
REMARK VINA RESULT:      -7.4      2.064      2.642
REMARK SMILES CC(=O)CCc1ccc2c(c1)OCO2
REMARK SMILES IDX 4 1 2 2 1 3 3 4 5 5 6 6 7 7 11 8 8 9 10 10 9 11 12 12 14 13
REMARK SMILES IDX 13 14
REMARK H PARENT
REMARK Flexibility Score: inf
ROOT
ATOM      1  C   UNL     1       5.356  -0.042   1.988  1.00  0.00     0.080 C 
ENDROOT
BRANCH   1   2
ATOM      2  C   UNL     1       4.536   1.165   1.759  1.00  0.00     0.130 C 
ATOM      3  C   UNL     1       4.924   2.108   0.691  1.00  0.00     0.087 C 
ATOM      4  O   UNL     1       3.566   1.356   2.449  1.00  0.00    -0.300 OA
ENDBRANCH   1   2
BRANCH   1   5
ATOM      5  C   UNL     1       6.808   0.207   1.636  1.00  0.00     0.043 C 
BRANCH   5   6
ATOM      6  C   UNL     1       7.264  -0.750   0.623  1.00  0.00    -0.044 A 
ATOM      7  C   UNL     1       7.069  -0.490  -0.718  1.00  0.00     0.008 A 
ATOM      8  C   UNL     1       7.895  -1.933   0.964  1.00  0.00     0.054 A 
ATOM      9  C   UNL     1       7.486  -1.372  -1.711  1.00  0.00     0.051 A 
ATOM     10  C   UNL     1       8.323  -2.835  -0.007  1.00  0.00     0.166 A 
ATOM     11  C   UNL     1       8.114  -2.546  -1.339  1.00  0.00     0.165 A 
ATOM     12  O   UNL     1       8.969  -4.070   0.033  1.00  0.00    -0.454 OA
ATOM     13  O   UNL     1       8.629  -3.596  -2.085  1.00  0.00    -0.454 OA
ATOM     14  C   UNL     1       8.929  -4.693  -1.226  1.00  0.00     0.468 C 
ENDBRANCH   5   6
ENDBRANCH   1   5
TORSDOF 3
ENDMDL
MODEL 3
REMARK VINA RESULT:      -7.3      1.684      2.131
REMARK SMILES CC(=O)CCc1ccc2c(c1)OCO2
REMARK SMILES IDX 4 1 2 2 1 3 3 4 5 5 6 6 7 7 11 8 8 9 10 10 9 11 12 12 14 13
REMARK SMILES IDX 13 14
REMARK H PARENT
REMARK Flexibility Score: inf
ROOT
ATOM      1  C   UNL     1       6.535   1.347   0.369  1.00  0.00     0.080 C 
ENDROOT
BRANCH   1   2
ATOM      2  C   UNL     1       5.420   1.171   1.321  1.00  0.00     0.130 C 
ATOM      3  C   UNL     1       5.364  -0.051   2.148  1.00  0.00     0.087 C 
ATOM      4  O   UNL     1       4.577   2.030   1.404  1.00  0.00    -0.300 OA
ENDBRANCH   1   2
BRANCH   1   5
ATOM      5  C   UNL     1       6.143   0.901  -1.024  1.00  0.00     0.043 C 
BRANCH   5   6
ATOM      6  C   UNL     1       6.957  -0.242  -1.447  1.00  0.00    -0.044 A 
ATOM      7  C   UNL     1       7.442  -0.312  -2.736  1.00  0.00     0.008 A 
ATOM      8  C   UNL     1       7.265  -1.280  -0.586  1.00  0.00     0.054 A 
ATOM      9  C   UNL     1       8.218  -1.381  -3.178  1.00  0.00     0.051 A 
ATOM     10  C   UNL     1       8.039  -2.362  -0.999  1.00  0.00     0.166 A 
ATOM     11  C   UNL     1       8.510  -2.403  -2.295  1.00  0.00     0.165 A 
ATOM     12  O   UNL     1       8.500  -3.521  -0.374  1.00  0.00    -0.454 OA
ATOM     13  O   UNL     1       9.242  -3.572  -2.441  1.00  0.00    -0.454 OA
ATOM     14  C   UNL     1       9.020  -4.421  -1.318  1.00  0.00     0.468 C 
ENDBRANCH   5   6
ENDBRANCH   1   5
TORSDOF 3
ENDMDL
MODEL 4
REMARK VINA RESULT:      -7.1      1.974      2.562
REMARK SMILES CC(=O)CCc1ccc2c(c1)OCO2
REMARK SMILES IDX 4 1 2 2 1 3 3 4 5 5 6 6 7 7 11 8 8 9 10 10 9 11 12 12 14 13
REMARK SMILES IDX 13 14
REMARK H PARENT
REMARK Flexibility Score: inf
ROOT
ATOM      1  C   UNL     1       6.712   0.701   1.159  1.00  0.00     0.080 C 
ENDROOT
BRANCH   1   2
ATOM      2  C   UNL     1       5.315   1.126   1.377  1.00  0.00     0.130 C 
ATOM      3  C   UNL     1       4.718   2.131   0.474  1.00  0.00     0.087 C 
ATOM      4  O   UNL     1       4.688   0.644   2.288  1.00  0.00    -0.300 OA
ENDBRANCH   1   2
BRANCH   1   5
ATOM      5  C   UNL     1       7.116   0.866  -0.291  1.00  0.00     0.043 C 
BRANCH   5   6
ATOM      6  C   UNL     1       7.595  -0.406  -0.840  1.00  0.00    -0.044 A 
ATOM      7  C   UNL     1       7.734  -0.568  -2.203  1.00  0.00     0.008 A 
ATOM      8  C   UNL     1       7.920  -1.478  -0.028  1.00  0.00     0.054 A 
ATOM      9  C   UNL     1       8.184  -1.760  -2.765  1.00  0.00     0.051 A 
ATOM     10  C   UNL     1       8.373  -2.683  -0.561  1.00  0.00     0.166 A 
ATOM     11  C   UNL     1       8.501  -2.813  -1.928  1.00  0.00     0.165 A 
ATOM     12  O   UNL     1       8.766  -3.902  -0.010  1.00  0.00    -0.454 OA
ATOM     13  O   UNL     1       8.964  -4.095  -2.189  1.00  0.00    -0.454 OA
ATOM     14  C   UNL     1       8.879  -4.885  -1.006  1.00  0.00     0.468 C 
ENDBRANCH   5   6
ENDBRANCH   1   5
TORSDOF 3
ENDMDL
MODEL 5
REMARK VINA RESULT:      -7.1      1.215      1.370
REMARK SMILES CC(=O)CCc1ccc2c(c1)OCO2
REMARK SMILES IDX 4 1 2 2 1 3 3 4 5 5 6 6 7 7 11 8 8 9 10 10 9 11 12 12 14 13
REMARK SMILES IDX 13 14
REMARK H PARENT
REMARK Flexibility Score: inf
ROOT
ATOM      1  C   UNL     1       6.242   1.328   0.938  1.00  0.00     0.080 C 
ENDROOT
BRANCH   1   2
ATOM      2  C   UNL     1       5.570   0.486   1.949  1.00  0.00     0.130 C 
ATOM      3  C   UNL     1       6.285  -0.680   2.506  1.00  0.00     0.087 C 
ATOM      4  O   UNL     1       4.451   0.768   2.298  1.00  0.00    -0.300 OA
ENDBRANCH   1   2
BRANCH   1   5
ATOM      5  C   UNL     1       5.744   1.013  -0.457  1.00  0.00     0.043 C 
BRANCH   5   6
ATOM      6  C   UNL     1       6.701   0.156  -1.164  1.00  0.00    -0.044 A 
ATOM      7  C   UNL     1       7.374   0.629  -2.271  1.00  0.00     0.008 A 
ATOM      8  C   UNL     1       6.963  -1.140  -0.756  1.00  0.00     0.054 A 
ATOM      9  C   UNL     1       8.290  -0.153  -2.971  1.00  0.00     0.051 A 
ATOM     10  C   UNL     1       7.874  -1.946  -1.436  1.00  0.00     0.166 A 
ATOM     11  C   UNL     1       8.531  -1.444  -2.540  1.00  0.00     0.165 A 
ATOM     12  O   UNL     1       8.331  -3.252  -1.264  1.00  0.00    -0.454 OA
ATOM     13  O   UNL     1       9.369  -2.439  -3.021  1.00  0.00    -0.454 OA
ATOM     14  C   UNL     1       9.055  -3.677  -2.391  1.00  0.00     0.468 C 
ENDBRANCH   5   6
ENDBRANCH   1   5
TORSDOF 3
ENDMDL
