@<TRIPOS>MOLECULE
/home/cewinharhar/GITHUB/reincatalyze/data/processed/docking_pred/2023-May-31-1603_sub9_nm5_bs15_s42_ex16_mel10_mts1000_k50_ec05_g099_lra3e-4_lrc9e-3/551c5941f3bf749be32b1159c48b101be233bdbe_ligand_9.pdbqt
 14 15 0 0 0
SMALL
GASTEIGER

@<TRIPOS>ATOM
      1  C          5.3560   -0.0420    1.9880 C.3     1  UNL1        0.0800
      2  C          4.5360    1.1650    1.7590 C.2     1  UNL1        0.1300
      3  C          4.9240    2.1080    0.6910 C.3     1  UNL1        0.0870
      4  O          3.5660    1.3560    2.4490 O.2     1  UNL1       -0.3000
      5  C          6.8080    0.2070    1.6360 C.3     1  UNL1        0.0430
      6  C          7.2640   -0.7500    0.6230 C.2     1  UNL1       -0.0440
      7  C          7.0690   -0.4900   -0.7180 C.2     1  UNL1        0.0080
      8  C          7.8950   -1.9330    0.9640 C.2     1  UNL1        0.0540
      9  C          7.4860   -1.3720   -1.7110 C.2     1  UNL1        0.0510
     10  C          8.3230   -2.8350   -0.0070 C.2     1  UNL1        0.1660
     11  C          8.1140   -2.5460   -1.3390 C.2     1  UNL1        0.1650
     12  O          8.9690   -4.0700    0.0330 O.2     1  UNL1       -0.4540
     13  O          8.6290   -3.5960   -2.0850 O.2     1  UNL1       -0.4540
     14  C          8.9290   -4.6930   -1.2260 C.3     1  UNL1        0.4680
@<TRIPOS>BOND
     1    13    11    1
     2    13    14    1
     3     9    11    2
     4     9     7    1
     5    11    10    1
     6    14    12    1
     7     7     6    2
     8    10    12    1
     9    10     8    2
    10     6     8    1
    11     6     5    1
    12     3     2    1
    13     5     1    1
    14     2     1    1
    15     2     4    2
