@<TRIPOS>MOLECULE
/home/cewinharhar/GITHUB/reincatalyze/data/processed/docking_pred/2023-May-31-1603_sub9_nm5_bs15_s42_ex16_mel10_mts1000_k50_ec05_g099_lra3e-4_lrc9e-3/551c5941f3bf749be32b1159c48b101be233bdbe_ligand_9.pdbqt
 14 15 0 0 0
SMALL
GASTEIGER

@<TRIPOS>ATOM
      1  C          6.2420    1.3280    0.9380 C.3     1  UNL1        0.0800
      2  C          5.5700    0.4860    1.9490 C.2     1  UNL1        0.1300
      3  C          6.2850   -0.6800    2.5060 C.3     1  UNL1        0.0870
      4  O          4.4510    0.7680    2.2980 O.2     1  UNL1       -0.3000
      5  C          5.7440    1.0130   -0.4570 C.3     1  UNL1        0.0430
      6  C          6.7010    0.1560   -1.1640 C.2     1  UNL1       -0.0440
      7  C          7.3740    0.6290   -2.2710 C.2     1  UNL1        0.0080
      8  C          6.9630   -1.1400   -0.7560 C.2     1  UNL1        0.0540
      9  C          8.2900   -0.1530   -2.9710 C.2     1  UNL1        0.0510
     10  C          7.8740   -1.9460   -1.4360 C.2     1  UNL1        0.1660
     11  C          8.5310   -1.4440   -2.5400 C.2     1  UNL1        0.1650
     12  O          8.3310   -3.2520   -1.2640 O.2     1  UNL1       -0.4540
     13  O          9.3690   -2.4390   -3.0210 O.2     1  UNL1       -0.4540
     14  C          9.0550   -3.6770   -2.3910 C.3     1  UNL1        0.4680
@<TRIPOS>BOND
     1    13    11    1
     2    13    14    1
     3     9    11    2
     4     9     7    1
     5    11    10    1
     6    14    12    1
     7     7     6    2
     8    10    12    1
     9    10     8    2
    10     6     8    1
    11     6     5    1
    12     5     1    1
    13     1     2    1
    14     2     4    2
    15     2     3    1
