@<TRIPOS>MOLECULE
/home/cewinharhar/GITHUB/reincatalyze/data/processed/docking_pred/2023-May-31-1603_sub9_nm5_bs15_s42_ex16_mel10_mts1000_k50_ec05_g099_lra3e-4_lrc9e-3/551c5941f3bf749be32b1159c48b101be233bdbe_ligand_9.pdbqt
 14 15 0 0 0
SMALL
GASTEIGER

@<TRIPOS>ATOM
      1  C          6.5350    1.3470    0.3690 C.3     1  UNL1        0.0800
      2  C          5.4200    1.1710    1.3210 C.2     1  UNL1        0.1300
      3  C          5.3640   -0.0510    2.1480 C.3     1  UNL1        0.0870
      4  O          4.5770    2.0300    1.4040 O.2     1  UNL1       -0.3000
      5  C          6.1430    0.9010   -1.0240 C.3     1  UNL1        0.0430
      6  C          6.9570   -0.2420   -1.4470 C.2     1  UNL1       -0.0440
      7  C          7.4420   -0.3120   -2.7360 C.2     1  UNL1        0.0080
      8  C          7.2650   -1.2800   -0.5860 C.2     1  UNL1        0.0540
      9  C          8.2180   -1.3810   -3.1780 C.2     1  UNL1        0.0510
     10  C          8.0390   -2.3620   -0.9990 C.2     1  UNL1        0.1660
     11  C          8.5100   -2.4030   -2.2950 C.2     1  UNL1        0.1650
     12  O          8.5000   -3.5210   -0.3740 O.2     1  UNL1       -0.4540
     13  O          9.2420   -3.5720   -2.4410 O.2     1  UNL1       -0.4540
     14  C          9.0200   -4.4210   -1.3180 C.3     1  UNL1        0.4680
@<TRIPOS>BOND
     1     9     7    1
     2     9    11    2
     3     7     6    2
     4    13    11    1
     5    13    14    1
     6    11    10    1
     7     6     5    1
     8     6     8    1
     9    14    12    1
    10     5     1    1
    11    10     8    2
    12    10    12    1
    13     1     2    1
    14     2     4    2
    15     2     3    1
