@<TRIPOS>MOLECULE
/home/cewinharhar/GITHUB/reincatalyze/data/processed/docking_pred/2023-May-31-1603_sub9_nm5_bs15_s42_ex16_mel10_mts1000_k50_ec05_g099_lra3e-4_lrc9e-3/551e6d8a024554ec32308953f7464105b503c37a_ligand_9.pdbqt
 14 15 0 0 0
SMALL
GASTEIGER

@<TRIPOS>ATOM
      1  C          5.6240    1.8210    1.3480 C.3     1  UNL1        0.0800
      2  C          5.1380    0.6260    2.0670 C.2     1  UNL1        0.1300
      3  C          6.0470   -0.5220    2.2540 C.3     1  UNL1        0.0870
      4  O          4.0070    0.6120    2.4860 O.2     1  UNL1       -0.3000
      5  C          5.4340    1.6780   -0.1470 C.3     1  UNL1        0.0430
      6  C          6.5600    0.9530   -0.7430 C.2     1  UNL1       -0.0440
      7  C          7.8500    1.4110   -0.5750 C.2     1  UNL1        0.0080
      8  C          6.3780   -0.2000   -1.4860 C.2     1  UNL1        0.0540
      9  C          8.9470    0.7530   -1.1240 C.2     1  UNL1        0.0510
     10  C          7.4560   -0.8800   -2.0480 C.2     1  UNL1        0.1660
     11  C          8.7340   -0.3970   -1.8610 C.2     1  UNL1        0.1650
     12  O          7.5790   -2.0340   -2.8220 O.2     1  UNL1       -0.4540
     13  O          9.6090   -1.2510   -2.5170 O.2     1  UNL1       -0.4540
     14  C          8.8740   -2.1380   -3.3560 C.3     1  UNL1        0.4680
@<TRIPOS>BOND
     1    14    12    1
     2    14    13    1
     3    12    10    1
     4    13    11    1
     5    10    11    2
     6    10     8    1
     7    11     9    1
     8     8     6    2
     9     9     7    2
    10     6     7    1
    11     6     5    1
    12     5     1    1
    13     1     2    1
    14     2     3    1
    15     2     4    2
