@<TRIPOS>MOLECULE
/home/cewinharhar/GITHUB/reincatalyze/data/processed/docking_pred/2023-May-31-1603_sub9_nm5_bs15_s42_ex16_mel10_mts1000_k50_ec05_g099_lra3e-4_lrc9e-3/57f45ec83c8c38489066d898ddae0638f0802b8b_ligand_9.pdbqt
 14 15 0 0 0
SMALL
GASTEIGER

@<TRIPOS>ATOM
      1  C          5.5270    1.9030    1.2740 C.3     1  UNL1        0.0800
      2  C          5.0660    0.7190    2.0250 C.2     1  UNL1        0.1300
      3  C          5.9860   -0.4220    2.2070 C.3     1  UNL1        0.0870
      4  O          3.9470    0.7070    2.4750 O.2     1  UNL1       -0.3000
      5  C          5.3590    1.7070   -0.2190 C.3     1  UNL1        0.0430
      6  C          6.5040    0.9810   -0.7750 C.2     1  UNL1       -0.0440
      7  C          7.7880    1.4410   -0.5680 C.2     1  UNL1        0.0080
      8  C          6.3480   -0.1760   -1.5180 C.2     1  UNL1        0.0540
      9  C          8.9020    0.7820   -1.0800 C.2     1  UNL1        0.0510
     10  C          7.4430   -0.8570   -2.0430 C.2     1  UNL1        0.1660
     11  C          8.7140   -0.3710   -1.8180 C.2     1  UNL1        0.1650
     12  O          7.5920   -2.0140   -2.8080 O.2     1  UNL1       -0.4540
     13  O          9.6100   -1.2270   -2.4430 O.2     1  UNL1       -0.4540
     14  C          8.9030   -2.1190   -3.3000 C.3     1  UNL1        0.4680
@<TRIPOS>BOND
     1    14    12    1
     2    14    13    1
     3    12    10    1
     4    13    11    1
     5    10    11    2
     6    10     8    1
     7    11     9    1
     8     8     6    2
     9     9     7    2
    10     6     7    1
    11     6     5    1
    12     5     1    1
    13     1     2    1
    14     2     3    1
    15     2     4    2
