@<TRIPOS>MOLECULE
/home/cewinharhar/GITHUB/reincatalyze/data/processed/docking_pred/2023-May-31-1603_sub9_nm5_bs15_s42_ex16_mel10_mts1000_k50_ec05_g099_lra3e-4_lrc9e-3/5b75af577ef835ce00aa8d26c7a8e436914f1267_ligand_9.pdbqt
 14 15 0 0 0
SMALL
GASTEIGER

@<TRIPOS>ATOM
      1  C          6.8030    0.7310    1.1460 C.3     1  UNL1        0.0800
      2  C          5.4080    1.1410    1.4020 C.2     1  UNL1        0.1300
      3  C          4.7800    2.1500    0.5250 C.3     1  UNL1        0.0870
      4  O          4.8080    0.6430    2.3220 O.2     1  UNL1       -0.3000
      5  C          7.1560    0.8710   -0.3200 C.3     1  UNL1        0.0430
      6  C          7.6380   -0.4050   -0.8580 C.2     1  UNL1       -0.0440
      7  C          7.8170   -0.5650   -2.2160 C.2     1  UNL1        0.0080
      8  C          7.9260   -1.4820   -0.0390 C.2     1  UNL1        0.0540
      9  C          8.2710   -1.7600   -2.7670 C.2     1  UNL1        0.0510
     10  C          8.3820   -2.6910   -0.5610 C.2     1  UNL1        0.1660
     11  C          8.5510   -2.8190   -1.9240 C.2     1  UNL1        0.1650
     12  O          8.7440   -3.9150   -0.0010 O.2     1  UNL1       -0.4540
     13  O          9.0080   -4.1050   -2.1730 O.2     1  UNL1       -0.4540
     14  C          8.8770   -4.8970   -0.9960 C.3     1  UNL1        0.4680
@<TRIPOS>BOND
     1     9     7    1
     2     9    11    2
     3     7     6    2
     4    13    11    1
     5    13    14    1
     6    11    10    1
     7    14    12    1
     8     6     5    1
     9     6     8    1
    10    10     8    2
    11    10    12    1
    12     5     1    1
    13     3     2    1
    14     1     2    1
    15     2     4    2
