@<TRIPOS>MOLECULE
/home/cewinharhar/GITHUB/reincatalyze/data/processed/docking_pred/2023-May-31-1603_sub9_nm5_bs15_s42_ex16_mel10_mts1000_k50_ec05_g099_lra3e-4_lrc9e-3/5ba5439e64352188cd964ddb86dd28d806e95272_ligand_9.pdbqt
 14 15 0 0 0
SMALL
GASTEIGER

@<TRIPOS>ATOM
      1  C          5.6730    1.2360   -0.2330 C.3     1  UNL1        0.0800
      2  C          5.0460    1.2310    1.1040 C.2     1  UNL1        0.1300
      3  C          5.3080    0.1020    2.0190 C.3     1  UNL1        0.0870
      4  O          4.3310    2.1490    1.4210 O.2     1  UNL1       -0.3000
      5  C          7.1770    1.0800   -0.1340 C.3     1  UNL1        0.0430
      6  C          7.6000   -0.2020   -0.7050 C.2     1  UNL1       -0.0440
      7  C          7.6420   -0.3750   -2.0730 C.2     1  UNL1        0.0080
      8  C          7.9680   -1.2720    0.0910 C.2     1  UNL1        0.0540
      9  C          8.0370   -1.5770   -2.6550 C.2     1  UNL1        0.0510
     10  C          8.3680   -2.4860   -0.4620 C.2     1  UNL1        0.1660
     11  C          8.3990   -2.6280   -1.8340 C.2     1  UNL1        0.1650
     12  O          8.7840   -3.7060    0.0710 O.2     1  UNL1       -0.4540
     13  O          8.8280   -3.9170   -2.1150 O.2     1  UNL1       -0.4540
     14  C          8.8150   -4.6980   -0.9230 C.3     1  UNL1        0.4680
@<TRIPOS>BOND
     1     9     7    1
     2     9    11    2
     3    13    11    1
     4    13    14    1
     5     7     6    2
     6    11    10    1
     7    14    12    1
     8     6     5    1
     9     6     8    1
    10    10    12    1
    11    10     8    2
    12     1     5    1
    13     1     2    1
    14     2     4    2
    15     2     3    1
