@<TRIPOS>MOLECULE
/home/cewinharhar/GITHUB/reincatalyze/data/processed/docking_pred/2023-May-31-1603_sub9_nm5_bs15_s42_ex16_mel10_mts1000_k50_ec05_g099_lra3e-4_lrc9e-3/5ba5439e64352188cd964ddb86dd28d806e95272_ligand_9.pdbqt
 14 15 0 0 0
SMALL
GASTEIGER

@<TRIPOS>ATOM
      1  C          5.3580   -0.1000    1.9200 C.3     1  UNL1        0.0800
      2  C          4.5830    1.1430    1.7310 C.2     1  UNL1        0.1300
      3  C          5.0330    2.1280    0.7270 C.3     1  UNL1        0.0870
      4  O          3.5970    1.3270    2.4010 O.2     1  UNL1       -0.3000
      5  C          6.8310    0.1260    1.6490 C.3     1  UNL1        0.0430
      6  C          7.3180   -0.8140    0.6350 C.2     1  UNL1       -0.0440
      7  C          7.2110   -0.5090   -0.7060 C.2     1  UNL1        0.0080
      8  C          7.8940   -2.0250    0.9760 C.2     1  UNL1        0.0540
      9  C          7.6610   -1.3750   -1.7000 C.2     1  UNL1        0.0510
     10  C          8.3530   -2.9110    0.0040 C.2     1  UNL1        0.1660
     11  C          8.2320   -2.5770   -1.3280 C.2     1  UNL1        0.1650
     12  O          8.9590   -4.1660    0.0440 O.2     1  UNL1       -0.4540
     13  O          8.7600   -3.6210   -2.0750 O.2     1  UNL1       -0.4540
     14  C          8.9770   -4.7500   -1.2330 C.3     1  UNL1        0.4680
@<TRIPOS>BOND
     1    13    11    1
     2    13    14    1
     3     9    11    2
     4     9     7    1
     5    11    10    1
     6    14    12    1
     7     7     6    2
     8    10    12    1
     9    10     8    2
    10     6     8    1
    11     6     5    1
    12     3     2    1
    13     5     1    1
    14     2     1    1
    15     2     4    2
