MODEL 1
REMARK VINA RESULT:      -7.5      0.000      0.000
REMARK SMILES CC(=O)CCc1ccc2c(c1)OCO2
REMARK SMILES IDX 4 1 2 2 1 3 3 4 5 5 6 6 7 7 11 8 8 9 10 10 9 11 12 12 14 13
REMARK SMILES IDX 13 14
REMARK H PARENT
REMARK Flexibility Score: inf
ROOT
ATOM      1  C   UNL     1       5.648   1.807   1.379  1.00  0.00     0.080 C 
ENDROOT
BRANCH   1   2
ATOM      2  C   UNL     1       5.151   0.606   2.080  1.00  0.00     0.130 C 
ATOM      3  C   UNL     1       6.055  -0.548   2.262  1.00  0.00     0.087 C 
ATOM      4  O   UNL     1       4.016   0.591   2.489  1.00  0.00    -0.300 OA
ENDBRANCH   1   2
BRANCH   1   5
ATOM      5  C   UNL     1       5.456   1.688  -0.118  1.00  0.00     0.043 C 
BRANCH   5   6
ATOM      6  C   UNL     1       6.575   0.961  -0.725  1.00  0.00    -0.044 A 
ATOM      7  C   UNL     1       7.868   1.414  -0.565  1.00  0.00     0.008 A 
ATOM      8  C   UNL     1       6.383  -0.189  -1.470  1.00  0.00     0.054 A 
ATOM      9  C   UNL     1       8.958   0.753  -1.126  1.00  0.00     0.051 A 
ATOM     10  C   UNL     1       7.454  -0.872  -2.042  1.00  0.00     0.166 A 
ATOM     11  C   UNL     1       8.735  -0.393  -1.864  1.00  0.00     0.165 A 
ATOM     12  O   UNL     1       7.567  -2.023  -2.821  1.00  0.00    -0.454 OA
ATOM     13  O   UNL     1       9.601  -1.249  -2.529  1.00  0.00    -0.454 OA
ATOM     14  C   UNL     1       8.857  -2.131  -3.365  1.00  0.00     0.468 C 
ENDBRANCH   5   6
ENDBRANCH   1   5
TORSDOF 3
ENDMDL
MODEL 2
REMARK VINA RESULT:      -7.3      1.962      2.378
REMARK SMILES CC(=O)CCc1ccc2c(c1)OCO2
REMARK SMILES IDX 4 1 2 2 1 3 3 4 5 5 6 6 7 7 11 8 8 9 10 10 9 11 12 12 14 13
REMARK SMILES IDX 13 14
REMARK H PARENT
REMARK Flexibility Score: inf
ROOT
ATOM      1  C   UNL     1       5.673   1.236  -0.233  1.00  0.00     0.080 C 
ENDROOT
BRANCH   1   2
ATOM      2  C   UNL     1       5.046   1.231   1.104  1.00  0.00     0.130 C 
ATOM      3  C   UNL     1       5.308   0.102   2.019  1.00  0.00     0.087 C 
ATOM      4  O   UNL     1       4.331   2.149   1.421  1.00  0.00    -0.300 OA
ENDBRANCH   1   2
BRANCH   1   5
ATOM      5  C   UNL     1       7.177   1.080  -0.134  1.00  0.00     0.043 C 
BRANCH   5   6
ATOM      6  C   UNL     1       7.600  -0.202  -0.705  1.00  0.00    -0.044 A 
ATOM      7  C   UNL     1       7.642  -0.375  -2.073  1.00  0.00     0.008 A 
ATOM      8  C   UNL     1       7.968  -1.272   0.091  1.00  0.00     0.054 A 
ATOM      9  C   UNL     1       8.037  -1.577  -2.655  1.00  0.00     0.051 A 
ATOM     10  C   UNL     1       8.368  -2.486  -0.462  1.00  0.00     0.166 A 
ATOM     11  C   UNL     1       8.399  -2.628  -1.834  1.00  0.00     0.165 A 
ATOM     12  O   UNL     1       8.784  -3.706   0.071  1.00  0.00    -0.454 OA
ATOM     13  O   UNL     1       8.828  -3.917  -2.115  1.00  0.00    -0.454 OA
ATOM     14  C   UNL     1       8.815  -4.698  -0.923  1.00  0.00     0.468 C 
ENDBRANCH   5   6
ENDBRANCH   1   5
TORSDOF 3
ENDMDL
MODEL 3
REMARK VINA RESULT:      -7.3      2.097      2.653
REMARK SMILES CC(=O)CCc1ccc2c(c1)OCO2
REMARK SMILES IDX 4 1 2 2 1 3 3 4 5 5 6 6 7 7 11 8 8 9 10 10 9 11 12 12 14 13
REMARK SMILES IDX 13 14
REMARK H PARENT
REMARK Flexibility Score: inf
ROOT
ATOM      1  C   UNL     1       5.358  -0.100   1.920  1.00  0.00     0.080 C 
ENDROOT
BRANCH   1   2
ATOM      2  C   UNL     1       4.583   1.143   1.731  1.00  0.00     0.130 C 
ATOM      3  C   UNL     1       5.033   2.128   0.727  1.00  0.00     0.087 C 
ATOM      4  O   UNL     1       3.597   1.327   2.401  1.00  0.00    -0.300 OA
ENDBRANCH   1   2
BRANCH   1   5
ATOM      5  C   UNL     1       6.831   0.126   1.649  1.00  0.00     0.043 C 
BRANCH   5   6
ATOM      6  C   UNL     1       7.318  -0.814   0.635  1.00  0.00    -0.044 A 
ATOM      7  C   UNL     1       7.211  -0.509  -0.706  1.00  0.00     0.008 A 
ATOM      8  C   UNL     1       7.894  -2.025   0.976  1.00  0.00     0.054 A 
ATOM      9  C   UNL     1       7.661  -1.375  -1.700  1.00  0.00     0.051 A 
ATOM     10  C   UNL     1       8.353  -2.911   0.004  1.00  0.00     0.166 A 
ATOM     11  C   UNL     1       8.232  -2.577  -1.328  1.00  0.00     0.165 A 
ATOM     12  O   UNL     1       8.959  -4.166   0.044  1.00  0.00    -0.454 OA
ATOM     13  O   UNL     1       8.760  -3.621  -2.075  1.00  0.00    -0.454 OA
ATOM     14  C   UNL     1       8.977  -4.750  -1.233  1.00  0.00     0.468 C 
ENDBRANCH   5   6
ENDBRANCH   1   5
TORSDOF 3
ENDMDL
MODEL 4
REMARK VINA RESULT:      -7.1      1.233      1.401
REMARK SMILES CC(=O)CCc1ccc2c(c1)OCO2
REMARK SMILES IDX 4 1 2 2 1 3 3 4 5 5 6 6 7 7 11 8 8 9 10 10 9 11 12 12 14 13
REMARK SMILES IDX 13 14
REMARK H PARENT
REMARK Flexibility Score: inf
ROOT
ATOM      1  C   UNL     1       6.292   1.254   0.990  1.00  0.00     0.080 C 
ENDROOT
BRANCH   1   2
ATOM      2  C   UNL     1       5.601   0.410   1.985  1.00  0.00     0.130 C 
ATOM      3  C   UNL     1       6.297  -0.769   2.539  1.00  0.00     0.087 C 
ATOM      4  O   UNL     1       4.481   0.701   2.326  1.00  0.00    -0.300 OA
ENDBRANCH   1   2
BRANCH   1   5
ATOM      5  C   UNL     1       5.784   0.979  -0.410  1.00  0.00     0.043 C 
BRANCH   5   6
ATOM      6  C   UNL     1       6.721   0.117  -1.137  1.00  0.00    -0.044 A 
ATOM      7  C   UNL     1       7.356   0.579  -2.271  1.00  0.00     0.008 A 
ATOM      8  C   UNL     1       7.002  -1.173  -0.723  1.00  0.00     0.054 A 
ATOM      9  C   UNL     1       8.252  -0.208  -2.990  1.00  0.00     0.051 A 
ATOM     10  C   UNL     1       7.893  -1.984  -1.421  1.00  0.00     0.166 A 
ATOM     11  C   UNL     1       8.512  -1.492  -2.552  1.00  0.00     0.165 A 
ATOM     12  O   UNL     1       8.360  -3.286  -1.249  1.00  0.00    -0.454 OA
ATOM     13  O   UNL     1       9.338  -2.491  -3.049  1.00  0.00    -0.454 OA
ATOM     14  C   UNL     1       9.049  -3.722  -2.393  1.00  0.00     0.468 C 
ENDBRANCH   5   6
ENDBRANCH   1   5
TORSDOF 3
ENDMDL
MODEL 5
REMARK VINA RESULT:      -7.1      1.976      2.562
REMARK SMILES CC(=O)CCc1ccc2c(c1)OCO2
REMARK SMILES IDX 4 1 2 2 1 3 3 4 5 5 6 6 7 7 11 8 8 9 10 10 9 11 12 12 14 13
REMARK SMILES IDX 13 14
REMARK H PARENT
REMARK Flexibility Score: inf
ROOT
ATOM      1  C   UNL     1       6.803   0.731   1.146  1.00  0.00     0.080 C 
ENDROOT
BRANCH   1   2
ATOM      2  C   UNL     1       5.408   1.141   1.402  1.00  0.00     0.130 C 
ATOM      3  C   UNL     1       4.780   2.150   0.525  1.00  0.00     0.087 C 
ATOM      4  O   UNL     1       4.808   0.643   2.322  1.00  0.00    -0.300 OA
ENDBRANCH   1   2
BRANCH   1   5
ATOM      5  C   UNL     1       7.156   0.871  -0.320  1.00  0.00     0.043 C 
BRANCH   5   6
ATOM      6  C   UNL     1       7.638  -0.405  -0.858  1.00  0.00    -0.044 A 
ATOM      7  C   UNL     1       7.817  -0.565  -2.216  1.00  0.00     0.008 A 
ATOM      8  C   UNL     1       7.926  -1.482  -0.039  1.00  0.00     0.054 A 
ATOM      9  C   UNL     1       8.271  -1.760  -2.767  1.00  0.00     0.051 A 
ATOM     10  C   UNL     1       8.382  -2.691  -0.561  1.00  0.00     0.166 A 
ATOM     11  C   UNL     1       8.551  -2.819  -1.924  1.00  0.00     0.165 A 
ATOM     12  O   UNL     1       8.744  -3.915  -0.001  1.00  0.00    -0.454 OA
ATOM     13  O   UNL     1       9.008  -4.105  -2.173  1.00  0.00    -0.454 OA
ATOM     14  C   UNL     1       8.877  -4.897  -0.996  1.00  0.00     0.468 C 
ENDBRANCH   5   6
ENDBRANCH   1   5
TORSDOF 3
ENDMDL
