@<TRIPOS>MOLECULE
/home/cewinharhar/GITHUB/reincatalyze/data/processed/docking_pred/2023-May-31-1603_sub9_nm5_bs15_s42_ex16_mel10_mts1000_k50_ec05_g099_lra3e-4_lrc9e-3/5be73a077ea639c014f12358d863af943f9e92ef_ligand_9.pdbqt
 14 15 0 0 0
SMALL
GASTEIGER

@<TRIPOS>ATOM
      1  C          6.7140    0.8270    1.3330 C.3     1  UNL1        0.0800
      2  C          5.2800    1.1460    1.4810 C.2     1  UNL1        0.1300
      3  C          4.6660    2.1450    0.5830 C.3     1  UNL1        0.0870
      4  O          4.6380    0.5840    2.3340 O.2     1  UNL1       -0.3000
      5  C          7.1700    1.0050   -0.1010 C.3     1  UNL1        0.0430
      6  C          7.5860   -0.2800   -0.6710 C.2     1  UNL1       -0.0440
      7  C          7.5780   -0.4700   -2.0380 C.2     1  UNL1        0.0080
      8  C          7.9950   -1.3360    0.1240 C.2     1  UNL1        0.0540
      9  C          7.9650   -1.6750   -2.6190 C.2     1  UNL1        0.0510
     10  C          8.3880   -2.5530   -0.4290 C.2     1  UNL1        0.1660
     11  C          8.3690   -2.7110   -1.7990 C.2     1  UNL1        0.1650
     12  O          8.8360   -3.7610    0.1030 O.2     1  UNL1       -0.4540
     13  O          8.8010   -4.0000   -2.0810 O.2     1  UNL1       -0.4540
     14  C          8.8410   -4.7650   -0.8800 C.3     1  UNL1        0.4680
@<TRIPOS>BOND
     1     9     7    1
     2     9    11    2
     3    13    11    1
     4    13    14    1
     5     7     6    2
     6    11    10    1
     7    14    12    1
     8     6     5    1
     9     6     8    1
    10    10    12    1
    11    10     8    2
    12     5     1    1
    13     3     2    1
    14     1     2    1
    15     2     4    2
