@<TRIPOS>MOLECULE
/home/cewinharhar/GITHUB/reincatalyze/data/processed/docking_pred/2023-May-31-1603_sub9_nm5_bs15_s42_ex16_mel10_mts1000_k50_ec05_g099_lra3e-4_lrc9e-3/5be73a077ea639c014f12358d863af943f9e92ef_ligand_9.pdbqt
 14 15 0 0 0
SMALL
GASTEIGER

@<TRIPOS>ATOM
      1  C          5.6220    1.1800   -0.2830 C.3     1  UNL1        0.0800
      2  C          5.1110    1.2000    1.1020 C.2     1  UNL1        0.1300
      3  C          5.3990    0.0570    1.9930 C.3     1  UNL1        0.0870
      4  O          4.4680    2.1490    1.4780 O.2     1  UNL1       -0.3000
      5  C          7.1350    1.1100   -0.3090 C.3     1  UNL1        0.0430
      6  C          7.5810   -0.1640   -0.8800 C.2     1  UNL1       -0.0440
      7  C          7.6520   -0.3280   -2.2480 C.2     1  UNL1        0.0080
      8  C          7.9430   -1.2370   -0.0840 C.2     1  UNL1        0.0540
      9  C          8.0700   -1.5210   -2.8300 C.2     1  UNL1        0.0510
     10  C          8.3650   -2.4430   -0.6380 C.2     1  UNL1        0.1660
     11  C          8.4250   -2.5750   -2.0090 C.2     1  UNL1        0.1650
     12  O          8.7810   -3.6640   -0.1050 O.2     1  UNL1       -0.4540
     13  O          8.8710   -3.8590   -2.2910 O.2     1  UNL1       -0.4540
     14  C          8.8410   -4.6480   -1.1050 C.3     1  UNL1        0.4680
@<TRIPOS>BOND
     1     9     7    1
     2     9    11    2
     3    13    11    1
     4    13    14    1
     5     7     6    2
     6    11    10    1
     7    14    12    1
     8     6     5    1
     9     6     8    1
    10    10    12    1
    11    10     8    2
    12     5     1    1
    13     1     2    1
    14     2     4    2
    15     2     3    1
