@<TRIPOS>MOLECULE
/home/cewinharhar/GITHUB/reincatalyze/data/processed/docking_pred/2023-May-31-1603_sub9_nm5_bs15_s42_ex16_mel10_mts1000_k50_ec05_g099_lra3e-4_lrc9e-3/5c54d156b22251270ecdcbd3d684e6dc7dd5ede7_ligand_9.pdbqt
 14 15 0 0 0
SMALL
GASTEIGER

@<TRIPOS>ATOM
      1  C          5.6330    1.8230    1.3440 C.3     1  UNL1        0.0800
      2  C          5.1350    0.6330    2.0630 C.2     1  UNL1        0.1300
      3  C          6.0350   -0.5220    2.2540 C.3     1  UNL1        0.0870
      4  O          4.0030    0.6290    2.4790 O.2     1  UNL1       -0.3000
      5  C          5.4480    1.6780   -0.1520 C.3     1  UNL1        0.0430
      6  C          6.5770    0.9520   -0.7420 C.2     1  UNL1       -0.0440
      7  C          7.8650    1.4200   -0.5840 C.2     1  UNL1        0.0080
      8  C          6.3990   -0.2100   -1.4720 C.2     1  UNL1        0.0540
      9  C          8.9640    0.7610   -1.1290 C.2     1  UNL1        0.0510
     10  C          7.4790   -0.8910   -2.0290 C.2     1  UNL1        0.1660
     11  C          8.7550   -0.3980   -1.8520 C.2     1  UNL1        0.1650
     12  O          7.6060   -2.0530   -2.7900 O.2     1  UNL1       -0.4540
     13  O          9.6320   -1.2550   -2.5010 O.2     1  UNL1       -0.4540
     14  C          8.9000   -2.1560   -3.3270 C.3     1  UNL1        0.4680
@<TRIPOS>BOND
     1    14    12    1
     2    14    13    1
     3    12    10    1
     4    13    11    1
     5    10    11    2
     6    10     8    1
     7    11     9    1
     8     8     6    2
     9     9     7    2
    10     6     7    1
    11     6     5    1
    12     5     1    1
    13     1     2    1
    14     2     3    1
    15     2     4    2
