MODEL 1
REMARK VINA RESULT:      -7.6      0.000      0.000
REMARK SMILES CC(=O)CCc1ccc2c(c1)OCO2
REMARK SMILES IDX 4 1 2 2 1 3 3 4 5 5 6 6 7 7 11 8 8 9 10 10 9 11 12 12 14 13
REMARK SMILES IDX 13 14
REMARK H PARENT
REMARK Flexibility Score: inf
ROOT
ATOM      1  C   UNL     1       5.517   1.903   1.320  1.00  0.00     0.080 C 
ENDROOT
BRANCH   1   2
ATOM      2  C   UNL     1       4.994   0.709   2.014  1.00  0.00     0.130 C 
ATOM      3  C   UNL     1       5.852  -0.486   2.137  1.00  0.00     0.087 C 
ATOM      4  O   UNL     1       3.877   0.735   2.467  1.00  0.00    -0.300 OA
ENDBRANCH   1   2
BRANCH   1   5
ATOM      5  C   UNL     1       5.364   1.776  -0.182  1.00  0.00     0.043 C 
BRANCH   5   6
ATOM      6  C   UNL     1       6.494   1.036  -0.753  1.00  0.00    -0.044 A 
ATOM      7  C   UNL     1       7.787   1.461  -0.533  1.00  0.00     0.008 A 
ATOM      8  C   UNL     1       6.311  -0.099  -1.523  1.00  0.00     0.054 A 
ATOM      9  C   UNL     1       8.887   0.787  -1.058  1.00  0.00     0.051 A 
ATOM     10  C   UNL     1       7.391  -0.794  -2.061  1.00  0.00     0.166 A 
ATOM     11  C   UNL     1       8.673  -0.343  -1.824  1.00  0.00     0.165 A 
ATOM     12  O   UNL     1       7.514  -1.936  -2.853  1.00  0.00    -0.454 OA
ATOM     13  O   UNL     1       9.550  -1.206  -2.466  1.00  0.00    -0.454 OA
ATOM     14  C   UNL     1       8.823  -2.061  -3.345  1.00  0.00     0.468 C 
ENDBRANCH   5   6
ENDBRANCH   1   5
TORSDOF 3
ENDMDL
MODEL 2
REMARK VINA RESULT:      -7.3      2.175      2.723
REMARK SMILES CC(=O)CCc1ccc2c(c1)OCO2
REMARK SMILES IDX 4 1 2 2 1 3 3 4 5 5 6 6 7 7 11 8 8 9 10 10 9 11 12 12 14 13
REMARK SMILES IDX 13 14
REMARK H PARENT
REMARK Flexibility Score: inf
ROOT
ATOM      1  C   UNL     1       5.326  -0.140   1.813  1.00  0.00     0.080 C 
ENDROOT
BRANCH   1   2
ATOM      2  C   UNL     1       4.573   1.112   1.603  1.00  0.00     0.130 C 
ATOM      3  C   UNL     1       5.011   2.048   0.548  1.00  0.00     0.087 C 
ATOM      4  O   UNL     1       3.614   1.345   2.297  1.00  0.00    -0.300 OA
ENDBRANCH   1   2
BRANCH   1   5
ATOM      5  C   UNL     1       6.808   0.065   1.579  1.00  0.00     0.043 C 
BRANCH   5   6
ATOM      6  C   UNL     1       7.307  -0.882   0.577  1.00  0.00    -0.044 A 
ATOM      7  C   UNL     1       7.192  -0.597  -0.768  1.00  0.00     0.008 A 
ATOM      8  C   UNL     1       7.903  -2.079   0.933  1.00  0.00     0.054 A 
ATOM      9  C   UNL     1       7.652  -1.469  -1.751  1.00  0.00     0.051 A 
ATOM     10  C   UNL     1       8.373  -2.971  -0.028  1.00  0.00     0.166 A 
ATOM     11  C   UNL     1       8.243  -2.657  -1.365  1.00  0.00     0.165 A 
ATOM     12  O   UNL     1       8.999  -4.216   0.027  1.00  0.00    -0.454 OA
ATOM     13  O   UNL     1       8.785  -3.703  -2.099  1.00  0.00    -0.454 OA
ATOM     14  C   UNL     1       9.022  -4.817  -1.243  1.00  0.00     0.468 C 
ENDBRANCH   5   6
ENDBRANCH   1   5
TORSDOF 3
ENDMDL
MODEL 3
REMARK VINA RESULT:      -7.3      1.881      2.313
REMARK SMILES CC(=O)CCc1ccc2c(c1)OCO2
REMARK SMILES IDX 4 1 2 2 1 3 3 4 5 5 6 6 7 7 11 8 8 9 10 10 9 11 12 12 14 13
REMARK SMILES IDX 13 14
REMARK H PARENT
REMARK Flexibility Score: inf
ROOT
ATOM      1  C   UNL     1       5.668   1.359  -0.313  1.00  0.00     0.080 C 
ENDROOT
BRANCH   1   2
ATOM      2  C   UNL     1       4.988   1.259   0.994  1.00  0.00     0.130 C 
ATOM      3  C   UNL     1       5.229   0.075   1.842  1.00  0.00     0.087 C 
ATOM      4  O   UNL     1       4.249   2.147   1.341  1.00  0.00    -0.300 OA
ENDBRANCH   1   2
BRANCH   1   5
ATOM      5  C   UNL     1       7.164   1.166  -0.170  1.00  0.00     0.043 C 
BRANCH   5   6
ATOM      6  C   UNL     1       7.581  -0.095  -0.789  1.00  0.00    -0.044 A 
ATOM      7  C   UNL     1       7.610  -0.221  -2.162  1.00  0.00     0.008 A 
ATOM      8  C   UNL     1       7.957  -1.193  -0.034  1.00  0.00     0.054 A 
ATOM      9  C   UNL     1       7.999  -1.402  -2.789  1.00  0.00     0.051 A 
ATOM     10  C   UNL     1       8.351  -2.387  -0.633  1.00  0.00     0.166 A 
ATOM     11  C   UNL     1       8.369  -2.481  -2.009  1.00  0.00     0.165 A 
ATOM     12  O   UNL     1       8.772  -3.624  -0.147  1.00  0.00    -0.454 OA
ATOM     13  O   UNL     1       8.794  -3.760  -2.339  1.00  0.00    -0.454 OA
ATOM     14  C   UNL     1       8.793  -4.581  -1.175  1.00  0.00     0.468 C 
ENDBRANCH   5   6
ENDBRANCH   1   5
TORSDOF 3
ENDMDL
MODEL 4
REMARK VINA RESULT:      -7.1      1.228      5.155
REMARK SMILES CC(=O)CCc1ccc2c(c1)OCO2
REMARK SMILES IDX 4 1 2 2 1 3 3 4 5 5 6 6 7 7 11 8 8 9 10 10 9 11 12 12 14 13
REMARK SMILES IDX 13 14
REMARK H PARENT
REMARK Flexibility Score: inf
ROOT
ATOM      1  C   UNL     1       8.205   0.187  -2.604  1.00  0.00     0.080 C 
ENDROOT
BRANCH   1   2
ATOM      2  C   UNL     1       7.876  -1.250  -2.689  1.00  0.00     0.130 C 
ATOM      3  C   UNL     1       8.949  -2.217  -2.997  1.00  0.00     0.087 C 
ATOM      4  O   UNL     1       6.738  -1.604  -2.505  1.00  0.00    -0.300 OA
ENDBRANCH   1   2
BRANCH   1   5
ATOM      5  C   UNL     1       8.774   0.541  -1.245  1.00  0.00     0.043 C 
BRANCH   5   6
ATOM      6  C   UNL     1       7.736   0.456  -0.214  1.00  0.00    -0.044 A 
ATOM      7  C   UNL     1       7.802  -0.516   0.763  1.00  0.00     0.008 A 
ATOM      8  C   UNL     1       6.665   1.332  -0.179  1.00  0.00     0.054 A 
ATOM      9  C   UNL     1       6.836  -0.630   1.759  1.00  0.00     0.051 A 
ATOM     10  C   UNL     1       5.684   1.242   0.805  1.00  0.00     0.166 A 
ATOM     11  C   UNL     1       5.778   0.259   1.768  1.00  0.00     0.165 A 
ATOM     12  O   UNL     1       4.524   1.963   1.088  1.00  0.00    -0.454 OA
ATOM     13  O   UNL     1       4.687   0.392   2.615  1.00  0.00    -0.454 OA
ATOM     14  C   UNL     1       3.742   1.291   2.041  1.00  0.00     0.468 C 
ENDBRANCH   5   6
ENDBRANCH   1   5
TORSDOF 3
ENDMDL
MODEL 5
REMARK VINA RESULT:      -7.1      1.293      1.505
REMARK SMILES CC(=O)CCc1ccc2c(c1)OCO2
REMARK SMILES IDX 4 1 2 2 1 3 3 4 5 5 6 6 7 7 11 8 8 9 10 10 9 11 12 12 14 13
REMARK SMILES IDX 13 14
REMARK H PARENT
REMARK Flexibility Score: inf
ROOT
ATOM      1  C   UNL     1       6.303   1.212   0.985  1.00  0.00     0.080 C 
ENDROOT
BRANCH   1   2
ATOM      2  C   UNL     1       5.589   0.384   1.978  1.00  0.00     0.130 C 
ATOM      3  C   UNL     1       6.255  -0.812   2.532  1.00  0.00     0.087 C 
ATOM      4  O   UNL     1       4.476   0.702   2.316  1.00  0.00    -0.300 OA
ENDBRANCH   1   2
BRANCH   1   5
ATOM      5  C   UNL     1       5.804   0.938  -0.419  1.00  0.00     0.043 C 
BRANCH   5   6
ATOM      6  C   UNL     1       6.743   0.075  -1.141  1.00  0.00    -0.044 A 
ATOM      7  C   UNL     1       7.382   0.535  -2.274  1.00  0.00     0.008 A 
ATOM      8  C   UNL     1       7.022  -1.214  -0.723  1.00  0.00     0.054 A 
ATOM      9  C   UNL     1       8.280  -0.254  -2.988  1.00  0.00     0.051 A 
ATOM     10  C   UNL     1       7.916  -2.026  -1.417  1.00  0.00     0.166 A 
ATOM     11  C   UNL     1       8.539  -1.537  -2.546  1.00  0.00     0.165 A 
ATOM     12  O   UNL     1       8.383  -3.328  -1.240  1.00  0.00    -0.454 OA
ATOM     13  O   UNL     1       9.367  -2.536  -3.038  1.00  0.00    -0.454 OA
ATOM     14  C   UNL     1       9.076  -3.767  -2.381  1.00  0.00     0.468 C 
ENDBRANCH   5   6
ENDBRANCH   1   5
TORSDOF 3
ENDMDL
