@<TRIPOS>MOLECULE
/home/cewinharhar/GITHUB/reincatalyze/data/processed/docking_pred/2023-May-31-1603_sub9_nm5_bs15_s42_ex16_mel10_mts1000_k50_ec05_g099_lra3e-4_lrc9e-3/5f7ce1df4e505eeb6c5bd28a98530cf3f623dbf2_ligand_9.pdbqt
 14 15 0 0 0
SMALL
GASTEIGER

@<TRIPOS>ATOM
      1  C          5.3260   -0.1400    1.8130 C.3     1  UNL1        0.0800
      2  C          4.5730    1.1120    1.6030 C.2     1  UNL1        0.1300
      3  C          5.0110    2.0480    0.5480 C.3     1  UNL1        0.0870
      4  O          3.6140    1.3450    2.2970 O.2     1  UNL1       -0.3000
      5  C          6.8080    0.0650    1.5790 C.3     1  UNL1        0.0430
      6  C          7.3070   -0.8820    0.5770 C.2     1  UNL1       -0.0440
      7  C          7.1920   -0.5970   -0.7680 C.2     1  UNL1        0.0080
      8  C          7.9030   -2.0790    0.9330 C.2     1  UNL1        0.0540
      9  C          7.6520   -1.4690   -1.7510 C.2     1  UNL1        0.0510
     10  C          8.3730   -2.9710   -0.0280 C.2     1  UNL1        0.1660
     11  C          8.2430   -2.6570   -1.3650 C.2     1  UNL1        0.1650
     12  O          8.9990   -4.2160    0.0270 O.2     1  UNL1       -0.4540
     13  O          8.7850   -3.7030   -2.0990 O.2     1  UNL1       -0.4540
     14  C          9.0220   -4.8170   -1.2430 C.3     1  UNL1        0.4680
@<TRIPOS>BOND
     1    13    11    1
     2    13    14    1
     3     9    11    2
     4     9     7    1
     5    11    10    1
     6    14    12    1
     7     7     6    2
     8    10    12    1
     9    10     8    2
    10     3     2    1
    11     6     8    1
    12     6     5    1
    13     5     1    1
    14     2     1    1
    15     2     4    2
