@<TRIPOS>MOLECULE
/home/cewinharhar/GITHUB/reincatalyze/data/processed/docking_pred/2023-May-31-1603_sub9_nm5_bs15_s42_ex16_mel10_mts1000_k50_ec05_g099_lra3e-4_lrc9e-3/5f7ce1df4e505eeb6c5bd28a98530cf3f623dbf2_ligand_9.pdbqt
 14 15 0 0 0
SMALL
GASTEIGER

@<TRIPOS>ATOM
      1  C          8.2050    0.1870   -2.6040 C.3     1  UNL1        0.0800
      2  C          7.8760   -1.2500   -2.6890 C.2     1  UNL1        0.1300
      3  C          8.9490   -2.2170   -2.9970 C.3     1  UNL1        0.0870
      4  O          6.7380   -1.6040   -2.5050 O.2     1  UNL1       -0.3000
      5  C          8.7740    0.5410   -1.2450 C.3     1  UNL1        0.0430
      6  C          7.7360    0.4560   -0.2140 C.2     1  UNL1       -0.0440
      7  C          7.8020   -0.5160    0.7630 C.2     1  UNL1        0.0080
      8  C          6.6650    1.3320   -0.1790 C.2     1  UNL1        0.0540
      9  C          6.8360   -0.6300    1.7590 C.2     1  UNL1        0.0510
     10  C          5.6840    1.2420    0.8050 C.2     1  UNL1        0.1660
     11  C          5.7780    0.2590    1.7680 C.2     1  UNL1        0.1650
     12  O          4.5240    1.9630    1.0880 O.2     1  UNL1       -0.4540
     13  O          4.6870    0.3920    2.6150 O.2     1  UNL1       -0.4540
     14  C          3.7420    1.2910    2.0410 C.3     1  UNL1        0.4680
@<TRIPOS>BOND
     1     3     2    1
     2     2     1    1
     3     2     4    2
     4     1     5    1
     5     5     6    1
     6     6     8    2
     7     6     7    1
     8     8    10    1
     9     7     9    2
    10    10    12    1
    11    10    11    2
    12    12    14    1
    13     9    11    1
    14    11    13    1
    15    14    13    1
