@<TRIPOS>MOLECULE
/home/cewinharhar/GITHUB/reincatalyze/data/processed/docking_pred/2023-May-31-1603_sub9_nm5_bs15_s42_ex16_mel10_mts1000_k50_ec05_g099_lra3e-4_lrc9e-3/5f7ce1df4e505eeb6c5bd28a98530cf3f623dbf2_ligand_9.pdbqt
 14 15 0 0 0
SMALL
GASTEIGER

@<TRIPOS>ATOM
      1  C          5.5170    1.9030    1.3200 C.3     1  UNL1        0.0800
      2  C          4.9940    0.7090    2.0140 C.2     1  UNL1        0.1300
      3  C          5.8520   -0.4860    2.1370 C.3     1  UNL1        0.0870
      4  O          3.8770    0.7350    2.4670 O.2     1  UNL1       -0.3000
      5  C          5.3640    1.7760   -0.1820 C.3     1  UNL1        0.0430
      6  C          6.4940    1.0360   -0.7530 C.2     1  UNL1       -0.0440
      7  C          7.7870    1.4610   -0.5330 C.2     1  UNL1        0.0080
      8  C          6.3110   -0.0990   -1.5230 C.2     1  UNL1        0.0540
      9  C          8.8870    0.7870   -1.0580 C.2     1  UNL1        0.0510
     10  C          7.3910   -0.7940   -2.0610 C.2     1  UNL1        0.1660
     11  C          8.6730   -0.3430   -1.8240 C.2     1  UNL1        0.1650
     12  O          7.5140   -1.9360   -2.8530 O.2     1  UNL1       -0.4540
     13  O          9.5500   -1.2060   -2.4660 O.2     1  UNL1       -0.4540
     14  C          8.8230   -2.0610   -3.3450 C.3     1  UNL1        0.4680
@<TRIPOS>BOND
     1    14    12    1
     2    14    13    1
     3    12    10    1
     4    13    11    1
     5    10    11    2
     6    10     8    1
     7    11     9    1
     8     8     6    2
     9     9     7    2
    10     6     7    1
    11     6     5    1
    12     5     1    1
    13     1     2    1
    14     2     3    1
    15     2     4    2
