@<TRIPOS>MOLECULE
/home/cewinharhar/GITHUB/reincatalyze/data/processed/docking_pred/2023-May-31-1603_sub9_nm5_bs15_s42_ex16_mel10_mts1000_k50_ec05_g099_lra3e-4_lrc9e-3/6047b5c71b47d2a809e14c46b0582b8ae3076bc9_ligand_9.pdbqt
 14 15 0 0 0
SMALL
GASTEIGER

@<TRIPOS>ATOM
      1  C          5.8850   -0.5350    2.1030 C.3     1  UNL1        0.0800
      2  C          4.9760    0.5900    1.8040 C.2     1  UNL1        0.1300
      3  C          5.2290    1.4230    0.6110 C.3     1  UNL1        0.0870
      4  O          4.0450    0.8050    2.5400 O.2     1  UNL1       -0.3000
      5  C          7.2950   -0.2400    1.6350 C.3     1  UNL1        0.0430
      6  C          7.6970   -1.1810    0.5850 C.2     1  UNL1       -0.0440
      7  C          7.5700   -0.8360   -0.7450 C.2     1  UNL1        0.0080
      8  C          8.2090   -2.4320    0.8790 C.2     1  UNL1        0.0540
      9  C          7.9390   -1.7000   -1.7720 C.2     1  UNL1        0.0510
     10  C          8.5870   -3.3180   -0.1270 C.2     1  UNL1        0.1660
     11  C          8.4480   -2.9430   -1.4470 C.2     1  UNL1        0.1650
     12  O          9.1190   -4.6070   -0.1360 O.2     1  UNL1       -0.4540
     13  O          8.8910   -3.9960   -2.2340 O.2     1  UNL1       -0.4540
     14  C          9.0650   -5.1580   -1.4270 C.3     1  UNL1        0.4680
@<TRIPOS>BOND
     1    13    11    1
     2    13    14    1
     3     9    11    2
     4     9     7    1
     5    11    10    1
     6    14    12    1
     7     7     6    2
     8    12    10    1
     9    10     8    2
    10     6     8    1
    11     6     5    1
    12     3     2    1
    13     5     1    1
    14     2     1    1
    15     2     4    2
