@<TRIPOS>MOLECULE
/home/cewinharhar/GITHUB/reincatalyze/data/processed/docking_pred/2023-May-31-1603_sub9_nm5_bs15_s42_ex16_mel10_mts1000_k50_ec05_g099_lra3e-4_lrc9e-3/6047b5c71b47d2a809e14c46b0582b8ae3076bc9_ligand_9.pdbqt
 14 15 0 0 0
SMALL
GASTEIGER

@<TRIPOS>ATOM
      1  C          5.8700    1.0620   -0.1650 C.3     1  UNL1        0.0800
      2  C          5.8760    1.0650    1.3110 C.2     1  UNL1        0.1300
      3  C          5.2940   -0.0820    2.0370 C.3     1  UNL1        0.0870
      4  O          6.3560    2.0050    1.8950 O.2     1  UNL1       -0.3000
      5  C          7.2780    1.1140   -0.7210 C.3     1  UNL1        0.0430
      6  C          7.7070   -0.2160   -1.1620 C.2     1  UNL1       -0.0440
      7  C          7.8270   -0.4980   -2.5070 C.2     1  UNL1        0.0080
      8  C          8.0020   -1.2270   -0.2640 C.2     1  UNL1        0.0540
      9  C          8.2300   -1.7490   -2.9680 C.2     1  UNL1        0.0510
     10  C          8.4080   -2.4870   -0.6950 C.2     1  UNL1        0.1660
     11  C          8.5190   -2.7380   -2.0470 C.2     1  UNL1        0.1650
     12  O          8.7630   -3.6680   -0.0440 O.2     1  UNL1       -0.4540
     13  O          8.9350   -4.0530   -2.2000 O.2     1  UNL1       -0.4540
     14  C          8.8330   -4.7360   -0.9530 C.3     1  UNL1        0.4680
@<TRIPOS>BOND
     1     9     7    1
     2     9    11    2
     3     7     6    2
     4    13    11    1
     5    13    14    1
     6    11    10    1
     7     6     5    1
     8     6     8    1
     9    14    12    1
    10     5     1    1
    11    10     8    2
    12    10    12    1
    13     1     2    1
    14     2     4    2
    15     2     3    1
