@<TRIPOS>MOLECULE
/home/cewinharhar/GITHUB/reincatalyze/data/processed/docking_pred/2023-May-31-1603_sub9_nm5_bs15_s42_ex16_mel10_mts1000_k50_ec05_g099_lra3e-4_lrc9e-3/6047b5c71b47d2a809e14c46b0582b8ae3076bc9_ligand_9.pdbqt
 14 15 0 0 0
SMALL
GASTEIGER

@<TRIPOS>ATOM
      1  C          5.8740    1.6340    1.3820 C.3     1  UNL1        0.0800
      2  C          5.3540    0.4510    2.0960 C.2     1  UNL1        0.1300
      3  C          6.2410   -0.7110    2.3080 C.3     1  UNL1        0.0870
      4  O          4.2140    0.4570    2.4920 O.2     1  UNL1       -0.3000
      5  C          5.6410    1.5210   -0.1100 C.3     1  UNL1        0.0430
      6  C          6.7420    0.7960   -0.7500 C.2     1  UNL1       -0.0440
      7  C          8.0270    1.2960   -0.6990 C.2     1  UNL1        0.0080
      8  C          6.5420   -0.3970   -1.4210 C.2     1  UNL1        0.0540
      9  C          9.1010    0.6390   -1.2950 C.2     1  UNL1        0.0510
     10  C          7.5960   -1.0770   -2.0260 C.2     1  UNL1        0.1660
     11  C          8.8700   -0.5520   -1.9570 C.2     1  UNL1        0.1650
     12  O          7.6980   -2.2650   -2.7500 O.2     1  UNL1       -0.4540
     13  O          9.7200   -1.4150   -2.6330 O.2     1  UNL1       -0.4540
     14  C          8.9540   -2.3630   -3.3710 C.3     1  UNL1        0.4680
@<TRIPOS>BOND
     1    14    12    1
     2    14    13    1
     3    12    10    1
     4    13    11    1
     5    10    11    2
     6    10     8    1
     7    11     9    1
     8     8     6    2
     9     9     7    2
    10     6     7    1
    11     6     5    1
    12     5     1    1
    13     1     2    1
    14     2     3    1
    15     2     4    2
