@<TRIPOS>MOLECULE
/home/cewinharhar/GITHUB/reincatalyze/data/processed/docking_pred/2023-May-31-1603_sub9_nm5_bs15_s42_ex16_mel10_mts1000_k50_ec05_g099_lra3e-4_lrc9e-3/6047b5c71b47d2a809e14c46b0582b8ae3076bc9_ligand_9.pdbqt
 14 15 0 0 0
SMALL
GASTEIGER

@<TRIPOS>ATOM
      1  C          6.6220    0.9510    1.0410 C.3     1  UNL1        0.0800
      2  C          5.6990    0.3230    2.0060 C.2     1  UNL1        0.1300
      3  C          4.2680    0.6880    1.9770 C.3     1  UNL1        0.0870
      4  O          6.1310   -0.4770    2.7980 O.2     1  UNL1       -0.3000
      5  C          6.2080    0.6580   -0.3870 C.3     1  UNL1        0.0430
      6  C          6.9400   -0.5000   -0.9080 C.2     1  UNL1       -0.0440
      7  C          7.1870   -0.6180   -2.2600 C.2     1  UNL1        0.0080
      8  C          7.4060   -1.5060   -0.0790 C.2     1  UNL1        0.0540
      9  C          7.8770   -1.7020   -2.7950 C.2     1  UNL1        0.0510
     10  C          8.1000   -2.6020   -0.5850 C.2     1  UNL1        0.1660
     11  C          8.3300   -2.6910   -1.9420 C.2     1  UNL1        0.1650
     12  O          8.6740   -3.7370   -0.0120 O.2     1  UNL1       -0.4540
     13  O          9.0320   -3.8640   -2.1750 O.2     1  UNL1       -0.4540
     14  C          9.0220   -4.6710   -1.0010 C.3     1  UNL1        0.4680
@<TRIPOS>BOND
     1     9     7    1
     2     9    11    2
     3     7     6    2
     4    13    11    1
     5    13    14    1
     6    11    10    1
     7    14    12    1
     8     6     5    1
     9     6     8    1
    10    10     8    2
    11    10    12    1
    12     5     1    1
    13     1     2    1
    14     3     2    1
    15     2     4    2
