@<TRIPOS>MOLECULE
/home/cewinharhar/GITHUB/reincatalyze/data/processed/docking_pred/2023-May-31-1603_sub9_nm5_bs15_s42_ex16_mel10_mts1000_k50_ec05_g099_lra3e-4_lrc9e-3/6047b5c71b47d2a809e14c46b0582b8ae3076bc9_ligand_9.pdbqt
 14 15 0 0 0
SMALL
GASTEIGER

@<TRIPOS>ATOM
      1  C          6.2420    1.3300    0.9390 C.3     1  UNL1        0.0800
      2  C          5.5870    0.4840    1.9560 C.2     1  UNL1        0.1300
      3  C          6.3210   -0.6700    2.5130 C.3     1  UNL1        0.0870
      4  O          4.4660    0.7520    2.3100 O.2     1  UNL1       -0.3000
      5  C          5.7370    1.0080   -0.4520 C.3     1  UNL1        0.0430
      6  C          6.6940    0.1530   -1.1620 C.2     1  UNL1       -0.0440
      7  C          7.3570    0.6260   -2.2760 C.2     1  UNL1        0.0080
      8  C          6.9650   -1.1400   -0.7520 C.2     1  UNL1        0.0540
      9  C          8.2720   -0.1540   -2.9780 C.2     1  UNL1        0.0510
     10  C          7.8760   -1.9430   -1.4340 C.2     1  UNL1        0.1660
     11  C          8.5230   -1.4420   -2.5440 C.2     1  UNL1        0.1650
     12  O          8.3410   -3.2470   -1.2610 O.2     1  UNL1       -0.4540
     13  O          9.3630   -2.4350   -3.0280 O.2     1  UNL1       -0.4540
     14  C          9.0590   -3.6720   -2.3900 C.3     1  UNL1        0.4680
@<TRIPOS>BOND
     1    13    11    1
     2    13    14    1
     3     9    11    2
     4     9     7    1
     5    11    10    1
     6    14    12    1
     7     7     6    2
     8    10    12    1
     9    10     8    2
    10     6     8    1
    11     6     5    1
    12     5     1    1
    13     1     2    1
    14     2     4    2
    15     2     3    1
