MODEL 1
REMARK VINA RESULT:      -7.4      0.000      0.000
REMARK SMILES CC(=O)CCc1ccc2c(c1)OCO2
REMARK SMILES IDX 4 1 2 2 1 3 3 4 5 5 6 6 7 7 11 8 8 9 10 10 9 11 12 12 14 13
REMARK SMILES IDX 13 14
REMARK H PARENT
REMARK Flexibility Score: inf
ROOT
ATOM      1  C   UNL     1       6.242   1.330   0.939  1.00  0.00     0.080 C 
ENDROOT
BRANCH   1   2
ATOM      2  C   UNL     1       5.587   0.484   1.956  1.00  0.00     0.130 C 
ATOM      3  C   UNL     1       6.321  -0.670   2.513  1.00  0.00     0.087 C 
ATOM      4  O   UNL     1       4.466   0.752   2.310  1.00  0.00    -0.300 OA
ENDBRANCH   1   2
BRANCH   1   5
ATOM      5  C   UNL     1       5.737   1.008  -0.452  1.00  0.00     0.043 C 
BRANCH   5   6
ATOM      6  C   UNL     1       6.694   0.153  -1.162  1.00  0.00    -0.044 A 
ATOM      7  C   UNL     1       7.357   0.626  -2.276  1.00  0.00     0.008 A 
ATOM      8  C   UNL     1       6.965  -1.140  -0.752  1.00  0.00     0.054 A 
ATOM      9  C   UNL     1       8.272  -0.154  -2.978  1.00  0.00     0.051 A 
ATOM     10  C   UNL     1       7.876  -1.943  -1.434  1.00  0.00     0.166 A 
ATOM     11  C   UNL     1       8.523  -1.442  -2.544  1.00  0.00     0.165 A 
ATOM     12  O   UNL     1       8.341  -3.247  -1.261  1.00  0.00    -0.454 OA
ATOM     13  O   UNL     1       9.363  -2.435  -3.028  1.00  0.00    -0.454 OA
ATOM     14  C   UNL     1       9.059  -3.672  -2.390  1.00  0.00     0.468 C 
ENDBRANCH   5   6
ENDBRANCH   1   5
TORSDOF 3
ENDMDL
MODEL 2
REMARK VINA RESULT:      -7.4      1.126      1.209
REMARK SMILES CC(=O)CCc1ccc2c(c1)OCO2
REMARK SMILES IDX 4 1 2 2 1 3 3 4 5 5 6 6 7 7 11 8 8 9 10 10 9 11 12 12 14 13
REMARK SMILES IDX 13 14
REMARK H PARENT
REMARK Flexibility Score: inf
ROOT
ATOM      1  C   UNL     1       5.874   1.634   1.382  1.00  0.00     0.080 C 
ENDROOT
BRANCH   1   2
ATOM      2  C   UNL     1       5.354   0.451   2.096  1.00  0.00     0.130 C 
ATOM      3  C   UNL     1       6.241  -0.711   2.308  1.00  0.00     0.087 C 
ATOM      4  O   UNL     1       4.214   0.457   2.492  1.00  0.00    -0.300 OA
ENDBRANCH   1   2
BRANCH   1   5
ATOM      5  C   UNL     1       5.641   1.521  -0.110  1.00  0.00     0.043 C 
BRANCH   5   6
ATOM      6  C   UNL     1       6.742   0.796  -0.750  1.00  0.00    -0.044 A 
ATOM      7  C   UNL     1       8.027   1.296  -0.699  1.00  0.00     0.008 A 
ATOM      8  C   UNL     1       6.542  -0.397  -1.421  1.00  0.00     0.054 A 
ATOM      9  C   UNL     1       9.101   0.639  -1.295  1.00  0.00     0.051 A 
ATOM     10  C   UNL     1       7.596  -1.077  -2.026  1.00  0.00     0.166 A 
ATOM     11  C   UNL     1       8.870  -0.552  -1.957  1.00  0.00     0.165 A 
ATOM     12  O   UNL     1       7.698  -2.265  -2.750  1.00  0.00    -0.454 OA
ATOM     13  O   UNL     1       9.720  -1.415  -2.633  1.00  0.00    -0.454 OA
ATOM     14  C   UNL     1       8.954  -2.363  -3.371  1.00  0.00     0.468 C 
ENDBRANCH   5   6
ENDBRANCH   1   5
TORSDOF 3
ENDMDL
MODEL 3
REMARK VINA RESULT:      -7.2      1.209      1.460
REMARK SMILES CC(=O)CCc1ccc2c(c1)OCO2
REMARK SMILES IDX 4 1 2 2 1 3 3 4 5 5 6 6 7 7 11 8 8 9 10 10 9 11 12 12 14 13
REMARK SMILES IDX 13 14
REMARK H PARENT
REMARK Flexibility Score: inf
ROOT
ATOM      1  C   UNL     1       5.870   1.062  -0.165  1.00  0.00     0.080 C 
ENDROOT
BRANCH   1   2
ATOM      2  C   UNL     1       5.876   1.065   1.311  1.00  0.00     0.130 C 
ATOM      3  C   UNL     1       5.294  -0.082   2.037  1.00  0.00     0.087 C 
ATOM      4  O   UNL     1       6.356   2.005   1.895  1.00  0.00    -0.300 OA
ENDBRANCH   1   2
BRANCH   1   5
ATOM      5  C   UNL     1       7.278   1.114  -0.721  1.00  0.00     0.043 C 
BRANCH   5   6
ATOM      6  C   UNL     1       7.707  -0.216  -1.162  1.00  0.00    -0.044 A 
ATOM      7  C   UNL     1       7.827  -0.498  -2.507  1.00  0.00     0.008 A 
ATOM      8  C   UNL     1       8.002  -1.227  -0.264  1.00  0.00     0.054 A 
ATOM      9  C   UNL     1       8.230  -1.749  -2.968  1.00  0.00     0.051 A 
ATOM     10  C   UNL     1       8.408  -2.487  -0.695  1.00  0.00     0.166 A 
ATOM     11  C   UNL     1       8.519  -2.738  -2.047  1.00  0.00     0.165 A 
ATOM     12  O   UNL     1       8.763  -3.668  -0.044  1.00  0.00    -0.454 OA
ATOM     13  O   UNL     1       8.935  -4.053  -2.200  1.00  0.00    -0.454 OA
ATOM     14  C   UNL     1       8.833  -4.736  -0.953  1.00  0.00     0.468 C 
ENDBRANCH   5   6
ENDBRANCH   1   5
TORSDOF 3
ENDMDL
MODEL 4
REMARK VINA RESULT:      -7.0      1.384      2.088
REMARK SMILES CC(=O)CCc1ccc2c(c1)OCO2
REMARK SMILES IDX 4 1 2 2 1 3 3 4 5 5 6 6 7 7 11 8 8 9 10 10 9 11 12 12 14 13
REMARK SMILES IDX 13 14
REMARK H PARENT
REMARK Flexibility Score: inf
ROOT
ATOM      1  C   UNL     1       5.885  -0.535   2.103  1.00  0.00     0.080 C 
ENDROOT
BRANCH   1   2
ATOM      2  C   UNL     1       4.976   0.590   1.804  1.00  0.00     0.130 C 
ATOM      3  C   UNL     1       5.229   1.423   0.611  1.00  0.00     0.087 C 
ATOM      4  O   UNL     1       4.045   0.805   2.540  1.00  0.00    -0.300 OA
ENDBRANCH   1   2
BRANCH   1   5
ATOM      5  C   UNL     1       7.295  -0.240   1.635  1.00  0.00     0.043 C 
BRANCH   5   6
ATOM      6  C   UNL     1       7.697  -1.181   0.585  1.00  0.00    -0.044 A 
ATOM      7  C   UNL     1       7.570  -0.836  -0.745  1.00  0.00     0.008 A 
ATOM      8  C   UNL     1       8.209  -2.432   0.879  1.00  0.00     0.054 A 
ATOM      9  C   UNL     1       7.939  -1.700  -1.772  1.00  0.00     0.051 A 
ATOM     10  C   UNL     1       8.587  -3.318  -0.127  1.00  0.00     0.166 A 
ATOM     11  C   UNL     1       8.448  -2.943  -1.447  1.00  0.00     0.165 A 
ATOM     12  O   UNL     1       9.119  -4.607  -0.136  1.00  0.00    -0.454 OA
ATOM     13  O   UNL     1       8.891  -3.996  -2.234  1.00  0.00    -0.454 OA
ATOM     14  C   UNL     1       9.065  -5.158  -1.427  1.00  0.00     0.468 C 
ENDBRANCH   5   6
ENDBRANCH   1   5
TORSDOF 3
ENDMDL
MODEL 5
REMARK VINA RESULT:      -6.7      1.170      1.413
REMARK SMILES CC(=O)CCc1ccc2c(c1)OCO2
REMARK SMILES IDX 4 1 2 2 1 3 3 4 5 5 6 6 7 7 11 8 8 9 10 10 9 11 12 12 14 13
REMARK SMILES IDX 13 14
REMARK H PARENT
REMARK Flexibility Score: inf
ROOT
ATOM      1  C   UNL     1       6.622   0.951   1.041  1.00  0.00     0.080 C 
ENDROOT
BRANCH   1   2
ATOM      2  C   UNL     1       5.699   0.323   2.006  1.00  0.00     0.130 C 
ATOM      3  C   UNL     1       4.268   0.688   1.977  1.00  0.00     0.087 C 
ATOM      4  O   UNL     1       6.131  -0.477   2.798  1.00  0.00    -0.300 OA
ENDBRANCH   1   2
BRANCH   1   5
ATOM      5  C   UNL     1       6.208   0.658  -0.387  1.00  0.00     0.043 C 
BRANCH   5   6
ATOM      6  C   UNL     1       6.940  -0.500  -0.908  1.00  0.00    -0.044 A 
ATOM      7  C   UNL     1       7.187  -0.618  -2.260  1.00  0.00     0.008 A 
ATOM      8  C   UNL     1       7.406  -1.506  -0.079  1.00  0.00     0.054 A 
ATOM      9  C   UNL     1       7.877  -1.702  -2.795  1.00  0.00     0.051 A 
ATOM     10  C   UNL     1       8.100  -2.602  -0.585  1.00  0.00     0.166 A 
ATOM     11  C   UNL     1       8.330  -2.691  -1.942  1.00  0.00     0.165 A 
ATOM     12  O   UNL     1       8.674  -3.737  -0.012  1.00  0.00    -0.454 OA
ATOM     13  O   UNL     1       9.032  -3.864  -2.175  1.00  0.00    -0.454 OA
ATOM     14  C   UNL     1       9.022  -4.671  -1.001  1.00  0.00     0.468 C 
ENDBRANCH   5   6
ENDBRANCH   1   5
TORSDOF 3
ENDMDL
