@<TRIPOS>MOLECULE
/home/cewinharhar/GITHUB/reincatalyze/data/processed/docking_pred/2023-May-31-1603_sub9_nm5_bs15_s42_ex16_mel10_mts1000_k50_ec05_g099_lra3e-4_lrc9e-3/62f66f9004302081042513b5faa006f3d97c65a4_ligand_9.pdbqt
 14 15 0 0 0
SMALL
GASTEIGER

@<TRIPOS>ATOM
      1  C          6.5290    1.3100    0.4090 C.3     1  UNL1        0.0800
      2  C          5.3510    1.2090    1.2940 C.2     1  UNL1        0.1300
      3  C          5.2000    0.0210    2.1600 C.3     1  UNL1        0.0870
      4  O          4.5370    2.0980    1.2930 O.2     1  UNL1       -0.3000
      5  C          6.2050    0.8360   -0.9920 C.3     1  UNL1        0.0430
      6  C          6.9620   -0.3770   -1.3140 C.2     1  UNL1       -0.0440
      7  C          7.3410   -0.6370   -2.6140 C.2     1  UNL1        0.0080
      8  C          7.3190   -1.2960   -0.3430 C.2     1  UNL1        0.0540
      9  C          8.0600   -1.7780   -2.9620 C.2     1  UNL1        0.0510
     10  C          8.0380   -2.4460   -0.6600 C.2     1  UNL1        0.1660
     11  C          8.4030   -2.6770   -1.9700 C.2     1  UNL1        0.1650
     12  O          8.5270   -3.5210    0.0820 O.2     1  UNL1       -0.4540
     13  O          9.1000   -3.8760   -2.0090 O.2     1  UNL1       -0.4540
     14  C          8.9530   -4.5570   -0.7650 C.3     1  UNL1        0.4680
@<TRIPOS>BOND
     1     9     7    1
     2     9    11    2
     3     7     6    2
     4    13    11    1
     5    13    14    1
     6    11    10    1
     7     6     5    1
     8     6     8    1
     9     5     1    1
    10    14    12    1
    11    10     8    2
    12    10    12    1
    13     1     2    1
    14     4     2    2
    15     2     3    1
