@<TRIPOS>MOLECULE
/home/cewinharhar/GITHUB/reincatalyze/data/processed/docking_pred/2023-May-31-1603_sub9_nm5_bs15_s42_ex16_mel10_mts1000_k50_ec05_g099_lra3e-4_lrc9e-3/62f66f9004302081042513b5faa006f3d97c65a4_ligand_9.pdbqt
 14 15 0 0 0
SMALL
GASTEIGER

@<TRIPOS>ATOM
      1  C          5.5140    0.0340    1.8920 C.3     1  UNL1        0.0800
      2  C          4.6450    1.1930    1.6070 C.2     1  UNL1        0.1300
      3  C          5.0130    2.1190    0.5170 C.3     1  UNL1        0.0870
      4  O          3.6510    1.3590    2.2690 O.2     1  UNL1       -0.3000
      5  C          6.9400    0.2960    1.4540 C.3     1  UNL1        0.0430
      6  C          7.3750   -0.7140    0.4860 C.2     1  UNL1       -0.0440
      7  C          7.2150   -0.4970   -0.8670 C.2     1  UNL1        0.0080
      8  C          7.9550   -1.9070    0.8820 C.2     1  UNL1        0.0540
      9  C          7.6140   -1.4310   -1.8190 C.2     1  UNL1        0.0510
     10  C          8.3640   -2.8600   -0.0480 C.2     1  UNL1        0.1660
     11  C          8.1900   -2.6130   -1.3930 C.2     1  UNL1        0.1650
     12  O          8.9610   -4.1170    0.0490 O.2     1  UNL1       -0.4540
     13  O          8.6760   -3.7090   -2.0900 O.2     1  UNL1       -0.4540
     14  C          8.9190   -4.7830   -1.1860 C.3     1  UNL1        0.4680
@<TRIPOS>BOND
     1    13    11    1
     2    13    14    1
     3     9    11    2
     4     9     7    1
     5    11    10    1
     6    14    12    1
     7     7     6    2
     8    10    12    1
     9    10     8    2
    10     6     8    1
    11     6     5    1
    12     3     2    1
    13     5     1    1
    14     2     1    1
    15     2     4    2
