MODEL 1
REMARK VINA RESULT:      -7.5      0.000      0.000
REMARK SMILES CC(=O)CCc1ccc2c(c1)OCO2
REMARK SMILES IDX 4 1 2 2 1 3 3 4 5 5 6 6 7 7 11 8 8 9 10 10 9 11 12 12 14 13
REMARK SMILES IDX 13 14
REMARK H PARENT
REMARK Flexibility Score: inf
ROOT
ATOM      1  C   UNL     1       5.613   1.821   1.341  1.00  0.00     0.080 C 
ENDROOT
BRANCH   1   2
ATOM      2  C   UNL     1       5.131   0.626   2.063  1.00  0.00     0.130 C 
ATOM      3  C   UNL     1       6.036  -0.528   2.233  1.00  0.00     0.087 C 
ATOM      4  O   UNL     1       4.006   0.617   2.499  1.00  0.00    -0.300 OA
ENDBRANCH   1   2
BRANCH   1   5
ATOM      5  C   UNL     1       5.430   1.669  -0.155  1.00  0.00     0.043 C 
BRANCH   5   6
ATOM      6  C   UNL     1       6.563   0.946  -0.742  1.00  0.00    -0.044 A 
ATOM      7  C   UNL     1       7.851   1.410  -0.567  1.00  0.00     0.008 A 
ATOM      8  C   UNL     1       6.390  -0.210  -1.482  1.00  0.00     0.054 A 
ATOM      9  C   UNL     1       8.953   0.754  -1.108  1.00  0.00     0.051 A 
ATOM     10  C   UNL     1       7.474  -0.888  -2.035  1.00  0.00     0.166 A 
ATOM     11  C   UNL     1       8.749  -0.399  -1.843  1.00  0.00     0.165 A 
ATOM     12  O   UNL     1       7.606  -2.043  -2.806  1.00  0.00    -0.454 OA
ATOM     13  O   UNL     1       9.631  -1.252  -2.491  1.00  0.00    -0.454 OA
ATOM     14  C   UNL     1       8.904  -2.144  -3.331  1.00  0.00     0.468 C 
ENDBRANCH   5   6
ENDBRANCH   1   5
TORSDOF 3
ENDMDL
MODEL 2
REMARK VINA RESULT:      -7.4      1.865      2.324
REMARK SMILES CC(=O)CCc1ccc2c(c1)OCO2
REMARK SMILES IDX 4 1 2 2 1 3 3 4 5 5 6 6 7 7 11 8 8 9 10 10 9 11 12 12 14 13
REMARK SMILES IDX 13 14
REMARK H PARENT
REMARK Flexibility Score: inf
ROOT
ATOM      1  C   UNL     1       5.603   1.268  -0.255  1.00  0.00     0.080 C 
ENDROOT
BRANCH   1   2
ATOM      2  C   UNL     1       5.037   1.227   1.108  1.00  0.00     0.130 C 
ATOM      3  C   UNL     1       5.366   0.089   1.991  1.00  0.00     0.087 C 
ATOM      4  O   UNL     1       4.318   2.123   1.473  1.00  0.00    -0.300 OA
ENDBRANCH   1   2
BRANCH   1   5
ATOM      5  C   UNL     1       7.111   1.128  -0.228  1.00  0.00     0.043 C 
BRANCH   5   6
ATOM      6  C   UNL     1       7.520  -0.156  -0.803  1.00  0.00    -0.044 A 
ATOM      7  C   UNL     1       7.463  -0.358  -2.166  1.00  0.00     0.008 A 
ATOM      8  C   UNL     1       7.971  -1.201  -0.016  1.00  0.00     0.054 A 
ATOM      9  C   UNL     1       7.842  -1.564  -2.752  1.00  0.00     0.051 A 
ATOM     10  C   UNL     1       8.357  -2.418  -0.573  1.00  0.00     0.166 A 
ATOM     11  C   UNL     1       8.288  -2.589  -1.940  1.00  0.00     0.165 A 
ATOM     12  O   UNL     1       8.839  -3.617  -0.048  1.00  0.00    -0.454 OA
ATOM     13  O   UNL     1       8.724  -3.874  -2.227  1.00  0.00    -0.454 OA
ATOM     14  C   UNL     1       8.819  -4.629  -1.022  1.00  0.00     0.468 C 
ENDBRANCH   5   6
ENDBRANCH   1   5
TORSDOF 3
ENDMDL
MODEL 3
REMARK VINA RESULT:      -7.3      2.043      2.628
REMARK SMILES CC(=O)CCc1ccc2c(c1)OCO2
REMARK SMILES IDX 4 1 2 2 1 3 3 4 5 5 6 6 7 7 11 8 8 9 10 10 9 11 12 12 14 13
REMARK SMILES IDX 13 14
REMARK H PARENT
REMARK Flexibility Score: inf
ROOT
ATOM      1  C   UNL     1       5.337  -0.054   1.983  1.00  0.00     0.080 C 
ENDROOT
BRANCH   1   2
ATOM      2  C   UNL     1       4.524   1.159   1.768  1.00  0.00     0.130 C 
ATOM      3  C   UNL     1       4.924   2.118   0.719  1.00  0.00     0.087 C 
ATOM      4  O   UNL     1       3.550   1.343   2.455  1.00  0.00    -0.300 OA
ENDBRANCH   1   2
BRANCH   1   5
ATOM      5  C   UNL     1       6.793   0.194   1.646  1.00  0.00     0.043 C 
BRANCH   5   6
ATOM      6  C   UNL     1       7.257  -0.759   0.633  1.00  0.00    -0.044 A 
ATOM      7  C   UNL     1       7.081  -0.489  -0.708  1.00  0.00     0.008 A 
ATOM      8  C   UNL     1       7.878  -1.947   0.975  1.00  0.00     0.054 A 
ATOM      9  C   UNL     1       7.506  -1.368  -1.702  1.00  0.00     0.051 A 
ATOM     10  C   UNL     1       8.315  -2.845   0.003  1.00  0.00     0.166 A 
ATOM     11  C   UNL     1       8.124  -2.546  -1.330  1.00  0.00     0.165 A 
ATOM     12  O   UNL     1       8.954  -4.083   0.043  1.00  0.00    -0.454 OA
ATOM     13  O   UNL     1       8.643  -3.595  -2.076  1.00  0.00    -0.454 OA
ATOM     14  C   UNL     1       8.928  -4.697  -1.219  1.00  0.00     0.468 C 
ENDBRANCH   5   6
ENDBRANCH   1   5
TORSDOF 3
ENDMDL
MODEL 4
REMARK VINA RESULT:      -7.1      1.221      1.380
REMARK SMILES CC(=O)CCc1ccc2c(c1)OCO2
REMARK SMILES IDX 4 1 2 2 1 3 3 4 5 5 6 6 7 7 11 8 8 9 10 10 9 11 12 12 14 13
REMARK SMILES IDX 13 14
REMARK H PARENT
REMARK Flexibility Score: inf
ROOT
ATOM      1  C   UNL     1       6.262   1.270   1.006  1.00  0.00     0.080 C 
ENDROOT
BRANCH   1   2
ATOM      2  C   UNL     1       5.586   0.406   1.995  1.00  0.00     0.130 C 
ATOM      3  C   UNL     1       6.295  -0.776   2.524  1.00  0.00     0.087 C 
ATOM      4  O   UNL     1       4.468   0.685   2.352  1.00  0.00    -0.300 OA
ENDBRANCH   1   2
BRANCH   1   5
ATOM      5  C   UNL     1       5.762   0.993  -0.397  1.00  0.00     0.043 C 
BRANCH   5   6
ATOM      6  C   UNL     1       6.703   0.133  -1.119  1.00  0.00    -0.044 A 
ATOM      7  C   UNL     1       7.344   0.596  -2.249  1.00  0.00     0.008 A 
ATOM      8  C   UNL     1       6.982  -1.158  -0.704  1.00  0.00     0.054 A 
ATOM      9  C   UNL     1       8.244  -0.190  -2.964  1.00  0.00     0.051 A 
ATOM     10  C   UNL     1       7.878  -1.967  -1.398  1.00  0.00     0.166 A 
ATOM     11  C   UNL     1       8.503  -1.475  -2.525  1.00  0.00     0.165 A 
ATOM     12  O   UNL     1       8.345  -3.270  -1.224  1.00  0.00    -0.454 OA
ATOM     13  O   UNL     1       9.332  -2.472  -3.018  1.00  0.00    -0.454 OA
ATOM     14  C   UNL     1       9.040  -3.704  -2.365  1.00  0.00     0.468 C 
ENDBRANCH   5   6
ENDBRANCH   1   5
TORSDOF 3
ENDMDL
MODEL 5
REMARK VINA RESULT:      -7.1      1.955      2.515
REMARK SMILES CC(=O)CCc1ccc2c(c1)OCO2
REMARK SMILES IDX 4 1 2 2 1 3 3 4 5 5 6 6 7 7 11 8 8 9 10 10 9 11 12 12 14 13
REMARK SMILES IDX 13 14
REMARK H PARENT
REMARK Flexibility Score: inf
ROOT
ATOM      1  C   UNL     1       6.785   0.741   1.237  1.00  0.00     0.080 C 
ENDROOT
BRANCH   1   2
ATOM      2  C   UNL     1       5.380   1.157   1.423  1.00  0.00     0.130 C 
ATOM      3  C   UNL     1       4.794   2.150   0.501  1.00  0.00     0.087 C 
ATOM      4  O   UNL     1       4.740   0.677   2.326  1.00  0.00    -0.300 OA
ENDBRANCH   1   2
BRANCH   1   5
ATOM      5  C   UNL     1       7.227   0.931  -0.199  1.00  0.00     0.043 C 
BRANCH   5   6
ATOM      6  C   UNL     1       7.680  -0.341  -0.771  1.00  0.00    -0.044 A 
ATOM      7  C   UNL     1       7.843  -0.472  -2.134  1.00  0.00     0.008 A 
ATOM      8  C   UNL     1       7.955  -1.442   0.020  1.00  0.00     0.054 A 
ATOM      9  C   UNL     1       8.270  -1.663  -2.717  1.00  0.00     0.051 A 
ATOM     10  C   UNL     1       8.384  -2.646  -0.534  1.00  0.00     0.166 A 
ATOM     11  C   UNL     1       8.538  -2.746  -1.902  1.00  0.00     0.165 A 
ATOM     12  O   UNL     1       8.729  -3.890  -0.006  1.00  0.00    -0.454 OA
ATOM     13  O   UNL     1       8.969  -4.034  -2.185  1.00  0.00    -0.454 OA
ATOM     14  C   UNL     1       8.834  -4.851  -1.025  1.00  0.00     0.468 C 
ENDBRANCH   5   6
ENDBRANCH   1   5
TORSDOF 3
ENDMDL
