@<TRIPOS>MOLECULE
/home/cewinharhar/GITHUB/reincatalyze/data/processed/docking_pred/2023-May-31-1603_sub9_nm5_bs15_s42_ex16_mel10_mts1000_k50_ec05_g099_lra3e-4_lrc9e-3/64ade7361adfbcba1ebdf367c3e16aacabd62181_ligand_9.pdbqt
 14 15 0 0 0
SMALL
GASTEIGER

@<TRIPOS>ATOM
      1  C          6.7850    0.7410    1.2370 C.3     1  UNL1        0.0800
      2  C          5.3800    1.1570    1.4230 C.2     1  UNL1        0.1300
      3  C          4.7940    2.1500    0.5010 C.3     1  UNL1        0.0870
      4  O          4.7400    0.6770    2.3260 O.2     1  UNL1       -0.3000
      5  C          7.2270    0.9310   -0.1990 C.3     1  UNL1        0.0430
      6  C          7.6800   -0.3410   -0.7710 C.2     1  UNL1       -0.0440
      7  C          7.8430   -0.4720   -2.1340 C.2     1  UNL1        0.0080
      8  C          7.9550   -1.4420    0.0200 C.2     1  UNL1        0.0540
      9  C          8.2700   -1.6630   -2.7170 C.2     1  UNL1        0.0510
     10  C          8.3840   -2.6460   -0.5340 C.2     1  UNL1        0.1660
     11  C          8.5380   -2.7460   -1.9020 C.2     1  UNL1        0.1650
     12  O          8.7290   -3.8900   -0.0060 O.2     1  UNL1       -0.4540
     13  O          8.9690   -4.0340   -2.1850 O.2     1  UNL1       -0.4540
     14  C          8.8340   -4.8510   -1.0250 C.3     1  UNL1        0.4680
@<TRIPOS>BOND
     1     9     7    1
     2     9    11    2
     3    13    11    1
     4    13    14    1
     5     7     6    2
     6    11    10    1
     7    14    12    1
     8     6     5    1
     9     6     8    1
    10    10    12    1
    11    10     8    2
    12     5     1    1
    13     3     2    1
    14     1     2    1
    15     2     4    2
