@<TRIPOS>MOLECULE
/home/cewinharhar/GITHUB/reincatalyze/data/processed/docking_pred/2023-May-31-1603_sub9_nm5_bs15_s42_ex16_mel10_mts1000_k50_ec05_g099_lra3e-4_lrc9e-3/64ade7361adfbcba1ebdf367c3e16aacabd62181_ligand_9.pdbqt
 14 15 0 0 0
SMALL
GASTEIGER

@<TRIPOS>ATOM
      1  C          5.6030    1.2680   -0.2550 C.3     1  UNL1        0.0800
      2  C          5.0370    1.2270    1.1080 C.2     1  UNL1        0.1300
      3  C          5.3660    0.0890    1.9910 C.3     1  UNL1        0.0870
      4  O          4.3180    2.1230    1.4730 O.2     1  UNL1       -0.3000
      5  C          7.1110    1.1280   -0.2280 C.3     1  UNL1        0.0430
      6  C          7.5200   -0.1560   -0.8030 C.2     1  UNL1       -0.0440
      7  C          7.4630   -0.3580   -2.1660 C.2     1  UNL1        0.0080
      8  C          7.9710   -1.2010   -0.0160 C.2     1  UNL1        0.0540
      9  C          7.8420   -1.5640   -2.7520 C.2     1  UNL1        0.0510
     10  C          8.3570   -2.4180   -0.5730 C.2     1  UNL1        0.1660
     11  C          8.2880   -2.5890   -1.9400 C.2     1  UNL1        0.1650
     12  O          8.8390   -3.6170   -0.0480 O.2     1  UNL1       -0.4540
     13  O          8.7240   -3.8740   -2.2270 O.2     1  UNL1       -0.4540
     14  C          8.8190   -4.6290   -1.0220 C.3     1  UNL1        0.4680
@<TRIPOS>BOND
     1     9     7    1
     2     9    11    2
     3    13    11    1
     4    13    14    1
     5     7     6    2
     6    11    10    1
     7    14    12    1
     8     6     5    1
     9     6     8    1
    10    10    12    1
    11    10     8    2
    12     1     5    1
    13     1     2    1
    14     2     4    2
    15     2     3    1
