@<TRIPOS>MOLECULE
/home/cewinharhar/GITHUB/reincatalyze/data/processed/docking_pred/2023-May-31-1603_sub9_nm5_bs15_s42_ex16_mel10_mts1000_k50_ec05_g099_lra3e-4_lrc9e-3/650932a4c96e02f0afcc120cab6b741f416c7ae8_ligand_9.pdbqt
 14 15 0 0 0
SMALL
GASTEIGER

@<TRIPOS>ATOM
      1  C          6.6040    1.2630    0.4280 C.3     1  UNL1        0.0800
      2  C          5.4840    1.0710    1.3710 C.2     1  UNL1        0.1300
      3  C          5.4540   -0.1390    2.2170 C.3     1  UNL1        0.0870
      4  O          4.6160    1.9060    1.4300 O.2     1  UNL1       -0.3000
      5  C          6.2310    0.8100   -0.9680 C.3     1  UNL1        0.0430
      6  C          7.0010   -0.3780   -1.3470 C.2     1  UNL1       -0.0440
      7  C          7.3910   -0.5670   -2.6560 C.2     1  UNL1        0.0080
      8  C          7.3620   -1.3430   -0.4220 C.2     1  UNL1        0.0540
      9  C          8.1220   -1.6820   -3.0570 C.2     1  UNL1        0.0510
     10  C          8.0930   -2.4690   -0.7930 C.2     1  UNL1        0.1660
     11  C          8.4680   -2.6290   -2.1110 C.2     1  UNL1        0.1650
     12  O          8.5870   -3.5760   -0.1050 O.2     1  UNL1       -0.4540
     13  O          9.1760   -3.8180   -2.2070 O.2     1  UNL1       -0.4540
     14  C          9.0280   -4.5630   -1.0010 C.3     1  UNL1        0.4680
@<TRIPOS>BOND
     1     9     7    1
     2     9    11    2
     3     7     6    2
     4    13    11    1
     5    13    14    1
     6    11    10    1
     7     6     5    1
     8     6     8    1
     9    14    12    1
    10     5     1    1
    11    10     8    2
    12    10    12    1
    13     1     2    1
    14     2     4    2
    15     2     3    1
