@<TRIPOS>MOLECULE
/home/cewinharhar/GITHUB/reincatalyze/data/processed/docking_pred/2023-May-31-1603_sub9_nm5_bs15_s42_ex16_mel10_mts1000_k50_ec05_g099_lra3e-4_lrc9e-3/650932a4c96e02f0afcc120cab6b741f416c7ae8_ligand_9.pdbqt
 14 15 0 0 0
SMALL
GASTEIGER

@<TRIPOS>ATOM
      1  C          6.7120    0.8500    1.2560 C.3     1  UNL1        0.0800
      2  C          5.2790    1.1680    1.4140 C.2     1  UNL1        0.1300
      3  C          4.6530    2.1470    0.5020 C.3     1  UNL1        0.0870
      4  O          4.6480    0.6210    2.2850 O.2     1  UNL1       -0.3000
      5  C          7.1490    0.9900   -0.1870 C.3     1  UNL1        0.0430
      6  C          7.6000   -0.3010   -0.7160 C.2     1  UNL1       -0.0440
      7  C          7.6810   -0.5060   -2.0780 C.2     1  UNL1        0.0080
      8  C          7.9560   -1.3480    0.1150 C.2     1  UNL1        0.0540
      9  C          8.1040   -1.7160   -2.6200 C.2     1  UNL1        0.0510
     10  C          8.3830   -2.5710   -0.3980 C.2     1  UNL1        0.1660
     11  C          8.4530   -2.7440   -1.7650 C.2     1  UNL1        0.1650
     12  O          8.7950   -3.7740    0.1750 O.2     1  UNL1       -0.4540
     13  O          8.9010   -4.0360   -2.0040 O.2     1  UNL1       -0.4540
     14  C          8.8630   -4.7880   -0.7940 C.3     1  UNL1        0.4680
@<TRIPOS>BOND
     1     9     7    1
     2     9    11    2
     3     7     6    2
     4    13    11    1
     5    13    14    1
     6    11    10    1
     7    14    12    1
     8     6     5    1
     9     6     8    1
    10    10     8    2
    11    10    12    1
    12     5     1    1
    13     3     2    1
    14     1     2    1
    15     2     4    2
