@<TRIPOS>MOLECULE
/home/cewinharhar/GITHUB/reincatalyze/data/processed/docking_pred/2023-May-31-1603_sub9_nm5_bs15_s42_ex16_mel10_mts1000_k50_ec05_g099_lra3e-4_lrc9e-3/650932a4c96e02f0afcc120cab6b741f416c7ae8_ligand_9.pdbqt
 14 15 0 0 0
SMALL
GASTEIGER

@<TRIPOS>ATOM
      1  C          5.3130   -0.1300    1.9080 C.3     1  UNL1        0.0800
      2  C          4.5600    1.1250    1.7100 C.2     1  UNL1        0.1300
      3  C          5.0150    2.0840    0.6830 C.3     1  UNL1        0.0870
      4  O          3.5880    1.3420    2.3910 O.2     1  UNL1       -0.3000
      5  C          6.7970    0.0810    1.6920 C.3     1  UNL1        0.0430
      6  C          7.3050   -0.8420    0.6730 C.2     1  UNL1       -0.0440
      7  C          7.2280   -0.5140   -0.6640 C.2     1  UNL1        0.0080
      8  C          7.8720   -2.0600    1.0060 C.2     1  UNL1        0.0540
      9  C          7.6970   -1.3630   -1.6630 C.2     1  UNL1        0.0510
     10  C          8.3510   -2.9300    0.0290 C.2     1  UNL1        0.1660
     11  C          8.2590   -2.5730   -1.3000 C.2     1  UNL1        0.1650
     12  O          8.9550   -4.1860    0.0600 O.2     1  UNL1       -0.4540
     13  O          8.8020   -3.6040   -2.0530 O.2     1  UNL1       -0.4540
     14  C          9.0000   -4.7480   -1.2260 C.3     1  UNL1        0.4680
@<TRIPOS>BOND
     1    13    11    1
     2    13    14    1
     3     9    11    2
     4     9     7    1
     5    11    10    1
     6    14    12    1
     7     7     6    2
     8    10    12    1
     9    10     8    2
    10     6     8    1
    11     6     5    1
    12     3     2    1
    13     5     1    1
    14     2     1    1
    15     2     4    2
