@<TRIPOS>MOLECULE
/home/cewinharhar/GITHUB/reincatalyze/data/processed/docking_pred/2023-May-31-1603_sub9_nm5_bs15_s42_ex16_mel10_mts1000_k50_ec05_g099_lra3e-4_lrc9e-3/650932a4c96e02f0afcc120cab6b741f416c7ae8_ligand_9.pdbqt
 14 15 0 0 0
SMALL
GASTEIGER

@<TRIPOS>ATOM
      1  C          5.6120    1.8310    1.3690 C.3     1  UNL1        0.0800
      2  C          5.1270    0.6220    2.0630 C.2     1  UNL1        0.1300
      3  C          6.0390   -0.5280    2.2290 C.3     1  UNL1        0.0870
      4  O          3.9960    0.5970    2.4810 O.2     1  UNL1       -0.3000
      5  C          5.4270    1.7150   -0.1300 C.3     1  UNL1        0.0430
      6  C          6.5470    0.9860   -0.7320 C.2     1  UNL1       -0.0440
      7  C          7.8400    1.4350   -0.5640 C.2     1  UNL1        0.0080
      8  C          6.3550   -0.1610   -1.4820 C.2     1  UNL1        0.0540
      9  C          8.9310    0.7720   -1.1210 C.2     1  UNL1        0.0510
     10  C          7.4260   -0.8450   -2.0500 C.2     1  UNL1        0.1660
     11  C          8.7080   -0.3720   -1.8640 C.2     1  UNL1        0.1650
     12  O          7.5400   -1.9950   -2.8320 O.2     1  UNL1       -0.4540
     13  O          9.5760   -1.2280   -2.5270 O.2     1  UNL1       -0.4540
     14  C          8.8320   -2.1050   -3.3690 C.3     1  UNL1        0.4680
@<TRIPOS>BOND
     1    14    12    1
     2    14    13    1
     3    12    10    1
     4    13    11    1
     5    10    11    2
     6    10     8    1
     7    11     9    1
     8     8     6    2
     9     9     7    2
    10     6     7    1
    11     6     5    1
    12     5     1    1
    13     1     2    1
    14     2     3    1
    15     2     4    2
