MODEL 1
REMARK VINA RESULT:      -7.5      0.000      0.000
REMARK SMILES CC(=O)CCc1ccc2c(c1)OCO2
REMARK SMILES IDX 4 1 2 2 1 3 3 4 5 5 6 6 7 7 11 8 8 9 10 10 9 11 12 12 14 13
REMARK SMILES IDX 13 14
REMARK H PARENT
REMARK Flexibility Score: inf
ROOT
ATOM      1  C   UNL     1       5.612   1.831   1.369  1.00  0.00     0.080 C 
ENDROOT
BRANCH   1   2
ATOM      2  C   UNL     1       5.127   0.622   2.063  1.00  0.00     0.130 C 
ATOM      3  C   UNL     1       6.039  -0.528   2.229  1.00  0.00     0.087 C 
ATOM      4  O   UNL     1       3.996   0.597   2.481  1.00  0.00    -0.300 OA
ENDBRANCH   1   2
BRANCH   1   5
ATOM      5  C   UNL     1       5.427   1.715  -0.130  1.00  0.00     0.043 C 
BRANCH   5   6
ATOM      6  C   UNL     1       6.547   0.986  -0.732  1.00  0.00    -0.044 A 
ATOM      7  C   UNL     1       7.840   1.435  -0.564  1.00  0.00     0.008 A 
ATOM      8  C   UNL     1       6.355  -0.161  -1.482  1.00  0.00     0.054 A 
ATOM      9  C   UNL     1       8.931   0.772  -1.121  1.00  0.00     0.051 A 
ATOM     10  C   UNL     1       7.426  -0.845  -2.050  1.00  0.00     0.166 A 
ATOM     11  C   UNL     1       8.708  -0.372  -1.864  1.00  0.00     0.165 A 
ATOM     12  O   UNL     1       7.540  -1.995  -2.832  1.00  0.00    -0.454 OA
ATOM     13  O   UNL     1       9.576  -1.228  -2.527  1.00  0.00    -0.454 OA
ATOM     14  C   UNL     1       8.832  -2.105  -3.369  1.00  0.00     0.468 C 
ENDBRANCH   5   6
ENDBRANCH   1   5
TORSDOF 3
ENDMDL
MODEL 2
REMARK VINA RESULT:      -7.3      2.119      2.679
REMARK SMILES CC(=O)CCc1ccc2c(c1)OCO2
REMARK SMILES IDX 4 1 2 2 1 3 3 4 5 5 6 6 7 7 11 8 8 9 10 10 9 11 12 12 14 13
REMARK SMILES IDX 13 14
REMARK H PARENT
REMARK Flexibility Score: inf
ROOT
ATOM      1  C   UNL     1       5.313  -0.130   1.908  1.00  0.00     0.080 C 
ENDROOT
BRANCH   1   2
ATOM      2  C   UNL     1       4.560   1.125   1.710  1.00  0.00     0.130 C 
ATOM      3  C   UNL     1       5.015   2.084   0.683  1.00  0.00     0.087 C 
ATOM      4  O   UNL     1       3.588   1.342   2.391  1.00  0.00    -0.300 OA
ENDBRANCH   1   2
BRANCH   1   5
ATOM      5  C   UNL     1       6.797   0.081   1.692  1.00  0.00     0.043 C 
BRANCH   5   6
ATOM      6  C   UNL     1       7.305  -0.842   0.673  1.00  0.00    -0.044 A 
ATOM      7  C   UNL     1       7.228  -0.514  -0.664  1.00  0.00     0.008 A 
ATOM      8  C   UNL     1       7.872  -2.060   1.006  1.00  0.00     0.054 A 
ATOM      9  C   UNL     1       7.697  -1.363  -1.663  1.00  0.00     0.051 A 
ATOM     10  C   UNL     1       8.351  -2.930   0.029  1.00  0.00     0.166 A 
ATOM     11  C   UNL     1       8.259  -2.573  -1.300  1.00  0.00     0.165 A 
ATOM     12  O   UNL     1       8.955  -4.186   0.060  1.00  0.00    -0.454 OA
ATOM     13  O   UNL     1       8.802  -3.604  -2.053  1.00  0.00    -0.454 OA
ATOM     14  C   UNL     1       9.000  -4.748  -1.226  1.00  0.00     0.468 C 
ENDBRANCH   5   6
ENDBRANCH   1   5
TORSDOF 3
ENDMDL
MODEL 3
REMARK VINA RESULT:      -7.2      1.818      2.290
REMARK SMILES CC(=O)CCc1ccc2c(c1)OCO2
REMARK SMILES IDX 4 1 2 2 1 3 3 4 5 5 6 6 7 7 11 8 8 9 10 10 9 11 12 12 14 13
REMARK SMILES IDX 13 14
REMARK H PARENT
REMARK Flexibility Score: inf
ROOT
ATOM      1  C   UNL     1       6.604   1.263   0.428  1.00  0.00     0.080 C 
ENDROOT
BRANCH   1   2
ATOM      2  C   UNL     1       5.484   1.071   1.371  1.00  0.00     0.130 C 
ATOM      3  C   UNL     1       5.454  -0.139   2.217  1.00  0.00     0.087 C 
ATOM      4  O   UNL     1       4.616   1.906   1.430  1.00  0.00    -0.300 OA
ENDBRANCH   1   2
BRANCH   1   5
ATOM      5  C   UNL     1       6.231   0.810  -0.968  1.00  0.00     0.043 C 
BRANCH   5   6
ATOM      6  C   UNL     1       7.001  -0.378  -1.347  1.00  0.00    -0.044 A 
ATOM      7  C   UNL     1       7.391  -0.567  -2.656  1.00  0.00     0.008 A 
ATOM      8  C   UNL     1       7.362  -1.343  -0.422  1.00  0.00     0.054 A 
ATOM      9  C   UNL     1       8.122  -1.682  -3.057  1.00  0.00     0.051 A 
ATOM     10  C   UNL     1       8.093  -2.469  -0.793  1.00  0.00     0.166 A 
ATOM     11  C   UNL     1       8.468  -2.629  -2.111  1.00  0.00     0.165 A 
ATOM     12  O   UNL     1       8.587  -3.576  -0.105  1.00  0.00    -0.454 OA
ATOM     13  O   UNL     1       9.176  -3.818  -2.207  1.00  0.00    -0.454 OA
ATOM     14  C   UNL     1       9.028  -4.563  -1.001  1.00  0.00     0.468 C 
ENDBRANCH   5   6
ENDBRANCH   1   5
TORSDOF 3
ENDMDL
MODEL 4
REMARK VINA RESULT:      -7.1      1.298      1.512
REMARK SMILES CC(=O)CCc1ccc2c(c1)OCO2
REMARK SMILES IDX 4 1 2 2 1 3 3 4 5 5 6 6 7 7 11 8 8 9 10 10 9 11 12 12 14 13
REMARK SMILES IDX 13 14
REMARK H PARENT
REMARK Flexibility Score: inf
ROOT
ATOM      1  C   UNL     1       6.322   1.230   0.963  1.00  0.00     0.080 C 
ENDROOT
BRANCH   1   2
ATOM      2  C   UNL     1       5.596   0.419   1.961  1.00  0.00     0.130 C 
ATOM      3  C   UNL     1       6.249  -0.777   2.530  1.00  0.00     0.087 C 
ATOM      4  O   UNL     1       4.484   0.750   2.291  1.00  0.00    -0.300 OA
ENDBRANCH   1   2
BRANCH   1   5
ATOM      5  C   UNL     1       5.825   0.948  -0.440  1.00  0.00     0.043 C 
BRANCH   5   6
ATOM      6  C   UNL     1       6.750   0.057  -1.145  1.00  0.00    -0.044 A 
ATOM      7  C   UNL     1       7.335   0.456  -2.330  1.00  0.00     0.008 A 
ATOM      8  C   UNL     1       7.070  -1.199  -0.661  1.00  0.00     0.054 A 
ATOM      9  C   UNL     1       8.218  -0.361  -3.031  1.00  0.00     0.051 A 
ATOM     10  C   UNL     1       7.950  -2.038  -1.339  1.00  0.00     0.166 A 
ATOM     11  C   UNL     1       8.518  -1.610  -2.522  1.00  0.00     0.165 A 
ATOM     12  O   UNL     1       8.448  -3.319  -1.103  1.00  0.00    -0.454 OA
ATOM     13  O   UNL     1       9.344  -2.624  -2.984  1.00  0.00    -0.454 OA
ATOM     14  C   UNL     1       9.103  -3.816  -2.242  1.00  0.00     0.468 C 
ENDBRANCH   5   6
ENDBRANCH   1   5
TORSDOF 3
ENDMDL
MODEL 5
REMARK VINA RESULT:      -7.1      2.033      2.563
REMARK SMILES CC(=O)CCc1ccc2c(c1)OCO2
REMARK SMILES IDX 4 1 2 2 1 3 3 4 5 5 6 6 7 7 11 8 8 9 10 10 9 11 12 12 14 13
REMARK SMILES IDX 13 14
REMARK H PARENT
REMARK Flexibility Score: inf
ROOT
ATOM      1  C   UNL     1       6.712   0.850   1.256  1.00  0.00     0.080 C 
ENDROOT
BRANCH   1   2
ATOM      2  C   UNL     1       5.279   1.168   1.414  1.00  0.00     0.130 C 
ATOM      3  C   UNL     1       4.653   2.147   0.502  1.00  0.00     0.087 C 
ATOM      4  O   UNL     1       4.648   0.621   2.285  1.00  0.00    -0.300 OA
ENDBRANCH   1   2
BRANCH   1   5
ATOM      5  C   UNL     1       7.149   0.990  -0.187  1.00  0.00     0.043 C 
BRANCH   5   6
ATOM      6  C   UNL     1       7.600  -0.301  -0.716  1.00  0.00    -0.044 A 
ATOM      7  C   UNL     1       7.681  -0.506  -2.078  1.00  0.00     0.008 A 
ATOM      8  C   UNL     1       7.956  -1.348   0.115  1.00  0.00     0.054 A 
ATOM      9  C   UNL     1       8.104  -1.716  -2.620  1.00  0.00     0.051 A 
ATOM     10  C   UNL     1       8.383  -2.571  -0.398  1.00  0.00     0.166 A 
ATOM     11  C   UNL     1       8.453  -2.744  -1.765  1.00  0.00     0.165 A 
ATOM     12  O   UNL     1       8.795  -3.774   0.175  1.00  0.00    -0.454 OA
ATOM     13  O   UNL     1       8.901  -4.036  -2.004  1.00  0.00    -0.454 OA
ATOM     14  C   UNL     1       8.863  -4.788  -0.794  1.00  0.00     0.468 C 
ENDBRANCH   5   6
ENDBRANCH   1   5
TORSDOF 3
ENDMDL
