@<TRIPOS>MOLECULE
/home/cewinharhar/GITHUB/reincatalyze/data/processed/docking_pred/2023-May-31-1603_sub9_nm5_bs15_s42_ex16_mel10_mts1000_k50_ec05_g099_lra3e-4_lrc9e-3/650932a4c96e02f0afcc120cab6b741f416c7ae8_ligand_9.pdbqt
 14 15 0 0 0
SMALL
GASTEIGER

@<TRIPOS>ATOM
      1  C          6.3220    1.2300    0.9630 C.3     1  UNL1        0.0800
      2  C          5.5960    0.4190    1.9610 C.2     1  UNL1        0.1300
      3  C          6.2490   -0.7770    2.5300 C.3     1  UNL1        0.0870
      4  O          4.4840    0.7500    2.2910 O.2     1  UNL1       -0.3000
      5  C          5.8250    0.9480   -0.4400 C.3     1  UNL1        0.0430
      6  C          6.7500    0.0570   -1.1450 C.2     1  UNL1       -0.0440
      7  C          7.3350    0.4560   -2.3300 C.2     1  UNL1        0.0080
      8  C          7.0700   -1.1990   -0.6610 C.2     1  UNL1        0.0540
      9  C          8.2180   -0.3610   -3.0310 C.2     1  UNL1        0.0510
     10  C          7.9500   -2.0380   -1.3390 C.2     1  UNL1        0.1660
     11  C          8.5180   -1.6100   -2.5220 C.2     1  UNL1        0.1650
     12  O          8.4480   -3.3190   -1.1030 O.2     1  UNL1       -0.4540
     13  O          9.3440   -2.6240   -2.9840 O.2     1  UNL1       -0.4540
     14  C          9.1030   -3.8160   -2.2420 C.3     1  UNL1        0.4680
@<TRIPOS>BOND
     1     9    11    2
     2     9     7    1
     3    13    11    1
     4    13    14    1
     5    11    10    1
     6     7     6    2
     7    14    12    1
     8    10    12    1
     9    10     8    2
    10     6     8    1
    11     6     5    1
    12     5     1    1
    13     1     2    1
    14     2     4    2
    15     2     3    1
