@<TRIPOS>MOLECULE
/home/cewinharhar/GITHUB/reincatalyze/data/processed/docking_pred/2023-May-31-1603_sub9_nm5_bs15_s42_ex16_mel10_mts1000_k50_ec05_g099_lra3e-4_lrc9e-3/65610c622cc3bd86a4d466f03d6f61670904542e_ligand_9.pdbqt
 14 15 0 0 0
SMALL
GASTEIGER

@<TRIPOS>ATOM
      1  C          5.4540    0.0070    1.8850 C.3     1  UNL1        0.0800
      2  C          4.6170    1.1970    1.6360 C.2     1  UNL1        0.1300
      3  C          5.0130    2.1480    0.5780 C.3     1  UNL1        0.0870
      4  O          3.6260    1.3690    2.3020 O.2     1  UNL1       -0.3000
      5  C          6.8950    0.2560    1.4900 C.3     1  UNL1        0.0430
      6  C          7.3400   -0.7410    0.5120 C.2     1  UNL1       -0.0440
      7  C          7.1690   -0.5160   -0.8390 C.2     1  UNL1        0.0080
      8  C          7.9390   -1.9280    0.8960 C.2     1  UNL1        0.0540
      9  C          7.5780   -1.4370   -1.8000 C.2     1  UNL1        0.0510
     10  C          8.3580   -2.8680   -0.0420 C.2     1  UNL1        0.1660
     11  C          8.1730   -2.6130   -1.3850 C.2     1  UNL1        0.1650
     12  O          8.9730   -4.1160    0.0420 O.2     1  UNL1       -0.4540
     13  O          8.6720   -3.6970   -2.0930 O.2     1  UNL1       -0.4540
     14  C          8.9350   -4.7740   -1.1980 C.3     1  UNL1        0.4680
@<TRIPOS>BOND
     1    13    11    1
     2    13    14    1
     3     9    11    2
     4     9     7    1
     5    11    10    1
     6    14    12    1
     7     7     6    2
     8    10    12    1
     9    10     8    2
    10     6     8    1
    11     6     5    1
    12     3     2    1
    13     5     1    1
    14     2     1    1
    15     2     4    2
