@<TRIPOS>MOLECULE
/home/cewinharhar/GITHUB/reincatalyze/data/processed/docking_pred/2023-May-31-1603_sub9_nm5_bs15_s42_ex16_mel10_mts1000_k50_ec05_g099_lra3e-4_lrc9e-3/66013c9081380f75471abfcf9cd04af65399572f_ligand_9.pdbqt
 14 15 0 0 0
SMALL
GASTEIGER

@<TRIPOS>ATOM
      1  C          6.3970    2.0580    1.5370 C.3     1  UNL1        0.0800
      2  C          5.0680    2.0510    0.8920 C.2     1  UNL1        0.1300
      3  C          4.9800    2.1500   -0.5790 C.3     1  UNL1        0.0870
      4  O          4.0820    1.9650    1.5810 O.2     1  UNL1       -0.3000
      5  C          6.4690    1.0420    2.6580 C.3     1  UNL1        0.0430
      6  C          6.8770   -0.2670    2.1400 C.2     1  UNL1       -0.0440
      7  C          5.9320   -1.2320    1.8620 C.2     1  UNL1        0.0080
      8  C          8.2060   -0.5830    1.9150 C.2     1  UNL1        0.0540
      9  C          6.2790   -2.4880    1.3710 C.2     1  UNL1        0.0510
     10  C          8.5830   -1.8310    1.4240 C.2     1  UNL1        0.1660
     11  C          7.6140   -2.7750    1.1550 C.2     1  UNL1        0.1650
     12  O          9.8070   -2.4190    1.1060 O.2     1  UNL1       -0.4540
     13  O          8.2520   -3.9130    0.6830 O.2     1  UNL1       -0.4540
     14  C          9.6550   -3.8010    0.9010 C.3     1  UNL1        0.4680
@<TRIPOS>BOND
     1     3     2    1
     2    13    14    1
     3    13    11    1
     4     2     1    1
     5     2     4    2
     6    14    12    1
     7    12    10    1
     8    11     9    2
     9    11    10    1
    10     9     7    1
    11    10     8    2
    12     1     5    1
    13     7     6    2
    14     8     6    1
    15     6     5    1
