MODEL 1
REMARK VINA RESULT:      -7.5      0.000      0.000
REMARK SMILES CC(=O)CCc1ccc2c(c1)OCO2
REMARK SMILES IDX 4 1 2 2 1 3 3 4 5 5 6 6 7 7 11 8 8 9 10 10 9 11 12 12 14 13
REMARK SMILES IDX 13 14
REMARK H PARENT
REMARK Flexibility Score: inf
ROOT
ATOM      1  C   UNL     1       5.654   1.812   1.368  1.00  0.00     0.080 C 
ENDROOT
BRANCH   1   2
ATOM      2  C   UNL     1       5.155   0.617   2.077  1.00  0.00     0.130 C 
ATOM      3  C   UNL     1       6.060  -0.532   2.280  1.00  0.00     0.087 C 
ATOM      4  O   UNL     1       4.017   0.603   2.477  1.00  0.00    -0.300 OA
ENDBRANCH   1   2
BRANCH   1   5
ATOM      5  C   UNL     1       5.459   1.683  -0.129  1.00  0.00     0.043 C 
BRANCH   5   6
ATOM      6  C   UNL     1       6.580   0.957  -0.733  1.00  0.00    -0.044 A 
ATOM      7  C   UNL     1       7.872   1.415  -0.579  1.00  0.00     0.008 A 
ATOM      8  C   UNL     1       6.391  -0.198  -1.472  1.00  0.00     0.054 A 
ATOM      9  C   UNL     1       8.963   0.755  -1.137  1.00  0.00     0.051 A 
ATOM     10  C   UNL     1       7.463  -0.880  -2.042  1.00  0.00     0.166 A 
ATOM     11  C   UNL     1       8.743  -0.396  -1.869  1.00  0.00     0.165 A 
ATOM     12  O   UNL     1       7.578  -2.036  -2.815  1.00  0.00    -0.454 OA
ATOM     13  O   UNL     1       9.611  -1.252  -2.531  1.00  0.00    -0.454 OA
ATOM     14  C   UNL     1       8.868  -2.142  -3.360  1.00  0.00     0.468 C 
ENDBRANCH   5   6
ENDBRANCH   1   5
TORSDOF 3
ENDMDL
MODEL 2
REMARK VINA RESULT:      -7.3      1.956      2.369
REMARK SMILES CC(=O)CCc1ccc2c(c1)OCO2
REMARK SMILES IDX 4 1 2 2 1 3 3 4 5 5 6 6 7 7 11 8 8 9 10 10 9 11 12 12 14 13
REMARK SMILES IDX 13 14
REMARK H PARENT
REMARK Flexibility Score: inf
ROOT
ATOM      1  C   UNL     1       5.674   1.236  -0.234  1.00  0.00     0.080 C 
ENDROOT
BRANCH   1   2
ATOM      2  C   UNL     1       5.037   1.227   1.098  1.00  0.00     0.130 C 
ATOM      3  C   UNL     1       5.294   0.095   2.011  1.00  0.00     0.087 C 
ATOM      4  O   UNL     1       4.321   2.144   1.414  1.00  0.00    -0.300 OA
ENDBRANCH   1   2
BRANCH   1   5
ATOM      5  C   UNL     1       7.176   1.079  -0.126  1.00  0.00     0.043 C 
BRANCH   5   6
ATOM      6  C   UNL     1       7.602  -0.202  -0.699  1.00  0.00    -0.044 A 
ATOM      7  C   UNL     1       7.654  -0.370  -2.067  1.00  0.00     0.008 A 
ATOM      8  C   UNL     1       7.961  -1.276   0.096  1.00  0.00     0.054 A 
ATOM      9  C   UNL     1       8.052  -1.570  -2.650  1.00  0.00     0.051 A 
ATOM     10  C   UNL     1       8.364  -2.488  -0.459  1.00  0.00     0.166 A 
ATOM     11  C   UNL     1       8.406  -2.625  -1.831  1.00  0.00     0.165 A 
ATOM     12  O   UNL     1       8.772  -3.711   0.073  1.00  0.00    -0.454 OA
ATOM     13  O   UNL     1       8.834  -3.914  -2.114  1.00  0.00    -0.454 OA
ATOM     14  C   UNL     1       8.810  -4.699  -0.925  1.00  0.00     0.468 C 
ENDBRANCH   5   6
ENDBRANCH   1   5
TORSDOF 3
ENDMDL
MODEL 3
REMARK VINA RESULT:      -7.2      2.121      2.668
REMARK SMILES CC(=O)CCc1ccc2c(c1)OCO2
REMARK SMILES IDX 4 1 2 2 1 3 3 4 5 5 6 6 7 7 11 8 8 9 10 10 9 11 12 12 14 13
REMARK SMILES IDX 13 14
REMARK H PARENT
REMARK Flexibility Score: inf
ROOT
ATOM      1  C   UNL     1       5.412  -0.075   1.838  1.00  0.00     0.080 C 
ENDROOT
BRANCH   1   2
ATOM      2  C   UNL     1       4.644   1.169   1.631  1.00  0.00     0.130 C 
ATOM      3  C   UNL     1       5.084   2.123   0.593  1.00  0.00     0.087 C 
ATOM      4  O   UNL     1       3.673   1.380   2.314  1.00  0.00    -0.300 OA
ENDBRANCH   1   2
BRANCH   1   5
ATOM      5  C   UNL     1       6.884   0.133   1.546  1.00  0.00     0.043 C 
BRANCH   5   6
ATOM      6  C   UNL     1       7.353  -0.833   0.549  1.00  0.00    -0.044 A 
ATOM      7  C   UNL     1       7.220  -0.564  -0.798  1.00  0.00     0.008 A 
ATOM      8  C   UNL     1       7.937  -2.034   0.911  1.00  0.00     0.054 A 
ATOM      9  C   UNL     1       7.652  -1.455  -1.776  1.00  0.00     0.051 A 
ATOM     10  C   UNL     1       8.378  -2.945  -0.045  1.00  0.00     0.166 A 
ATOM     11  C   UNL     1       8.232  -2.647  -1.384  1.00  0.00     0.165 A 
ATOM     12  O   UNL     1       8.987  -4.198   0.016  1.00  0.00    -0.454 OA
ATOM     13  O   UNL     1       8.747  -3.710  -2.112  1.00  0.00    -0.454 OA
ATOM     14  C   UNL     1       8.981  -4.816  -1.246  1.00  0.00     0.468 C 
ENDBRANCH   5   6
ENDBRANCH   1   5
TORSDOF 3
ENDMDL
MODEL 4
REMARK VINA RESULT:      -7.1      1.194      1.345
REMARK SMILES CC(=O)CCc1ccc2c(c1)OCO2
REMARK SMILES IDX 4 1 2 2 1 3 3 4 5 5 6 6 7 7 11 8 8 9 10 10 9 11 12 12 14 13
REMARK SMILES IDX 13 14
REMARK H PARENT
REMARK Flexibility Score: inf
ROOT
ATOM      1  C   UNL     1       6.256   1.300   0.952  1.00  0.00     0.080 C 
ENDROOT
BRANCH   1   2
ATOM      2  C   UNL     1       5.580   0.460   1.961  1.00  0.00     0.130 C 
ATOM      3  C   UNL     1       6.276  -0.729   2.492  1.00  0.00     0.087 C 
ATOM      4  O   UNL     1       4.472   0.763   2.331  1.00  0.00    -0.300 OA
ENDBRANCH   1   2
BRANCH   1   5
ATOM      5  C   UNL     1       5.751   0.995  -0.443  1.00  0.00     0.043 C 
BRANCH   5   6
ATOM      6  C   UNL     1       6.709   0.152  -1.164  1.00  0.00    -0.044 A 
ATOM      7  C   UNL     1       7.375   0.643  -2.268  1.00  0.00     0.008 A 
ATOM      8  C   UNL     1       6.979  -1.148  -0.775  1.00  0.00     0.054 A 
ATOM      9  C   UNL     1       8.291  -0.126  -2.981  1.00  0.00     0.051 A 
ATOM     10  C   UNL     1       7.890  -1.940  -1.468  1.00  0.00     0.166 A 
ATOM     11  C   UNL     1       8.540  -1.421  -2.568  1.00  0.00     0.165 A 
ATOM     12  O   UNL     1       8.354  -3.247  -1.316  1.00  0.00    -0.454 OA
ATOM     13  O   UNL     1       9.381  -2.406  -3.066  1.00  0.00    -0.454 OA
ATOM     14  C   UNL     1       9.075  -3.654  -2.450  1.00  0.00     0.468 C 
ENDBRANCH   5   6
ENDBRANCH   1   5
TORSDOF 3
ENDMDL
MODEL 5
REMARK VINA RESULT:      -7.0      1.996      2.667
REMARK SMILES CC(=O)CCc1ccc2c(c1)OCO2
REMARK SMILES IDX 4 1 2 2 1 3 3 4 5 5 6 6 7 7 11 8 8 9 10 10 9 11 12 12 14 13
REMARK SMILES IDX 13 14
REMARK H PARENT
REMARK Flexibility Score: inf
ROOT
ATOM      1  C   UNL     1       6.246   0.167   0.926  1.00  0.00     0.080 C 
ENDROOT
BRANCH   1   2
ATOM      2  C   UNL     1       5.133   1.079   1.259  1.00  0.00     0.130 C 
ATOM      3  C   UNL     1       4.769   2.148   0.308  1.00  0.00     0.087 C 
ATOM      4  O   UNL     1       4.545   0.931   2.301  1.00  0.00    -0.300 OA
ENDBRANCH   1   2
BRANCH   1   5
ATOM      5  C   UNL     1       6.762   0.419  -0.475  1.00  0.00     0.043 C 
BRANCH   5   6
ATOM      6  C   UNL     1       7.431  -0.775  -1.001  1.00  0.00    -0.044 A 
ATOM      7  C   UNL     1       7.793  -0.842  -2.330  1.00  0.00     0.008 A 
ATOM      8  C   UNL     1       7.720  -1.865  -0.198  1.00  0.00     0.054 A 
ATOM      9  C   UNL     1       8.428  -1.958  -2.868  1.00  0.00     0.051 A 
ATOM     10  C   UNL     1       8.355  -2.994  -0.708  1.00  0.00     0.166 A 
ATOM     11  C   UNL     1       8.705  -3.031  -2.042  1.00  0.00     0.165 A 
ATOM     12  O   UNL     1       8.765  -4.209  -0.159  1.00  0.00    -0.454 OA
ATOM     13  O   UNL     1       9.314  -4.254  -2.285  1.00  0.00    -0.454 OA
ATOM     14  C   UNL     1       9.117  -5.118  -1.170  1.00  0.00     0.468 C 
ENDBRANCH   5   6
ENDBRANCH   1   5
TORSDOF 3
ENDMDL
