@<TRIPOS>MOLECULE
/home/cewinharhar/GITHUB/reincatalyze/data/processed/docking_pred/2023-May-31-1603_sub9_nm5_bs15_s42_ex16_mel10_mts1000_k50_ec05_g099_lra3e-4_lrc9e-3/661305b30cebe31e235170a50c1781f21e405ac9_ligand_9.pdbqt
 14 15 0 0 0
SMALL
GASTEIGER

@<TRIPOS>ATOM
      1  C          5.6540    1.8120    1.3680 C.3     1  UNL1        0.0800
      2  C          5.1550    0.6170    2.0770 C.2     1  UNL1        0.1300
      3  C          6.0600   -0.5320    2.2800 C.3     1  UNL1        0.0870
      4  O          4.0170    0.6030    2.4770 O.2     1  UNL1       -0.3000
      5  C          5.4590    1.6830   -0.1290 C.3     1  UNL1        0.0430
      6  C          6.5800    0.9570   -0.7330 C.2     1  UNL1       -0.0440
      7  C          7.8720    1.4150   -0.5790 C.2     1  UNL1        0.0080
      8  C          6.3910   -0.1980   -1.4720 C.2     1  UNL1        0.0540
      9  C          8.9630    0.7550   -1.1370 C.2     1  UNL1        0.0510
     10  C          7.4630   -0.8800   -2.0420 C.2     1  UNL1        0.1660
     11  C          8.7430   -0.3960   -1.8690 C.2     1  UNL1        0.1650
     12  O          7.5780   -2.0360   -2.8150 O.2     1  UNL1       -0.4540
     13  O          9.6110   -1.2520   -2.5310 O.2     1  UNL1       -0.4540
     14  C          8.8680   -2.1420   -3.3600 C.3     1  UNL1        0.4680
@<TRIPOS>BOND
     1    14    12    1
     2    14    13    1
     3    12    10    1
     4    13    11    1
     5    10    11    2
     6    10     8    1
     7    11     9    1
     8     8     6    2
     9     9     7    2
    10     6     7    1
    11     6     5    1
    12     5     1    1
    13     1     2    1
    14     2     3    1
    15     2     4    2
