@<TRIPOS>MOLECULE
/home/cewinharhar/GITHUB/reincatalyze/data/processed/docking_pred/2023-May-31-1603_sub9_nm5_bs15_s42_ex16_mel10_mts1000_k50_ec05_g099_lra3e-4_lrc9e-3/661305b30cebe31e235170a50c1781f21e405ac9_ligand_9.pdbqt
 14 15 0 0 0
SMALL
GASTEIGER

@<TRIPOS>ATOM
      1  C          5.4120   -0.0750    1.8380 C.3     1  UNL1        0.0800
      2  C          4.6440    1.1690    1.6310 C.2     1  UNL1        0.1300
      3  C          5.0840    2.1230    0.5930 C.3     1  UNL1        0.0870
      4  O          3.6730    1.3800    2.3140 O.2     1  UNL1       -0.3000
      5  C          6.8840    0.1330    1.5460 C.3     1  UNL1        0.0430
      6  C          7.3530   -0.8330    0.5490 C.2     1  UNL1       -0.0440
      7  C          7.2200   -0.5640   -0.7980 C.2     1  UNL1        0.0080
      8  C          7.9370   -2.0340    0.9110 C.2     1  UNL1        0.0540
      9  C          7.6520   -1.4550   -1.7760 C.2     1  UNL1        0.0510
     10  C          8.3780   -2.9450   -0.0450 C.2     1  UNL1        0.1660
     11  C          8.2320   -2.6470   -1.3840 C.2     1  UNL1        0.1650
     12  O          8.9870   -4.1980    0.0160 O.2     1  UNL1       -0.4540
     13  O          8.7470   -3.7100   -2.1120 O.2     1  UNL1       -0.4540
     14  C          8.9810   -4.8160   -1.2460 C.3     1  UNL1        0.4680
@<TRIPOS>BOND
     1    13    11    1
     2    13    14    1
     3     9    11    2
     4     9     7    1
     5    11    10    1
     6    14    12    1
     7     7     6    2
     8    10    12    1
     9    10     8    2
    10     6     8    1
    11     6     5    1
    12     3     2    1
    13     5     1    1
    14     2     1    1
    15     2     4    2
