@<TRIPOS>MOLECULE
/home/cewinharhar/GITHUB/reincatalyze/data/processed/docking_pred/2023-May-31-1603_sub9_nm5_bs15_s42_ex16_mel10_mts1000_k50_ec05_g099_lra3e-4_lrc9e-3/67714d3181cdcfbe83529be90e704c7fe5693ba3_ligand_9.pdbqt
 14 15 0 0 0
SMALL
GASTEIGER

@<TRIPOS>ATOM
      1  C          6.7390    0.7150    0.8030 C.3     1  UNL1        0.0800
      2  C          5.4160    1.0560    1.3630 C.2     1  UNL1        0.1300
      3  C          4.6290    2.1420    0.7450 C.3     1  UNL1        0.0870
      4  O          5.0040    0.4390    2.3150 O.2     1  UNL1       -0.3000
      5  C          6.6820    0.5990   -0.7060 C.3     1  UNL1        0.0430
      6  C          7.3410   -0.6320   -1.1530 C.2     1  UNL1       -0.0440
      7  C          7.6540   -0.8100   -2.4850 C.2     1  UNL1        0.0080
      8  C          7.6700   -1.6480   -0.2730 C.2     1  UNL1        0.0540
      9  C          8.2790   -1.9640   -2.9500 C.2     1  UNL1        0.0510
     10  C          8.2960   -2.8130   -0.7090 C.2     1  UNL1        0.1660
     11  C          8.5950   -2.9610   -2.0470 C.2     1  UNL1        0.1650
     12  O          8.7360   -3.9740   -0.0750 O.2     1  UNL1       -0.4540
     13  O          9.2060   -4.1970   -2.2090 O.2     1  UNL1       -0.4540
     14  C          9.0580   -4.9640   -1.0180 C.3     1  UNL1        0.4680
@<TRIPOS>BOND
     1     9     7    1
     2     9    11    2
     3     7     6    2
     4    13    11    1
     5    13    14    1
     6    11    10    1
     7     6     5    1
     8     6     8    1
     9    14    12    1
    10    10     8    2
    11    10    12    1
    12     5     1    1
    13     3     2    1
    14     1     2    1
    15     2     4    2
