MODEL 1
REMARK VINA RESULT:      -7.5      0.000      0.000
REMARK SMILES CC(=O)CCc1ccc2c(c1)OCO2
REMARK SMILES IDX 4 1 2 2 1 3 3 4 5 5 6 6 7 7 11 8 8 9 10 10 9 11 12 12 14 13
REMARK SMILES IDX 13 14
REMARK H PARENT
REMARK Flexibility Score: inf
ROOT
ATOM      1  C   UNL     1       5.599   1.861   1.324  1.00  0.00     0.080 C 
ENDROOT
BRANCH   1   2
ATOM      2  C   UNL     1       5.138   0.661   2.052  1.00  0.00     0.130 C 
ATOM      3  C   UNL     1       6.069  -0.469   2.239  1.00  0.00     0.087 C 
ATOM      4  O   UNL     1       4.011   0.630   2.479  1.00  0.00    -0.300 OA
ENDBRANCH   1   2
BRANCH   1   5
ATOM      5  C   UNL     1       5.413   1.701  -0.171  1.00  0.00     0.043 C 
BRANCH   5   6
ATOM      6  C   UNL     1       6.543   0.972  -0.755  1.00  0.00    -0.044 A 
ATOM      7  C   UNL     1       7.834   1.418  -0.563  1.00  0.00     0.008 A 
ATOM      8  C   UNL     1       6.363  -0.174  -1.510  1.00  0.00     0.054 A 
ATOM      9  C   UNL     1       8.934   0.755  -1.101  1.00  0.00     0.051 A 
ATOM     10  C   UNL     1       7.444  -0.859  -2.060  1.00  0.00     0.166 A 
ATOM     11  C   UNL     1       8.723  -0.387  -1.851  1.00  0.00     0.165 A 
ATOM     12  O   UNL     1       7.570  -2.007  -2.842  1.00  0.00    -0.454 OA
ATOM     13  O   UNL     1       9.601  -1.243  -2.500  1.00  0.00    -0.454 OA
ATOM     14  C   UNL     1       8.872  -2.118  -3.357  1.00  0.00     0.468 C 
ENDBRANCH   5   6
ENDBRANCH   1   5
TORSDOF 3
ENDMDL
MODEL 2
REMARK VINA RESULT:      -7.4      1.990      2.417
REMARK SMILES CC(=O)CCc1ccc2c(c1)OCO2
REMARK SMILES IDX 4 1 2 2 1 3 3 4 5 5 6 6 7 7 11 8 8 9 10 10 9 11 12 12 14 13
REMARK SMILES IDX 13 14
REMARK H PARENT
REMARK Flexibility Score: inf
ROOT
ATOM      1  C   UNL     1       5.724   1.237  -0.307  1.00  0.00     0.080 C 
ENDROOT
BRANCH   1   2
ATOM      2  C   UNL     1       5.109   1.248   1.035  1.00  0.00     0.130 C 
ATOM      3  C   UNL     1       5.418   0.154   1.979  1.00  0.00     0.087 C 
ATOM      4  O   UNL     1       4.366   2.150   1.334  1.00  0.00    -0.300 OA
ENDBRANCH   1   2
BRANCH   1   5
ATOM      5  C   UNL     1       7.229   1.087  -0.220  1.00  0.00     0.043 C 
BRANCH   5   6
ATOM      6  C   UNL     1       7.648  -0.210  -0.759  1.00  0.00    -0.044 A 
ATOM      7  C   UNL     1       7.720  -0.408  -2.123  1.00  0.00     0.008 A 
ATOM      8  C   UNL     1       7.984  -1.271   0.063  1.00  0.00     0.054 A 
ATOM      9  C   UNL     1       8.113  -1.624  -2.675  1.00  0.00     0.051 A 
ATOM     10  C   UNL     1       8.381  -2.500  -0.460  1.00  0.00     0.166 A 
ATOM     11  C   UNL     1       8.442  -2.665  -1.828  1.00  0.00     0.165 A 
ATOM     12  O   UNL     1       8.767  -3.715   0.103  1.00  0.00    -0.454 OA
ATOM     13  O   UNL     1       8.860  -3.965  -2.077  1.00  0.00    -0.454 OA
ATOM     14  C   UNL     1       8.809  -4.724  -0.873  1.00  0.00     0.468 C 
ENDBRANCH   5   6
ENDBRANCH   1   5
TORSDOF 3
ENDMDL
MODEL 3
REMARK VINA RESULT:      -7.3      2.090      2.664
REMARK SMILES CC(=O)CCc1ccc2c(c1)OCO2
REMARK SMILES IDX 4 1 2 2 1 3 3 4 5 5 6 6 7 7 11 8 8 9 10 10 9 11 12 12 14 13
REMARK SMILES IDX 13 14
REMARK H PARENT
REMARK Flexibility Score: inf
ROOT
ATOM      1  C   UNL     1       5.379  -0.047   1.917  1.00  0.00     0.080 C 
ENDROOT
BRANCH   1   2
ATOM      2  C   UNL     1       4.581   1.176   1.699  1.00  0.00     0.130 C 
ATOM      3  C   UNL     1       5.019   2.149   0.677  1.00  0.00     0.087 C 
ATOM      4  O   UNL     1       3.588   1.355   2.359  1.00  0.00    -0.300 OA
ENDBRANCH   1   2
BRANCH   1   5
ATOM      5  C   UNL     1       6.838   0.181   1.577  1.00  0.00     0.043 C 
BRANCH   5   6
ATOM      6  C   UNL     1       7.290  -0.787   0.573  1.00  0.00    -0.044 A 
ATOM      7  C   UNL     1       7.093  -0.540  -0.770  1.00  0.00     0.008 A 
ATOM      8  C   UNL     1       7.920  -1.967   0.926  1.00  0.00     0.054 A 
ATOM      9  C   UNL     1       7.507  -1.434  -1.754  1.00  0.00     0.051 A 
ATOM     10  C   UNL     1       8.345  -2.880  -0.037  1.00  0.00     0.166 A 
ATOM     11  C   UNL     1       8.134  -2.605  -1.372  1.00  0.00     0.165 A 
ATOM     12  O   UNL     1       8.989  -4.116   0.015  1.00  0.00    -0.454 OA
ATOM     13  O   UNL     1       8.646  -3.664  -2.108  1.00  0.00    -0.454 OA
ATOM     14  C   UNL     1       8.946  -4.751  -1.237  1.00  0.00     0.468 C 
ENDBRANCH   5   6
ENDBRANCH   1   5
TORSDOF 3
ENDMDL
MODEL 4
REMARK VINA RESULT:      -7.0      1.974      2.620
REMARK SMILES CC(=O)CCc1ccc2c(c1)OCO2
REMARK SMILES IDX 4 1 2 2 1 3 3 4 5 5 6 6 7 7 11 8 8 9 10 10 9 11 12 12 14 13
REMARK SMILES IDX 13 14
REMARK H PARENT
REMARK Flexibility Score: inf
ROOT
ATOM      1  C   UNL     1       6.739   0.715   0.803  1.00  0.00     0.080 C 
ENDROOT
BRANCH   1   2
ATOM      2  C   UNL     1       5.416   1.056   1.363  1.00  0.00     0.130 C 
ATOM      3  C   UNL     1       4.629   2.142   0.745  1.00  0.00     0.087 C 
ATOM      4  O   UNL     1       5.004   0.439   2.315  1.00  0.00    -0.300 OA
ENDBRANCH   1   2
BRANCH   1   5
ATOM      5  C   UNL     1       6.682   0.599  -0.706  1.00  0.00     0.043 C 
BRANCH   5   6
ATOM      6  C   UNL     1       7.341  -0.632  -1.153  1.00  0.00    -0.044 A 
ATOM      7  C   UNL     1       7.654  -0.810  -2.485  1.00  0.00     0.008 A 
ATOM      8  C   UNL     1       7.670  -1.648  -0.273  1.00  0.00     0.054 A 
ATOM      9  C   UNL     1       8.279  -1.964  -2.950  1.00  0.00     0.051 A 
ATOM     10  C   UNL     1       8.296  -2.813  -0.709  1.00  0.00     0.166 A 
ATOM     11  C   UNL     1       8.595  -2.961  -2.047  1.00  0.00     0.165 A 
ATOM     12  O   UNL     1       8.736  -3.974  -0.075  1.00  0.00    -0.454 OA
ATOM     13  O   UNL     1       9.206  -4.197  -2.209  1.00  0.00    -0.454 OA
ATOM     14  C   UNL     1       9.058  -4.964  -1.018  1.00  0.00     0.468 C 
ENDBRANCH   5   6
ENDBRANCH   1   5
TORSDOF 3
ENDMDL
MODEL 5
REMARK VINA RESULT:      -7.0      1.215      5.173
REMARK SMILES CC(=O)CCc1ccc2c(c1)OCO2
REMARK SMILES IDX 4 1 2 2 1 3 3 4 5 5 6 6 7 7 11 8 8 9 10 10 9 11 12 12 14 13
REMARK SMILES IDX 13 14
REMARK H PARENT
REMARK Flexibility Score: inf
ROOT
ATOM      1  C   UNL     1       8.311   0.210  -2.593  1.00  0.00     0.080 C 
ENDROOT
BRANCH   1   2
ATOM      2  C   UNL     1       7.968  -1.221  -2.718  1.00  0.00     0.130 C 
ATOM      3  C   UNL     1       9.037  -2.195  -3.020  1.00  0.00     0.087 C 
ATOM      4  O   UNL     1       6.822  -1.566  -2.571  1.00  0.00    -0.300 OA
ENDBRANCH   1   2
BRANCH   1   5
ATOM      5  C   UNL     1       8.864   0.524  -1.218  1.00  0.00     0.043 C 
BRANCH   5   6
ATOM      6  C   UNL     1       7.807   0.438  -0.206  1.00  0.00    -0.044 A 
ATOM      7  C   UNL     1       7.821  -0.574   0.731  1.00  0.00     0.008 A 
ATOM      8  C   UNL     1       6.769   1.351  -0.152  1.00  0.00     0.054 A 
ATOM      9  C   UNL     1       6.835  -0.692   1.708  1.00  0.00     0.051 A 
ATOM     10  C   UNL     1       5.769   1.260   0.814  1.00  0.00     0.166 A 
ATOM     11  C   UNL     1       5.811   0.236   1.738  1.00  0.00     0.165 A 
ATOM     12  O   UNL     1       4.632   2.011   1.109  1.00  0.00    -0.454 OA
ATOM     13  O   UNL     1       4.712   0.376   2.573  1.00  0.00    -0.454 OA
ATOM     14  C   UNL     1       3.810   1.332   2.023  1.00  0.00     0.468 C 
ENDBRANCH   5   6
ENDBRANCH   1   5
TORSDOF 3
ENDMDL
