@<TRIPOS>MOLECULE
/home/cewinharhar/GITHUB/reincatalyze/data/processed/docking_pred/2023-May-31-1603_sub9_nm5_bs15_s42_ex16_mel10_mts1000_k50_ec05_g099_lra3e-4_lrc9e-3/677496c5c46bc5e4ac1ff58ba47d0b72a83fedc5_ligand_9.pdbqt
 14 15 0 0 0
SMALL
GASTEIGER

@<TRIPOS>ATOM
      1  C          6.7950    0.8210    0.8270 C.3     1  UNL1        0.0800
      2  C          5.4450    1.1090    1.3510 C.2     1  UNL1        0.1300
      3  C          4.6250    2.1500    0.6990 C.3     1  UNL1        0.0870
      4  O          5.0380    0.4880    2.3020 O.2     1  UNL1       -0.3000
      5  C          6.7900    0.7340   -0.6850 C.3     1  UNL1        0.0430
      6  C          7.3960   -0.5240   -1.1300 C.2     1  UNL1       -0.0440
      7  C          7.6590   -0.7350   -2.4680 C.2     1  UNL1        0.0080
      8  C          7.7230   -1.5340   -0.2430 C.2     1  UNL1        0.0540
      9  C          8.2330   -1.9160   -2.9320 C.2     1  UNL1        0.0510
     10  C          8.2990   -2.7260   -0.6780 C.2     1  UNL1        0.1660
     11  C          8.5490   -2.9060   -2.0220 C.2     1  UNL1        0.1650
     12  O          8.7250   -3.8890   -0.0370 O.2     1  UNL1       -0.4540
     13  O          9.1180   -4.1620   -2.1810 O.2     1  UNL1       -0.4540
     14  C          8.9860   -4.9040   -0.9710 C.3     1  UNL1        0.4680
@<TRIPOS>BOND
     1     9     7    1
     2     9    11    2
     3     7     6    2
     4    13    11    1
     5    13    14    1
     6    11    10    1
     7     6     5    1
     8     6     8    1
     9    14    12    1
    10     5     1    1
    11    10     8    2
    12    10    12    1
    13     3     2    1
    14     1     2    1
    15     2     4    2
