@<TRIPOS>MOLECULE
/home/cewinharhar/GITHUB/reincatalyze/data/processed/docking_pred/2023-May-31-1603_sub9_nm5_bs15_s42_ex16_mel10_mts1000_k50_ec05_g099_lra3e-4_lrc9e-3/677496c5c46bc5e4ac1ff58ba47d0b72a83fedc5_ligand_9.pdbqt
 14 15 0 0 0
SMALL
GASTEIGER

@<TRIPOS>ATOM
      1  C          6.2620    1.2750    0.9780 C.3     1  UNL1        0.0800
      2  C          5.5750    0.4290    1.9730 C.2     1  UNL1        0.1300
      3  C          6.2700   -0.7560    2.5150 C.3     1  UNL1        0.0870
      4  O          4.4590    0.7230    2.3240 O.2     1  UNL1       -0.3000
      5  C          5.7690    0.9840   -0.4240 C.3     1  UNL1        0.0430
      6  C          6.7200    0.1280   -1.1380 C.2     1  UNL1       -0.0440
      7  C          7.3820    0.6000   -2.2530 C.2     1  UNL1        0.0080
      8  C          6.9880   -1.1670   -0.7310 C.2     1  UNL1        0.0540
      9  C          8.2920   -0.1820   -2.9590 C.2     1  UNL1        0.0510
     10  C          7.8930   -1.9730   -1.4170 C.2     1  UNL1        0.1660
     11  C          8.5390   -1.4720   -2.5280 C.2     1  UNL1        0.1650
     12  O          8.3530   -3.2790   -1.2480 O.2     1  UNL1       -0.4540
     13  O          9.3740   -2.4670   -3.0160 O.2     1  UNL1       -0.4540
     14  C          9.0670   -3.7050   -2.3800 C.3     1  UNL1        0.4680
@<TRIPOS>BOND
     1    13    11    1
     2    13    14    1
     3     9    11    2
     4     9     7    1
     5    11    10    1
     6    14    12    1
     7     7     6    2
     8    10    12    1
     9    10     8    2
    10     6     8    1
    11     6     5    1
    12     5     1    1
    13     1     2    1
    14     2     4    2
    15     2     3    1
