@<TRIPOS>MOLECULE
/home/cewinharhar/GITHUB/reincatalyze/data/processed/docking_pred/2023-May-31-1603_sub9_nm5_bs15_s42_ex16_mel10_mts1000_k50_ec05_g099_lra3e-4_lrc9e-3/677496c5c46bc5e4ac1ff58ba47d0b72a83fedc5_ligand_9.pdbqt
 14 15 0 0 0
SMALL
GASTEIGER

@<TRIPOS>ATOM
      1  C          5.6150    1.8250    1.3490 C.3     1  UNL1        0.0800
      2  C          5.1340    0.6290    2.0680 C.2     1  UNL1        0.1300
      3  C          6.0510   -0.5120    2.2630 C.3     1  UNL1        0.0870
      4  O          4.0010    0.6070    2.4820 O.2     1  UNL1       -0.3000
      5  C          5.4270    1.6790   -0.1470 C.3     1  UNL1        0.0430
      6  C          6.5550    0.9560   -0.7400 C.2     1  UNL1       -0.0440
      7  C          7.8450    1.4120   -0.5640 C.2     1  UNL1        0.0080
      8  C          6.3760   -0.1950   -1.4880 C.2     1  UNL1        0.0540
      9  C          8.9440    0.7550   -1.1110 C.2     1  UNL1        0.0510
     10  C          7.4550   -0.8740   -2.0470 C.2     1  UNL1        0.1660
     11  C          8.7330   -0.3920   -1.8530 C.2     1  UNL1        0.1650
     12  O          7.5810   -2.0250   -2.8250 O.2     1  UNL1       -0.4540
     13  O          9.6100   -1.2440   -2.5080 O.2     1  UNL1       -0.4540
     14  C          8.8780   -2.1280   -3.3530 C.3     1  UNL1        0.4680
@<TRIPOS>BOND
     1    14    12    1
     2    14    13    1
     3    12    10    1
     4    13    11    1
     5    10    11    2
     6    10     8    1
     7    11     9    1
     8     8     6    2
     9     9     7    2
    10     6     7    1
    11     6     5    1
    12     5     1    1
    13     1     2    1
    14     2     3    1
    15     2     4    2
