@<TRIPOS>MOLECULE
/home/cewinharhar/GITHUB/reincatalyze/data/processed/docking_pred/2023-May-31-1603_sub9_nm5_bs15_s42_ex16_mel10_mts1000_k50_ec05_g099_lra3e-4_lrc9e-3/677496c5c46bc5e4ac1ff58ba47d0b72a83fedc5_ligand_9.pdbqt
 14 15 0 0 0
SMALL
GASTEIGER

@<TRIPOS>ATOM
      1  C          5.7020    1.1030   -0.2880 C.3     1  UNL1        0.0800
      2  C          5.1850    1.1640    1.0930 C.2     1  UNL1        0.1300
      3  C          5.4080    0.0190    1.9980 C.3     1  UNL1        0.0870
      4  O          4.5900    2.1500    1.4550 O.2     1  UNL1       -0.3000
      5  C          7.2140    1.0220   -0.3060 C.3     1  UNL1        0.0430
      6  C          7.6550   -0.2690   -0.8410 C.2     1  UNL1       -0.0440
      7  C          7.7730   -0.4540   -2.2030 C.2     1  UNL1        0.0080
      8  C          7.9640   -1.3370   -0.0170 C.2     1  UNL1        0.0540
      9  C          8.1870   -1.6650   -2.7520 C.2     1  UNL1        0.0510
     10  C          8.3810   -2.5600   -0.5370 C.2     1  UNL1        0.1660
     11  C          8.4890   -2.7130   -1.9040 C.2     1  UNL1        0.1650
     12  O          8.7510   -3.7800    0.0280 O.2     1  UNL1       -0.4540
     13  O          8.9180   -4.0100   -2.1500 O.2     1  UNL1       -0.4540
     14  C          8.8280   -4.7800   -0.9550 C.3     1  UNL1        0.4680
@<TRIPOS>BOND
     1     9     7    1
     2     9    11    2
     3     7     6    2
     4    13    11    1
     5    13    14    1
     6    11    10    1
     7    14    12    1
     8     6     5    1
     9     6     8    1
    10    10     8    2
    11    10    12    1
    12     5     1    1
    13     1     2    1
    14     2     4    2
    15     2     3    1
