MODEL 1
REMARK VINA RESULT:      -7.5      0.000      0.000
REMARK SMILES CC(=O)CCc1ccc2c(c1)OCO2
REMARK SMILES IDX 4 1 2 2 1 3 3 4 5 5 6 6 7 7 11 8 8 9 10 10 9 11 12 12 14 13
REMARK SMILES IDX 13 14
REMARK H PARENT
REMARK Flexibility Score: inf
ROOT
ATOM      1  C   UNL     1       5.615   1.825   1.349  1.00  0.00     0.080 C 
ENDROOT
BRANCH   1   2
ATOM      2  C   UNL     1       5.134   0.629   2.068  1.00  0.00     0.130 C 
ATOM      3  C   UNL     1       6.051  -0.512   2.263  1.00  0.00     0.087 C 
ATOM      4  O   UNL     1       4.001   0.607   2.482  1.00  0.00    -0.300 OA
ENDBRANCH   1   2
BRANCH   1   5
ATOM      5  C   UNL     1       5.427   1.679  -0.147  1.00  0.00     0.043 C 
BRANCH   5   6
ATOM      6  C   UNL     1       6.555   0.956  -0.740  1.00  0.00    -0.044 A 
ATOM      7  C   UNL     1       7.845   1.412  -0.564  1.00  0.00     0.008 A 
ATOM      8  C   UNL     1       6.376  -0.195  -1.488  1.00  0.00     0.054 A 
ATOM      9  C   UNL     1       8.944   0.755  -1.111  1.00  0.00     0.051 A 
ATOM     10  C   UNL     1       7.455  -0.874  -2.047  1.00  0.00     0.166 A 
ATOM     11  C   UNL     1       8.733  -0.392  -1.853  1.00  0.00     0.165 A 
ATOM     12  O   UNL     1       7.581  -2.025  -2.825  1.00  0.00    -0.454 OA
ATOM     13  O   UNL     1       9.610  -1.244  -2.508  1.00  0.00    -0.454 OA
ATOM     14  C   UNL     1       8.878  -2.128  -3.353  1.00  0.00     0.468 C 
ENDBRANCH   5   6
ENDBRANCH   1   5
TORSDOF 3
ENDMDL
MODEL 2
REMARK VINA RESULT:      -7.4      1.962      2.416
REMARK SMILES CC(=O)CCc1ccc2c(c1)OCO2
REMARK SMILES IDX 4 1 2 2 1 3 3 4 5 5 6 6 7 7 11 8 8 9 10 10 9 11 12 12 14 13
REMARK SMILES IDX 13 14
REMARK H PARENT
REMARK Flexibility Score: inf
ROOT
ATOM      1  C   UNL     1       5.702   1.103  -0.288  1.00  0.00     0.080 C 
ENDROOT
BRANCH   1   2
ATOM      2  C   UNL     1       5.185   1.164   1.093  1.00  0.00     0.130 C 
ATOM      3  C   UNL     1       5.408   0.019   1.998  1.00  0.00     0.087 C 
ATOM      4  O   UNL     1       4.590   2.150   1.455  1.00  0.00    -0.300 OA
ENDBRANCH   1   2
BRANCH   1   5
ATOM      5  C   UNL     1       7.214   1.022  -0.306  1.00  0.00     0.043 C 
BRANCH   5   6
ATOM      6  C   UNL     1       7.655  -0.269  -0.841  1.00  0.00    -0.044 A 
ATOM      7  C   UNL     1       7.773  -0.454  -2.203  1.00  0.00     0.008 A 
ATOM      8  C   UNL     1       7.964  -1.337  -0.017  1.00  0.00     0.054 A 
ATOM      9  C   UNL     1       8.187  -1.665  -2.752  1.00  0.00     0.051 A 
ATOM     10  C   UNL     1       8.381  -2.560  -0.537  1.00  0.00     0.166 A 
ATOM     11  C   UNL     1       8.489  -2.713  -1.904  1.00  0.00     0.165 A 
ATOM     12  O   UNL     1       8.751  -3.780   0.028  1.00  0.00    -0.454 OA
ATOM     13  O   UNL     1       8.918  -4.010  -2.150  1.00  0.00    -0.454 OA
ATOM     14  C   UNL     1       8.828  -4.780  -0.955  1.00  0.00     0.468 C 
ENDBRANCH   5   6
ENDBRANCH   1   5
TORSDOF 3
ENDMDL
MODEL 3
REMARK VINA RESULT:      -7.2      2.144      2.692
REMARK SMILES CC(=O)CCc1ccc2c(c1)OCO2
REMARK SMILES IDX 4 1 2 2 1 3 3 4 5 5 6 6 7 7 11 8 8 9 10 10 9 11 12 12 14 13
REMARK SMILES IDX 13 14
REMARK H PARENT
REMARK Flexibility Score: inf
ROOT
ATOM      1  C   UNL     1       5.374  -0.092   1.773  1.00  0.00     0.080 C 
ENDROOT
BRANCH   1   2
ATOM      2  C   UNL     1       4.641   1.176   1.587  1.00  0.00     0.130 C 
ATOM      3  C   UNL     1       5.070   2.108   0.524  1.00  0.00     0.087 C 
ATOM      4  O   UNL     1       3.706   1.426   2.307  1.00  0.00    -0.300 OA
ENDBRANCH   1   2
BRANCH   1   5
ATOM      5  C   UNL     1       6.859   0.093   1.536  1.00  0.00     0.043 C 
BRANCH   5   6
ATOM      6  C   UNL     1       7.346  -0.870   0.543  1.00  0.00    -0.044 A 
ATOM      7  C   UNL     1       7.227  -0.600  -0.805  1.00  0.00     0.008 A 
ATOM      8  C   UNL     1       7.933  -2.068   0.910  1.00  0.00     0.054 A 
ATOM      9  C   UNL     1       7.676  -1.487  -1.779  1.00  0.00     0.051 A 
ATOM     10  C   UNL     1       8.391  -2.975  -0.042  1.00  0.00     0.166 A 
ATOM     11  C   UNL     1       8.258  -2.676  -1.382  1.00  0.00     0.165 A 
ATOM     12  O   UNL     1       9.008  -4.224   0.025  1.00  0.00    -0.454 OA
ATOM     13  O   UNL     1       8.789  -3.734  -2.105  1.00  0.00    -0.454 OA
ATOM     14  C   UNL     1       9.020  -4.840  -1.237  1.00  0.00     0.468 C 
ENDBRANCH   5   6
ENDBRANCH   1   5
TORSDOF 3
ENDMDL
MODEL 4
REMARK VINA RESULT:      -7.1      1.227      1.383
REMARK SMILES CC(=O)CCc1ccc2c(c1)OCO2
REMARK SMILES IDX 4 1 2 2 1 3 3 4 5 5 6 6 7 7 11 8 8 9 10 10 9 11 12 12 14 13
REMARK SMILES IDX 13 14
REMARK H PARENT
REMARK Flexibility Score: inf
ROOT
ATOM      1  C   UNL     1       6.262   1.275   0.978  1.00  0.00     0.080 C 
ENDROOT
BRANCH   1   2
ATOM      2  C   UNL     1       5.575   0.429   1.973  1.00  0.00     0.130 C 
ATOM      3  C   UNL     1       6.270  -0.756   2.515  1.00  0.00     0.087 C 
ATOM      4  O   UNL     1       4.459   0.723   2.324  1.00  0.00    -0.300 OA
ENDBRANCH   1   2
BRANCH   1   5
ATOM      5  C   UNL     1       5.769   0.984  -0.424  1.00  0.00     0.043 C 
BRANCH   5   6
ATOM      6  C   UNL     1       6.720   0.128  -1.138  1.00  0.00    -0.044 A 
ATOM      7  C   UNL     1       7.382   0.600  -2.253  1.00  0.00     0.008 A 
ATOM      8  C   UNL     1       6.988  -1.167  -0.731  1.00  0.00     0.054 A 
ATOM      9  C   UNL     1       8.292  -0.182  -2.959  1.00  0.00     0.051 A 
ATOM     10  C   UNL     1       7.893  -1.973  -1.417  1.00  0.00     0.166 A 
ATOM     11  C   UNL     1       8.539  -1.472  -2.528  1.00  0.00     0.165 A 
ATOM     12  O   UNL     1       8.353  -3.279  -1.248  1.00  0.00    -0.454 OA
ATOM     13  O   UNL     1       9.374  -2.467  -3.016  1.00  0.00    -0.454 OA
ATOM     14  C   UNL     1       9.067  -3.705  -2.380  1.00  0.00     0.468 C 
ENDBRANCH   5   6
ENDBRANCH   1   5
TORSDOF 3
ENDMDL
MODEL 5
REMARK VINA RESULT:      -7.0      1.950      2.590
REMARK SMILES CC(=O)CCc1ccc2c(c1)OCO2
REMARK SMILES IDX 4 1 2 2 1 3 3 4 5 5 6 6 7 7 11 8 8 9 10 10 9 11 12 12 14 13
REMARK SMILES IDX 13 14
REMARK H PARENT
REMARK Flexibility Score: inf
ROOT
ATOM      1  C   UNL     1       6.795   0.821   0.827  1.00  0.00     0.080 C 
ENDROOT
BRANCH   1   2
ATOM      2  C   UNL     1       5.445   1.109   1.351  1.00  0.00     0.130 C 
ATOM      3  C   UNL     1       4.625   2.150   0.699  1.00  0.00     0.087 C 
ATOM      4  O   UNL     1       5.038   0.488   2.302  1.00  0.00    -0.300 OA
ENDBRANCH   1   2
BRANCH   1   5
ATOM      5  C   UNL     1       6.790   0.734  -0.685  1.00  0.00     0.043 C 
BRANCH   5   6
ATOM      6  C   UNL     1       7.396  -0.524  -1.130  1.00  0.00    -0.044 A 
ATOM      7  C   UNL     1       7.659  -0.735  -2.468  1.00  0.00     0.008 A 
ATOM      8  C   UNL     1       7.723  -1.534  -0.243  1.00  0.00     0.054 A 
ATOM      9  C   UNL     1       8.233  -1.916  -2.932  1.00  0.00     0.051 A 
ATOM     10  C   UNL     1       8.299  -2.726  -0.678  1.00  0.00     0.166 A 
ATOM     11  C   UNL     1       8.549  -2.906  -2.022  1.00  0.00     0.165 A 
ATOM     12  O   UNL     1       8.725  -3.889  -0.037  1.00  0.00    -0.454 OA
ATOM     13  O   UNL     1       9.118  -4.162  -2.181  1.00  0.00    -0.454 OA
ATOM     14  C   UNL     1       8.986  -4.904  -0.971  1.00  0.00     0.468 C 
ENDBRANCH   5   6
ENDBRANCH   1   5
TORSDOF 3
ENDMDL
