@<TRIPOS>MOLECULE
/home/cewinharhar/GITHUB/reincatalyze/data/processed/docking_pred/2023-May-31-1603_sub9_nm5_bs15_s42_ex16_mel10_mts1000_k50_ec05_g099_lra3e-4_lrc9e-3/67ebe37560d6b2ff0daae954040d2bc7ae74be81_ligand_9.pdbqt
 14 15 0 0 0
SMALL
GASTEIGER

@<TRIPOS>ATOM
      1  C          5.3370   -0.0540    1.9830 C.3     1  UNL1        0.0800
      2  C          4.5240    1.1590    1.7680 C.2     1  UNL1        0.1300
      3  C          4.9240    2.1180    0.7190 C.3     1  UNL1        0.0870
      4  O          3.5500    1.3430    2.4550 O.2     1  UNL1       -0.3000
      5  C          6.7930    0.1940    1.6460 C.3     1  UNL1        0.0430
      6  C          7.2570   -0.7590    0.6330 C.2     1  UNL1       -0.0440
      7  C          7.0810   -0.4890   -0.7080 C.2     1  UNL1        0.0080
      8  C          7.8780   -1.9470    0.9750 C.2     1  UNL1        0.0540
      9  C          7.5060   -1.3680   -1.7020 C.2     1  UNL1        0.0510
     10  C          8.3150   -2.8450    0.0030 C.2     1  UNL1        0.1660
     11  C          8.1240   -2.5460   -1.3300 C.2     1  UNL1        0.1650
     12  O          8.9540   -4.0830    0.0430 O.2     1  UNL1       -0.4540
     13  O          8.6430   -3.5950   -2.0760 O.2     1  UNL1       -0.4540
     14  C          8.9280   -4.6970   -1.2190 C.3     1  UNL1        0.4680
@<TRIPOS>BOND
     1    13    11    1
     2    13    14    1
     3     9    11    2
     4     9     7    1
     5    11    10    1
     6    14    12    1
     7     7     6    2
     8    10    12    1
     9    10     8    2
    10     6     8    1
    11     6     5    1
    12     3     2    1
    13     5     1    1
    14     2     1    1
    15     2     4    2
