@<TRIPOS>MOLECULE
/home/cewinharhar/GITHUB/reincatalyze/data/processed/docking_pred/2023-May-31-1603_sub9_nm5_bs15_s42_ex16_mel10_mts1000_k50_ec05_g099_lra3e-4_lrc9e-3/681e80220216c71ec10eb1429598bf11558fcb24_ligand_9.pdbqt
 14 15 0 0 0
SMALL
GASTEIGER

@<TRIPOS>ATOM
      1  C          5.6210    1.8410    1.3620 C.3     1  UNL1        0.0800
      2  C          5.1450    0.6350    2.0680 C.2     1  UNL1        0.1300
      3  C          6.0680   -0.5040    2.2520 C.3     1  UNL1        0.0870
      4  O          4.0120    0.6040    2.4820 O.2     1  UNL1       -0.3000
      5  C          5.4310    1.7110   -0.1350 C.3     1  UNL1        0.0430
      6  C          6.5520    0.9810   -0.7350 C.2     1  UNL1       -0.0440
      7  C          7.8460    1.4250   -0.5580 C.2     1  UNL1        0.0080
      8  C          6.3610   -0.1630   -1.4900 C.2     1  UNL1        0.0540
      9  C          8.9380    0.7610   -1.1110 C.2     1  UNL1        0.0510
     10  C          7.4340   -0.8480   -2.0550 C.2     1  UNL1        0.1660
     11  C          8.7160   -0.3790   -1.8600 C.2     1  UNL1        0.1650
     12  O          7.5480   -1.9950   -2.8410 O.2     1  UNL1       -0.4540
     13  O          9.5850   -1.2350   -2.5220 O.2     1  UNL1       -0.4540
     14  C          8.8440   -2.1070   -3.3720 C.3     1  UNL1        0.4680
@<TRIPOS>BOND
     1    14    12    1
     2    14    13    1
     3    12    10    1
     4    13    11    1
     5    10    11    2
     6    10     8    1
     7    11     9    1
     8     8     6    2
     9     9     7    2
    10     6     7    1
    11     6     5    1
    12     5     1    1
    13     1     2    1
    14     2     3    1
    15     2     4    2
