@<TRIPOS>MOLECULE
/home/cewinharhar/GITHUB/reincatalyze/data/processed/docking_pred/2023-May-31-1603_sub9_nm5_bs15_s42_ex16_mel10_mts1000_k50_ec05_g099_lra3e-4_lrc9e-3/681e80220216c71ec10eb1429598bf11558fcb24_ligand_9.pdbqt
 14 15 0 0 0
SMALL
GASTEIGER

@<TRIPOS>ATOM
      1  C          6.7430    0.7690    1.3050 C.3     1  UNL1        0.0800
      2  C          5.3240    1.1570    1.4280 C.2     1  UNL1        0.1300
      3  C          4.7650    2.1500    0.4890 C.3     1  UNL1        0.0870
      4  O          4.6500    0.6540    2.2930 O.2     1  UNL1       -0.3000
      5  C          7.2430    0.9550   -0.1130 C.3     1  UNL1        0.0430
      6  C          7.6710   -0.3280   -0.6800 C.2     1  UNL1       -0.0440
      7  C          7.7450   -0.4940   -2.0480 C.2     1  UNL1        0.0080
      8  C          8.0110   -1.4050    0.1190 C.2     1  UNL1        0.0540
      9  C          8.1450   -1.6950   -2.6260 C.2     1  UNL1        0.0510
     10  C          8.4150   -2.6190   -0.4310 C.2     1  UNL1        0.1660
     11  C          8.4790   -2.7540   -1.8030 C.2     1  UNL1        0.1650
     12  O          8.8080   -3.8450    0.1050 O.2     1  UNL1       -0.4540
     13  O          8.9050   -4.0450   -2.0810 O.2     1  UNL1       -0.4540
     14  C          8.8570   -4.8310   -0.8940 C.3     1  UNL1        0.4680
@<TRIPOS>BOND
     1     9     7    1
     2     9    11    2
     3    13    11    1
     4    13    14    1
     5     7     6    2
     6    11    10    1
     7    14    12    1
     8     6     5    1
     9     6     8    1
    10    10    12    1
    11    10     8    2
    12     5     1    1
    13     3     2    1
    14     1     2    1
    15     2     4    2
