@<TRIPOS>MOLECULE
/home/cewinharhar/GITHUB/reincatalyze/data/processed/docking_pred/2023-May-31-1603_sub9_nm5_bs15_s42_ex16_mel10_mts1000_k50_ec05_g099_lra3e-4_lrc9e-3/69e2ce579100b0ee4b56c8bb4a95d1562fd611af_ligand_9.pdbqt
 14 15 0 0 0
SMALL
GASTEIGER

@<TRIPOS>ATOM
      1  C          5.7510    0.8710    0.3910 C.3     1  UNL1        0.0800
      2  C          5.4140    0.2730    1.6990 C.2     1  UNL1        0.1300
      3  C          6.2050   -0.8720    2.1930 C.3     1  UNL1        0.0870
      4  O          4.5000    0.7330    2.3370 O.2     1  UNL1       -0.3000
      5  C          6.5450    2.1500    0.5610 C.3     1  UNL1        0.0430
      6  C          7.9560    1.8490    0.8230 C.2     1  UNL1       -0.0440
      7  C          8.7330    1.2540   -0.1490 C.2     1  UNL1        0.0080
      8  C          8.5540    2.1430    2.0350 C.2     1  UNL1        0.0540
      9  C         10.0760    0.9520    0.0600 C.2     1  UNL1        0.0510
     10  C          9.8950    1.8520    2.2740 C.2     1  UNL1        0.1660
     11  C         10.6460    1.2570    1.2810 C.2     1  UNL1        0.1650
     12  O         10.7480    2.0270    3.3630 O.2     1  UNL1       -0.4540
     13  O         11.9310    1.0800    1.7740 O.2     1  UNL1       -0.4540
     14  C         11.9420    1.3120    3.1790 C.3     1  UNL1        0.4680
@<TRIPOS>BOND
     1     7     9    1
     2     7     6    2
     3     9    11    2
     4     1     5    1
     5     1     2    1
     6     5     6    1
     7     6     8    1
     8    11    13    1
     9    11    10    1
    10     2     3    1
    11     2     4    2
    12    13    14    1
    13     8    10    2
    14    10    12    1
    15    14    12    1
