@<TRIPOS>MOLECULE
/home/cewinharhar/GITHUB/reincatalyze/data/processed/docking_pred/2023-May-31-1603_sub9_nm5_bs15_s42_ex16_mel10_mts1000_k50_ec05_g099_lra3e-4_lrc9e-3/69e2ce579100b0ee4b56c8bb4a95d1562fd611af_ligand_9.pdbqt
 14 15 0 0 0
SMALL
GASTEIGER

@<TRIPOS>ATOM
      1  C          9.7160    1.3100    2.6210 C.3     1  UNL1        0.0800
      2  C         11.1510    0.9630    2.6600 C.2     1  UNL1        0.1300
      3  C         12.0560    1.7350    3.5350 C.3     1  UNL1        0.0870
      4  O         11.5550    0.0550    1.9760 O.2     1  UNL1       -0.3000
      5  C          9.3660    2.0530    1.3490 C.3     1  UNL1        0.0430
      6  C          8.6440    1.1750    0.4220 C.2     1  UNL1       -0.0440
      7  C          7.2820    0.9960    0.5500 C.2     1  UNL1        0.0080
      8  C          9.2890    0.5010   -0.6000 C.2     1  UNL1        0.0540
      9  C          6.5610    0.1710   -0.3080 C.2     1  UNL1        0.0510
     10  C          8.5940   -0.3310   -1.4740 C.2     1  UNL1        0.1660
     11  C          7.2320   -0.4890   -1.3200 C.2     1  UNL1        0.1650
     12  O          8.9610   -1.1160   -2.5670 O.2     1  UNL1       -0.4540
     13  O          6.7930   -1.3580   -2.3090 O.2     1  UNL1       -0.4540
     14  C          7.9140   -1.9750   -2.9360 C.3     1  UNL1        0.4680
@<TRIPOS>BOND
     1    14    12    1
     2    14    13    1
     3    12    10    1
     4    13    11    1
     5    10    11    2
     6    10     8    1
     7    11     9    1
     8     8     6    2
     9     9     7    2
    10     6     7    1
    11     6     5    1
    12     5     1    1
    13     4     2    2
    14     1     2    1
    15     2     3    1
