@<TRIPOS>MOLECULE
/home/cewinharhar/GITHUB/reincatalyze/data/processed/docking_pred/2023-May-31-1603_sub9_nm5_bs15_s42_ex16_mel10_mts1000_k50_ec05_g099_lra3e-4_lrc9e-3/6b061a7890d75c8b26c884693b3b8f9ee5a9c423_ligand_9.pdbqt
 14 15 0 0 0
SMALL
GASTEIGER

@<TRIPOS>ATOM
      1  C          6.3690    1.4900    0.5620 C.3     1  UNL1        0.0800
      2  C          5.3830    1.0180    1.5550 C.2     1  UNL1        0.1300
      3  C          5.6270   -0.2550    2.2630 C.3     1  UNL1        0.0870
      4  O          4.3990    1.6820    1.7670 O.2     1  UNL1       -0.3000
      5  C          5.9430    1.1330   -0.8470 C.3     1  UNL1        0.0430
      6  C          6.8470    0.1310   -1.4200 C.2     1  UNL1       -0.0440
      7  C          7.5300    0.3970   -2.5900 C.2     1  UNL1        0.0080
      8  C          7.0490   -1.1000   -0.8230 C.2     1  UNL1        0.0540
      9  C          8.3960   -0.5270   -3.1670 C.2     1  UNL1        0.0510
     10  C          7.9100   -2.0450   -1.3770 C.2     1  UNL1        0.1660
     11  C          8.5780   -1.7490   -2.5470 C.2     1  UNL1        0.1650
     12  O          8.3030   -3.3320   -1.0120 O.2     1  UNL1       -0.4540
     13  O          9.3590   -2.8470   -2.8760 O.2     1  UNL1       -0.4540
     14  C          8.9910   -3.9580   -2.0650 C.3     1  UNL1        0.4680
@<TRIPOS>BOND
     1     9     7    1
     2     9    11    2
     3    13    11    1
     4    13    14    1
     5     7     6    2
     6    11    10    1
     7    14    12    1
     8     6     5    1
     9     6     8    1
    10    10    12    1
    11    10     8    2
    12     5     1    1
    13     1     2    1
    14     2     4    2
    15     2     3    1
