@<TRIPOS>MOLECULE
/home/cewinharhar/GITHUB/reincatalyze/data/processed/docking_pred/2023-May-31-1603_sub9_nm5_bs15_s42_ex16_mel10_mts1000_k50_ec05_g099_lra3e-4_lrc9e-3/6ceeb54199aca0c96a32aff90fdf9e1d9b8e1f8c_ligand_9.pdbqt
 14 15 0 0 0
SMALL
GASTEIGER

@<TRIPOS>ATOM
      1  C          5.9130    0.2560    1.3860 C.3     1  UNL1        0.0800
      2  C          5.8810    0.8180    0.0210 C.2     1  UNL1        0.1300
      3  C          5.2080    2.1120   -0.2100 C.3     1  UNL1        0.0870
      4  O          6.4050    0.2080   -0.8780 O.2     1  UNL1       -0.3000
      5  C          6.2170   -1.2280    1.3620 C.3     1  UNL1        0.0430
      6  C          7.3870   -1.5270    2.1930 C.2     1  UNL1       -0.0440
      7  C          7.3790   -1.2320    3.5410 C.2     1  UNL1        0.0080
      8  C          8.5290   -2.1080    1.6690 C.2     1  UNL1        0.0540
      9  C          8.4690   -1.4990    4.3640 C.2     1  UNL1        0.0510
     10  C          9.6350   -2.3870    2.4680 C.2     1  UNL1        0.1660
     11  C          9.5950   -2.0800    3.8120 C.2     1  UNL1        0.1650
     12  O         10.8870   -2.9520    2.2290 O.2     1  UNL1       -0.4540
     13  O         10.8100   -2.4560    4.3670 O.2     1  UNL1       -0.4540
     14  C         11.7380   -2.7600    3.3300 C.3     1  UNL1        0.4680
@<TRIPOS>BOND
     1     4     2    2
     2     3     2    1
     3     2     1    1
     4     5     1    1
     5     5     6    1
     6     8     6    2
     7     8    10    1
     8     6     7    1
     9    12    10    1
    10    12    14    1
    11    10    11    2
    12    14    13    1
    13     7     9    2
    14    11     9    1
    15    11    13    1
