@<TRIPOS>MOLECULE
/home/cewinharhar/GITHUB/reincatalyze/data/processed/docking_pred/2023-May-31-1603_sub9_nm5_bs15_s42_ex16_mel10_mts1000_k50_ec05_g099_lra3e-4_lrc9e-3/6ceeb54199aca0c96a32aff90fdf9e1d9b8e1f8c_ligand_9.pdbqt
 14 15 0 0 0
SMALL
GASTEIGER

@<TRIPOS>ATOM
      1  C          5.5570   -0.1180    1.9330 C.3     1  UNL1        0.0800
      2  C          5.3350    1.0430    1.0480 C.2     1  UNL1        0.1300
      3  C          5.8830    1.0180   -0.3230 C.3     1  UNL1        0.0870
      4  O          4.7120    1.9880    1.4630 O.2     1  UNL1       -0.3000
      5  C          6.4330   -1.1580    1.2660 C.3     1  UNL1        0.0430
      6  C          7.5600   -1.5140    2.1330 C.2     1  UNL1       -0.0440
      7  C          7.5290   -1.2060    3.4780 C.2     1  UNL1        0.0080
      8  C          8.6830   -2.1600    1.6460 C.2     1  UNL1        0.0540
      9  C          8.5790   -1.5260    4.3340 C.2     1  UNL1        0.0510
     10  C          9.7490   -2.4930    2.4790 C.2     1  UNL1        0.1660
     11  C          9.6870   -2.1720    3.8190 C.2     1  UNL1        0.1650
     12  O         10.9750   -3.1270    2.2800 O.2     1  UNL1       -0.4540
     13  O         10.8630   -2.6090    4.4120 O.2     1  UNL1       -0.4540
     14  C         11.8020   -2.9720    3.4040 C.3     1  UNL1        0.4680
@<TRIPOS>BOND
     1     3     2    1
     2     2     4    2
     3     2     1    1
     4     5     1    1
     5     5     6    1
     6     8     6    2
     7     8    10    1
     8     6     7    1
     9    12    10    1
    10    12    14    1
    11    10    11    2
    12    14    13    1
    13     7     9    2
    14    11     9    1
    15    11    13    1
