@<TRIPOS>MOLECULE
/home/cewinharhar/GITHUB/reincatalyze/data/processed/docking_pred/2023-May-31-1603_sub9_nm5_bs15_s42_ex16_mel10_mts1000_k50_ec05_g099_lra3e-4_lrc9e-3/6ceeb54199aca0c96a32aff90fdf9e1d9b8e1f8c_ligand_9.pdbqt
 14 15 0 0 0
SMALL
GASTEIGER

@<TRIPOS>ATOM
      1  C          5.7410    1.7620    1.5050 C.3     1  UNL1        0.0800
      2  C          5.1300    0.5580    2.1040 C.2     1  UNL1        0.1300
      3  C          5.9330   -0.6760    2.2170 C.3     1  UNL1        0.0870
      4  O          3.9880    0.6080    2.4890 O.2     1  UNL1       -0.3000
      5  C          5.5660    1.7750    0.0000 C.3     1  UNL1        0.0430
      6  C          6.6450    1.0260   -0.6500 C.2     1  UNL1       -0.0440
      7  C          7.9570    1.4290   -0.5070 C.2     1  UNL1        0.0080
      8  C          6.3970   -0.0960   -1.4210 C.2     1  UNL1        0.0540
      9  C          9.0100    0.7460   -1.1090 C.2     1  UNL1        0.0510
     10  C          7.4300   -0.8000   -2.0340 C.2     1  UNL1        0.1660
     11  C          8.7310   -0.3720   -1.8730 C.2     1  UNL1        0.1650
     12  O          7.4850   -1.9330   -2.8460 O.2     1  UNL1       -0.4540
     13  O          9.5520   -1.2390   -2.5800 O.2     1  UNL1       -0.4540
     14  C          8.7590   -2.0710   -3.4210 C.3     1  UNL1        0.4680
@<TRIPOS>BOND
     1    14    12    1
     2    14    13    1
     3    12    10    1
     4    13    11    1
     5    10    11    2
     6    10     8    1
     7    11     9    1
     8     8     6    2
     9     9     7    2
    10     6     7    1
    11     6     5    1
    12     5     1    1
    13     1     2    1
    14     2     3    1
    15     2     4    2
