MODEL 1
REMARK VINA RESULT:      -7.4      0.000      0.000
REMARK SMILES CC(=O)CCc1ccc2c(c1)OCO2
REMARK SMILES IDX 4 1 2 2 1 3 3 4 5 5 6 6 7 7 11 8 8 9 10 10 9 11 12 12 14 13
REMARK SMILES IDX 13 14
REMARK H PARENT
REMARK Flexibility Score: inf
ROOT
ATOM      1  C   UNL     1       5.557  -0.118   1.933  1.00  0.00     0.080 C 
ENDROOT
BRANCH   1   2
ATOM      2  C   UNL     1       5.335   1.043   1.048  1.00  0.00     0.130 C 
ATOM      3  C   UNL     1       5.883   1.018  -0.323  1.00  0.00     0.087 C 
ATOM      4  O   UNL     1       4.712   1.988   1.463  1.00  0.00    -0.300 OA
ENDBRANCH   1   2
BRANCH   1   5
ATOM      5  C   UNL     1       6.433  -1.158   1.266  1.00  0.00     0.043 C 
BRANCH   5   6
ATOM      6  C   UNL     1       7.560  -1.514   2.133  1.00  0.00    -0.044 A 
ATOM      7  C   UNL     1       7.529  -1.206   3.478  1.00  0.00     0.008 A 
ATOM      8  C   UNL     1       8.683  -2.160   1.646  1.00  0.00     0.054 A 
ATOM      9  C   UNL     1       8.579  -1.526   4.334  1.00  0.00     0.051 A 
ATOM     10  C   UNL     1       9.749  -2.493   2.479  1.00  0.00     0.166 A 
ATOM     11  C   UNL     1       9.687  -2.172   3.819  1.00  0.00     0.165 A 
ATOM     12  O   UNL     1      10.975  -3.127   2.280  1.00  0.00    -0.454 OA
ATOM     13  O   UNL     1      10.863  -2.609   4.412  1.00  0.00    -0.454 OA
ATOM     14  C   UNL     1      11.802  -2.972   3.404  1.00  0.00     0.468 C 
ENDBRANCH   5   6
ENDBRANCH   1   5
TORSDOF 3
ENDMDL
MODEL 2
REMARK VINA RESULT:      -7.1      3.748      4.892
REMARK SMILES CC(=O)CCc1ccc2c(c1)OCO2
REMARK SMILES IDX 4 1 2 2 1 3 3 4 5 5 6 6 7 7 11 8 8 9 10 10 9 11 12 12 14 13
REMARK SMILES IDX 13 14
REMARK H PARENT
REMARK Flexibility Score: inf
ROOT
ATOM      1  C   UNL     1       5.741   1.762   1.505  1.00  0.00     0.080 C 
ENDROOT
BRANCH   1   2
ATOM      2  C   UNL     1       5.130   0.558   2.104  1.00  0.00     0.130 C 
ATOM      3  C   UNL     1       5.933  -0.676   2.217  1.00  0.00     0.087 C 
ATOM      4  O   UNL     1       3.988   0.608   2.489  1.00  0.00    -0.300 OA
ENDBRANCH   1   2
BRANCH   1   5
ATOM      5  C   UNL     1       5.566   1.775   0.000  1.00  0.00     0.043 C 
BRANCH   5   6
ATOM      6  C   UNL     1       6.645   1.026  -0.650  1.00  0.00    -0.044 A 
ATOM      7  C   UNL     1       7.957   1.429  -0.507  1.00  0.00     0.008 A 
ATOM      8  C   UNL     1       6.397  -0.096  -1.421  1.00  0.00     0.054 A 
ATOM      9  C   UNL     1       9.010   0.746  -1.109  1.00  0.00     0.051 A 
ATOM     10  C   UNL     1       7.430  -0.800  -2.034  1.00  0.00     0.166 A 
ATOM     11  C   UNL     1       8.731  -0.372  -1.873  1.00  0.00     0.165 A 
ATOM     12  O   UNL     1       7.485  -1.933  -2.846  1.00  0.00    -0.454 OA
ATOM     13  O   UNL     1       9.552  -1.239  -2.580  1.00  0.00    -0.454 OA
ATOM     14  C   UNL     1       8.759  -2.071  -3.421  1.00  0.00     0.468 C 
ENDBRANCH   5   6
ENDBRANCH   1   5
TORSDOF 3
ENDMDL
MODEL 3
REMARK VINA RESULT:      -7.1      1.008      1.051
REMARK SMILES CC(=O)CCc1ccc2c(c1)OCO2
REMARK SMILES IDX 4 1 2 2 1 3 3 4 5 5 6 6 7 7 11 8 8 9 10 10 9 11 12 12 14 13
REMARK SMILES IDX 13 14
REMARK H PARENT
REMARK Flexibility Score: inf
ROOT
ATOM      1  C   UNL     1       5.913   0.256   1.386  1.00  0.00     0.080 C 
ENDROOT
BRANCH   1   2
ATOM      2  C   UNL     1       5.881   0.818   0.021  1.00  0.00     0.130 C 
ATOM      3  C   UNL     1       5.208   2.112  -0.210  1.00  0.00     0.087 C 
ATOM      4  O   UNL     1       6.405   0.208  -0.878  1.00  0.00    -0.300 OA
ENDBRANCH   1   2
BRANCH   1   5
ATOM      5  C   UNL     1       6.217  -1.228   1.362  1.00  0.00     0.043 C 
BRANCH   5   6
ATOM      6  C   UNL     1       7.387  -1.527   2.193  1.00  0.00    -0.044 A 
ATOM      7  C   UNL     1       7.379  -1.232   3.541  1.00  0.00     0.008 A 
ATOM      8  C   UNL     1       8.529  -2.108   1.669  1.00  0.00     0.054 A 
ATOM      9  C   UNL     1       8.469  -1.499   4.364  1.00  0.00     0.051 A 
ATOM     10  C   UNL     1       9.635  -2.387   2.468  1.00  0.00     0.166 A 
ATOM     11  C   UNL     1       9.595  -2.080   3.812  1.00  0.00     0.165 A 
ATOM     12  O   UNL     1      10.887  -2.952   2.229  1.00  0.00    -0.454 OA
ATOM     13  O   UNL     1      10.810  -2.456   4.367  1.00  0.00    -0.454 OA
ATOM     14  C   UNL     1      11.738  -2.760   3.330  1.00  0.00     0.468 C 
ENDBRANCH   5   6
ENDBRANCH   1   5
TORSDOF 3
ENDMDL
MODEL 4
REMARK VINA RESULT:      -7.0      3.401      4.572
REMARK SMILES CC(=O)CCc1ccc2c(c1)OCO2
REMARK SMILES IDX 4 1 2 2 1 3 3 4 5 5 6 6 7 7 11 8 8 9 10 10 9 11 12 12 14 13
REMARK SMILES IDX 13 14
REMARK H PARENT
REMARK Flexibility Score: inf
ROOT
ATOM      1  C   UNL     1       6.518   1.350   0.416  1.00  0.00     0.080 C 
ENDROOT
BRANCH   1   2
ATOM      2  C   UNL     1       5.364   1.149   1.315  1.00  0.00     0.130 C 
ATOM      3  C   UNL     1       5.248  -0.117   2.065  1.00  0.00     0.087 C 
ATOM      4  O   UNL     1       4.540   2.024   1.418  1.00  0.00    -0.300 OA
ENDBRANCH   1   2
BRANCH   1   5
ATOM      5  C   UNL     1       6.175   0.972  -1.010  1.00  0.00     0.043 C 
BRANCH   5   6
ATOM      6  C   UNL     1       6.975  -0.178  -1.444  1.00  0.00    -0.044 A 
ATOM      7  C   UNL     1       7.451  -0.246  -2.737  1.00  0.00     0.008 A 
ATOM      8  C   UNL     1       7.279  -1.223  -0.590  1.00  0.00     0.054 A 
ATOM      9  C   UNL     1       8.213  -1.320  -3.189  1.00  0.00     0.051 A 
ATOM     10  C   UNL     1       8.040  -2.310  -1.013  1.00  0.00     0.166 A 
ATOM     11  C   UNL     1       8.501  -2.349  -2.312  1.00  0.00     0.165 A 
ATOM     12  O   UNL     1       8.494  -3.476  -0.397  1.00  0.00    -0.454 OA
ATOM     13  O   UNL     1       9.221  -3.525  -2.469  1.00  0.00    -0.454 OA
ATOM     14  C   UNL     1       8.999  -4.377  -1.349  1.00  0.00     0.468 C 
ENDBRANCH   5   6
ENDBRANCH   1   5
TORSDOF 3
ENDMDL
MODEL 5
REMARK VINA RESULT:      -6.9      0.869      1.771
REMARK SMILES CC(=O)CCc1ccc2c(c1)OCO2
REMARK SMILES IDX 4 1 2 2 1 3 3 4 5 5 6 6 7 7 11 8 8 9 10 10 9 11 12 12 14 13
REMARK SMILES IDX 13 14
REMARK H PARENT
REMARK Flexibility Score: inf
ROOT
ATOM      1  C   UNL     1       5.431   0.130   2.027  1.00  0.00     0.080 C 
ENDROOT
BRANCH   1   2
ATOM      2  C   UNL     1       5.206   1.190   1.023  1.00  0.00     0.130 C 
ATOM      3  C   UNL     1       5.818   1.056  -0.314  1.00  0.00     0.087 C 
ATOM      4  O   UNL     1       4.528   2.143   1.316  1.00  0.00    -0.300 OA
ENDBRANCH   1   2
BRANCH   1   5
ATOM      5  C   UNL     1       5.963  -1.133   1.382  1.00  0.00     0.043 C 
BRANCH   5   6
ATOM      6  C   UNL     1       7.242  -1.520   1.984  1.00  0.00    -0.044 A 
ATOM      7  C   UNL     1       8.167  -2.237   1.254  1.00  0.00     0.008 A 
ATOM      8  C   UNL     1       7.568  -1.187   3.288  1.00  0.00     0.054 A 
ATOM      9  C   UNL     1       9.393  -2.624   1.790  1.00  0.00     0.051 A 
ATOM     10  C   UNL     1       8.786  -1.560   3.850  1.00  0.00     0.166 A 
ATOM     11  C   UNL     1       9.690  -2.277   3.094  1.00  0.00     0.165 A 
ATOM     12  O   UNL     1       9.376  -1.374   5.100  1.00  0.00    -0.454 OA
ATOM     13  O   UNL     1      10.806  -2.516   3.884  1.00  0.00    -0.454 OA
ATOM     14  C   UNL     1      10.513  -2.187   5.239  1.00  0.00     0.468 C 
ENDBRANCH   5   6
ENDBRANCH   1   5
TORSDOF 3
ENDMDL
