@<TRIPOS>MOLECULE
/home/cewinharhar/GITHUB/reincatalyze/data/processed/docking_pred/2023-May-31-1603_sub9_nm5_bs15_s42_ex16_mel10_mts1000_k50_ec05_g099_lra3e-4_lrc9e-3/6ceeb54199aca0c96a32aff90fdf9e1d9b8e1f8c_ligand_9.pdbqt
 14 15 0 0 0
SMALL
GASTEIGER

@<TRIPOS>ATOM
      1  C          5.4310    0.1300    2.0270 C.3     1  UNL1        0.0800
      2  C          5.2060    1.1900    1.0230 C.2     1  UNL1        0.1300
      3  C          5.8180    1.0560   -0.3140 C.3     1  UNL1        0.0870
      4  O          4.5280    2.1430    1.3160 O.2     1  UNL1       -0.3000
      5  C          5.9630   -1.1330    1.3820 C.3     1  UNL1        0.0430
      6  C          7.2420   -1.5200    1.9840 C.2     1  UNL1       -0.0440
      7  C          8.1670   -2.2370    1.2540 C.2     1  UNL1        0.0080
      8  C          7.5680   -1.1870    3.2880 C.2     1  UNL1        0.0540
      9  C          9.3930   -2.6240    1.7900 C.2     1  UNL1        0.0510
     10  C          8.7860   -1.5600    3.8500 C.2     1  UNL1        0.1660
     11  C          9.6900   -2.2770    3.0940 C.2     1  UNL1        0.1650
     12  O          9.3760   -1.3740    5.1000 O.2     1  UNL1       -0.4540
     13  O         10.8060   -2.5160    3.8840 O.2     1  UNL1       -0.4540
     14  C         10.5130   -2.1870    5.2390 C.3     1  UNL1        0.4680
@<TRIPOS>BOND
     1     3     2    1
     2     2     4    2
     3     2     1    1
     4     7     9    1
     5     7     6    2
     6     5     6    1
     7     5     1    1
     8     9    11    2
     9     6     8    1
    10    11    10    1
    11    11    13    1
    12     8    10    2
    13    10    12    1
    14    13    14    1
    15    12    14    1
