@<TRIPOS>MOLECULE
/home/cewinharhar/GITHUB/reincatalyze/data/processed/docking_pred/2023-May-31-1603_sub9_nm5_bs15_s42_ex16_mel10_mts1000_k50_ec05_g099_lra3e-4_lrc9e-3/6dc168e099aae66a1c19408847f7f9495b2b5216_ligand_9.pdbqt
 14 15 0 0 0
SMALL
GASTEIGER

@<TRIPOS>ATOM
      1  C          5.8250    1.1660   -0.2660 C.3     1  UNL1        0.0800
      2  C          5.2860    1.0600    1.1040 C.2     1  UNL1        0.1300
      3  C          5.6610   -0.1000    1.9380 C.3     1  UNL1        0.0870
      4  O          4.5500    1.9230    1.5150 O.2     1  UNL1       -0.3000
      5  C          7.3350    1.2810   -0.2540 C.3     1  UNL1        0.0430
      6  C          7.9410    0.1960   -1.0320 C.2     1  UNL1       -0.0440
      7  C          7.2950   -0.3110   -2.1400 C.2     1  UNL1        0.0080
      8  C          9.1630   -0.3560   -0.6900 C.2     1  UNL1        0.0540
      9  C          7.8350   -1.3430   -2.9040 C.2     1  UNL1        0.0510
     10  C          9.7280   -1.3880   -1.4350 C.2     1  UNL1        0.1660
     11  C          9.0580   -1.8730   -2.5390 C.2     1  UNL1        0.1650
     12  O         10.9110   -2.1210   -1.3380 O.2     1  UNL1       -0.4540
     13  O          9.8300   -2.8840   -3.0920 O.2     1  UNL1       -0.4540
     14  C         10.8750   -3.2370   -2.1890 C.3     1  UNL1        0.4680
@<TRIPOS>BOND
     1    13    11    1
     2    13    14    1
     3     9    11    2
     4     9     7    1
     5    11    10    1
     6    14    12    1
     7     7     6    2
     8    10    12    1
     9    10     8    2
    10     6     8    1
    11     6     5    1
    12     1     5    1
    13     1     2    1
    14     2     4    2
    15     2     3    1
