@<TRIPOS>MOLECULE
/home/cewinharhar/GITHUB/reincatalyze/data/processed/docking_pred/2023-May-31-1603_sub9_nm5_bs15_s42_ex16_mel10_mts1000_k50_ec05_g099_lra3e-4_lrc9e-3/6dc168e099aae66a1c19408847f7f9495b2b5216_ligand_9.pdbqt
 14 15 0 0 0
SMALL
GASTEIGER

@<TRIPOS>ATOM
      1  C          5.9930    0.2400    1.8200 C.3     1  UNL1        0.0800
      2  C          4.9080    1.2030    1.5440 C.2     1  UNL1        0.1300
      3  C          5.0530    2.1500    0.4210 C.3     1  UNL1        0.0870
      4  O          3.9250    1.1960    2.2430 O.2     1  UNL1       -0.3000
      5  C          6.2790   -0.6260    0.6110 C.3     1  UNL1        0.0430
      6  C          7.6950   -0.5420    0.2400 C.2     1  UNL1       -0.0440
      7  C          8.1280    0.4260   -0.6430 C.2     1  UNL1        0.0080
      8  C          8.6390   -1.4150    0.7510 C.2     1  UNL1        0.0540
      9  C          9.4630    0.5390   -1.0210 C.2     1  UNL1        0.0510
     10  C          9.9820   -1.3260    0.3910 C.2     1  UNL1        0.1660
     11  C         10.3830   -0.3470   -0.4940 C.2     1  UNL1        0.1650
     12  O         11.1280   -2.0440    0.7320 O.2     1  UNL1       -0.4540
     13  O         11.7510   -0.4800   -0.6790 O.2     1  UNL1       -0.4540
     14  C         12.1930   -1.7160   -0.1220 C.3     1  UNL1        0.4680
@<TRIPOS>BOND
     1     9     7    1
     2     9    11    2
     3    13    11    1
     4    13    14    1
     5     7     6    2
     6    11    10    1
     7    14    12    1
     8     6     5    1
     9     6     8    1
    10    10    12    1
    11    10     8    2
    12     3     2    1
    13     5     1    1
    14     2     1    1
    15     2     4    2
