MODEL 1
REMARK VINA RESULT:      -8.2      0.000      0.000
REMARK SMILES CC(=O)CCc1ccc2c(c1)OCO2
REMARK SMILES IDX 4 1 2 2 1 3 3 4 5 5 6 6 7 7 11 8 8 9 10 10 9 11 12 12 14 13
REMARK SMILES IDX 13 14
REMARK H PARENT
REMARK Flexibility Score: inf
ROOT
ATOM      1  C   UNL     1       5.847   1.582   0.963  1.00  0.00     0.080 C 
ENDROOT
BRANCH   1   2
ATOM      2  C   UNL     1       5.317   0.563   1.892  1.00  0.00     0.130 C 
ATOM      3  C   UNL     1       6.150  -0.610   2.227  1.00  0.00     0.087 C 
ATOM      4  O   UNL     1       4.215   0.711   2.359  1.00  0.00    -0.300 OA
ENDBRANCH   1   2
BRANCH   1   5
ATOM      5  C   UNL     1       5.738   1.123  -0.476  1.00  0.00     0.043 C 
BRANCH   5   6
ATOM      6  C   UNL     1       6.956   0.417  -0.885  1.00  0.00    -0.044 A 
ATOM      7  C   UNL     1       8.192   1.004  -0.711  1.00  0.00     0.008 A 
ATOM      8  C   UNL     1       6.916  -0.843  -1.455  1.00  0.00     0.054 A 
ATOM      9  C   UNL     1       9.372   0.368  -1.088  1.00  0.00     0.051 A 
ATOM     10  C   UNL     1       8.080  -1.504  -1.841  1.00  0.00     0.166 A 
ATOM     11  C   UNL     1       9.301  -0.890  -1.654  1.00  0.00     0.165 A 
ATOM     12  O   UNL     1       8.345  -2.743  -2.423  1.00  0.00    -0.454 OA
ATOM     13  O   UNL     1      10.283  -1.754  -2.119  1.00  0.00    -0.454 OA
ATOM     14  C   UNL     1       9.679  -2.813  -2.856  1.00  0.00     0.468 C 
ENDBRANCH   5   6
ENDBRANCH   1   5
TORSDOF 3
ENDMDL
MODEL 2
REMARK VINA RESULT:      -7.8      1.058      1.802
REMARK SMILES CC(=O)CCc1ccc2c(c1)OCO2
REMARK SMILES IDX 4 1 2 2 1 3 3 4 5 5 6 6 7 7 11 8 8 9 10 10 9 11 12 12 14 13
REMARK SMILES IDX 13 14
REMARK H PARENT
REMARK Flexibility Score: inf
ROOT
ATOM      1  C   UNL     1       5.825   1.166  -0.266  1.00  0.00     0.080 C 
ENDROOT
BRANCH   1   2
ATOM      2  C   UNL     1       5.286   1.060   1.104  1.00  0.00     0.130 C 
ATOM      3  C   UNL     1       5.661  -0.100   1.938  1.00  0.00     0.087 C 
ATOM      4  O   UNL     1       4.550   1.923   1.515  1.00  0.00    -0.300 OA
ENDBRANCH   1   2
BRANCH   1   5
ATOM      5  C   UNL     1       7.335   1.281  -0.254  1.00  0.00     0.043 C 
BRANCH   5   6
ATOM      6  C   UNL     1       7.941   0.196  -1.032  1.00  0.00    -0.044 A 
ATOM      7  C   UNL     1       7.295  -0.311  -2.140  1.00  0.00     0.008 A 
ATOM      8  C   UNL     1       9.163  -0.356  -0.690  1.00  0.00     0.054 A 
ATOM      9  C   UNL     1       7.835  -1.343  -2.904  1.00  0.00     0.051 A 
ATOM     10  C   UNL     1       9.728  -1.388  -1.435  1.00  0.00     0.166 A 
ATOM     11  C   UNL     1       9.058  -1.873  -2.539  1.00  0.00     0.165 A 
ATOM     12  O   UNL     1      10.911  -2.121  -1.338  1.00  0.00    -0.454 OA
ATOM     13  O   UNL     1       9.830  -2.884  -3.092  1.00  0.00    -0.454 OA
ATOM     14  C   UNL     1      10.875  -3.237  -2.189  1.00  0.00     0.468 C 
ENDBRANCH   5   6
ENDBRANCH   1   5
TORSDOF 3
ENDMDL
MODEL 3
REMARK VINA RESULT:      -7.4      1.141      1.970
REMARK SMILES CC(=O)CCc1ccc2c(c1)OCO2
REMARK SMILES IDX 4 1 2 2 1 3 3 4 5 5 6 6 7 7 11 8 8 9 10 10 9 11 12 12 14 13
REMARK SMILES IDX 13 14
REMARK H PARENT
REMARK Flexibility Score: inf
ROOT
ATOM      1  C   UNL     1       6.271   1.706   0.291  1.00  0.00     0.080 C 
ENDROOT
BRANCH   1   2
ATOM      2  C   UNL     1       5.293   1.227   1.289  1.00  0.00     0.130 C 
ATOM      3  C   UNL     1       5.530  -0.064   1.967  1.00  0.00     0.087 C 
ATOM      4  O   UNL     1       4.321   1.899   1.529  1.00  0.00    -0.300 OA
ENDBRANCH   1   2
BRANCH   1   5
ATOM      5  C   UNL     1       6.121   0.968  -1.023  1.00  0.00     0.043 C 
BRANCH   5   6
ATOM      6  C   UNL     1       7.266   0.081  -1.248  1.00  0.00    -0.044 A 
ATOM      7  C   UNL     1       7.104  -1.106  -1.932  1.00  0.00     0.008 A 
ATOM      8  C   UNL     1       8.535   0.391  -0.791  1.00  0.00     0.054 A 
ATOM      9  C   UNL     1       8.165  -1.977  -2.166  1.00  0.00     0.051 A 
ATOM     10  C   UNL     1       9.615  -0.459  -1.010  1.00  0.00     0.166 A 
ATOM     11  C   UNL     1       9.420  -1.639  -1.697  1.00  0.00     0.165 A 
ATOM     12  O   UNL     1      10.969  -0.414  -0.678  1.00  0.00    -0.454 OA
ATOM     13  O   UNL     1      10.643  -2.290  -1.775  1.00  0.00    -0.454 OA
ATOM     14  C   UNL     1      11.577  -1.660  -0.902  1.00  0.00     0.468 C 
ENDBRANCH   5   6
ENDBRANCH   1   5
TORSDOF 3
ENDMDL
MODEL 4
REMARK VINA RESULT:      -7.4      1.975      2.419
REMARK SMILES CC(=O)CCc1ccc2c(c1)OCO2
REMARK SMILES IDX 4 1 2 2 1 3 3 4 5 5 6 6 7 7 11 8 8 9 10 10 9 11 12 12 14 13
REMARK SMILES IDX 13 14
REMARK H PARENT
REMARK Flexibility Score: inf
ROOT
ATOM      1  C   UNL     1       5.993   0.240   1.820  1.00  0.00     0.080 C 
ENDROOT
BRANCH   1   2
ATOM      2  C   UNL     1       4.908   1.203   1.544  1.00  0.00     0.130 C 
ATOM      3  C   UNL     1       5.053   2.150   0.421  1.00  0.00     0.087 C 
ATOM      4  O   UNL     1       3.925   1.196   2.243  1.00  0.00    -0.300 OA
ENDBRANCH   1   2
BRANCH   1   5
ATOM      5  C   UNL     1       6.279  -0.626   0.611  1.00  0.00     0.043 C 
BRANCH   5   6
ATOM      6  C   UNL     1       7.695  -0.542   0.240  1.00  0.00    -0.044 A 
ATOM      7  C   UNL     1       8.128   0.426  -0.643  1.00  0.00     0.008 A 
ATOM      8  C   UNL     1       8.639  -1.415   0.751  1.00  0.00     0.054 A 
ATOM      9  C   UNL     1       9.463   0.539  -1.021  1.00  0.00     0.051 A 
ATOM     10  C   UNL     1       9.982  -1.326   0.391  1.00  0.00     0.166 A 
ATOM     11  C   UNL     1      10.383  -0.347  -0.494  1.00  0.00     0.165 A 
ATOM     12  O   UNL     1      11.128  -2.044   0.732  1.00  0.00    -0.454 OA
ATOM     13  O   UNL     1      11.751  -0.480  -0.679  1.00  0.00    -0.454 OA
ATOM     14  C   UNL     1      12.193  -1.716  -0.122  1.00  0.00     0.468 C 
ENDBRANCH   5   6
ENDBRANCH   1   5
TORSDOF 3
ENDMDL
MODEL 5
REMARK VINA RESULT:      -7.4      1.418      2.160
REMARK SMILES CC(=O)CCc1ccc2c(c1)OCO2
REMARK SMILES IDX 4 1 2 2 1 3 3 4 5 5 6 6 7 7 11 8 8 9 10 10 9 11 12 12 14 13
REMARK SMILES IDX 13 14
REMARK H PARENT
REMARK Flexibility Score: inf
ROOT
ATOM      1  C   UNL     1       6.594   0.173   1.845  1.00  0.00     0.080 C 
ENDROOT
BRANCH   1   2
ATOM      2  C   UNL     1       5.306   0.867   1.645  1.00  0.00     0.130 C 
ATOM      3  C   UNL     1       5.168   1.823   0.528  1.00  0.00     0.087 C 
ATOM      4  O   UNL     1       4.392   0.638   2.398  1.00  0.00    -0.300 OA
ENDBRANCH   1   2
BRANCH   1   5
ATOM      5  C   UNL     1       6.491  -1.293   1.478  1.00  0.00     0.043 C 
BRANCH   5   6
ATOM      6  C   UNL     1       7.269  -1.576   0.268  1.00  0.00    -0.044 A 
ATOM      7  C   UNL     1       6.816  -1.158  -0.966  1.00  0.00     0.008 A 
ATOM      8  C   UNL     1       8.469  -2.265   0.314  1.00  0.00     0.054 A 
ATOM      9  C   UNL     1       7.524  -1.408  -2.138  1.00  0.00     0.051 A 
ATOM     10  C   UNL     1       9.199  -2.529  -0.842  1.00  0.00     0.166 A 
ATOM     11  C   UNL     1       8.719  -2.098  -2.061  1.00  0.00     0.165 A 
ATOM     12  O   UNL     1      10.405  -3.181  -1.101  1.00  0.00    -0.454 OA
ATOM     13  O   UNL     1       9.627  -2.488  -3.035  1.00  0.00    -0.454 OA
ATOM     14  C   UNL     1      10.562  -3.408  -2.478  1.00  0.00     0.468 C 
ENDBRANCH   5   6
ENDBRANCH   1   5
TORSDOF 3
ENDMDL
