@<TRIPOS>MOLECULE
/home/cewinharhar/GITHUB/reincatalyze/data/processed/docking_pred/2023-May-31-1603_sub9_nm5_bs15_s42_ex16_mel10_mts1000_k50_ec05_g099_lra3e-4_lrc9e-3/6dc168e099aae66a1c19408847f7f9495b2b5216_ligand_9.pdbqt
 14 15 0 0 0
SMALL
GASTEIGER

@<TRIPOS>ATOM
      1  C          6.2710    1.7060    0.2910 C.3     1  UNL1        0.0800
      2  C          5.2930    1.2270    1.2890 C.2     1  UNL1        0.1300
      3  C          5.5300   -0.0640    1.9670 C.3     1  UNL1        0.0870
      4  O          4.3210    1.8990    1.5290 O.2     1  UNL1       -0.3000
      5  C          6.1210    0.9680   -1.0230 C.3     1  UNL1        0.0430
      6  C          7.2660    0.0810   -1.2480 C.2     1  UNL1       -0.0440
      7  C          7.1040   -1.1060   -1.9320 C.2     1  UNL1        0.0080
      8  C          8.5350    0.3910   -0.7910 C.2     1  UNL1        0.0540
      9  C          8.1650   -1.9770   -2.1660 C.2     1  UNL1        0.0510
     10  C          9.6150   -0.4590   -1.0100 C.2     1  UNL1        0.1660
     11  C          9.4200   -1.6390   -1.6970 C.2     1  UNL1        0.1650
     12  O         10.9690   -0.4140   -0.6780 O.2     1  UNL1       -0.4540
     13  O         10.6430   -2.2900   -1.7750 O.2     1  UNL1       -0.4540
     14  C         11.5770   -1.6600   -0.9020 C.3     1  UNL1        0.4680
@<TRIPOS>BOND
     1     9     7    1
     2     9    11    2
     3     7     6    2
     4    13    11    1
     5    13    14    1
     6    11    10    1
     7     6     5    1
     8     6     8    1
     9     5     1    1
    10    10     8    2
    11    10    12    1
    12    14    12    1
    13     1     2    1
    14     2     4    2
    15     2     3    1
