@<TRIPOS>MOLECULE
/home/cewinharhar/GITHUB/reincatalyze/data/processed/docking_pred/2023-May-31-1603_sub9_nm5_bs15_s42_ex16_mel10_mts1000_k50_ec05_g099_lra3e-4_lrc9e-3/6dc168e099aae66a1c19408847f7f9495b2b5216_ligand_9.pdbqt
 14 15 0 0 0
SMALL
GASTEIGER

@<TRIPOS>ATOM
      1  C          6.5940    0.1730    1.8450 C.3     1  UNL1        0.0800
      2  C          5.3060    0.8670    1.6450 C.2     1  UNL1        0.1300
      3  C          5.1680    1.8230    0.5280 C.3     1  UNL1        0.0870
      4  O          4.3920    0.6380    2.3980 O.2     1  UNL1       -0.3000
      5  C          6.4910   -1.2930    1.4780 C.3     1  UNL1        0.0430
      6  C          7.2690   -1.5760    0.2680 C.2     1  UNL1       -0.0440
      7  C          6.8160   -1.1580   -0.9660 C.2     1  UNL1        0.0080
      8  C          8.4690   -2.2650    0.3140 C.2     1  UNL1        0.0540
      9  C          7.5240   -1.4080   -2.1380 C.2     1  UNL1        0.0510
     10  C          9.1990   -2.5290   -0.8420 C.2     1  UNL1        0.1660
     11  C          8.7190   -2.0980   -2.0610 C.2     1  UNL1        0.1650
     12  O         10.4050   -3.1810   -1.1010 O.2     1  UNL1       -0.4540
     13  O          9.6270   -2.4880   -3.0350 O.2     1  UNL1       -0.4540
     14  C         10.5620   -3.4080   -2.4780 C.3     1  UNL1        0.4680
@<TRIPOS>BOND
     1    13    14    1
     2    13    11    1
     3    14    12    1
     4     9    11    2
     5     9     7    1
     6    11    10    1
     7    12    10    1
     8     7     6    2
     9    10     8    2
    10     6     8    1
    11     6     5    1
    12     3     2    1
    13     5     1    1
    14     2     1    1
    15     2     4    2
