@<TRIPOS>MOLECULE
/home/cewinharhar/GITHUB/reincatalyze/data/processed/docking_pred/2023-May-31-1603_sub9_nm5_bs15_s42_ex16_mel10_mts1000_k50_ec05_g099_lra3e-4_lrc9e-3/6e01533e6265e20f53eb8495178921d7241890ed_ligand_9.pdbqt
 14 15 0 0 0
SMALL
GASTEIGER

@<TRIPOS>ATOM
      1  C          5.6140    1.8390    1.3310 C.3     1  UNL1        0.0800
      2  C          5.1370    0.6450    2.0560 C.2     1  UNL1        0.1300
      3  C          6.0540   -0.4980    2.2440 C.3     1  UNL1        0.0870
      4  O          4.0090    0.6270    2.4820 O.2     1  UNL1       -0.3000
      5  C          5.4290    1.6830   -0.1650 C.3     1  UNL1        0.0430
      6  C          6.5590    0.9570   -0.7510 C.2     1  UNL1       -0.0440
      7  C          7.8480    1.4150   -0.5740 C.2     1  UNL1        0.0080
      8  C          6.3820   -0.1970   -1.4930 C.2     1  UNL1        0.0540
      9  C          8.9490    0.7550   -1.1140 C.2     1  UNL1        0.0510
     10  C          7.4630   -0.8790   -2.0460 C.2     1  UNL1        0.1660
     11  C          8.7400   -0.3960   -1.8510 C.2     1  UNL1        0.1650
     12  O          7.5910   -2.0340   -2.8180 O.2     1  UNL1       -0.4540
     13  O          9.6190   -1.2510   -2.4990 O.2     1  UNL1       -0.4540
     14  C          8.8900   -2.1400   -3.3420 C.3     1  UNL1        0.4680
@<TRIPOS>BOND
     1    14    12    1
     2    14    13    1
     3    12    10    1
     4    13    11    1
     5    10    11    2
     6    10     8    1
     7    11     9    1
     8     8     6    2
     9     9     7    2
    10     6     7    1
    11     6     5    1
    12     5     1    1
    13     1     2    1
    14     2     3    1
    15     2     4    2
