MODEL 1
REMARK VINA RESULT:      -8.1      0.000      0.000
REMARK SMILES CC(=O)CCc1ccc2c(c1)OCO2
REMARK SMILES IDX 4 1 2 2 1 3 3 4 5 5 6 6 7 7 11 8 8 9 10 10 9 11 12 12 14 13
REMARK SMILES IDX 13 14
REMARK H PARENT
REMARK Flexibility Score: inf
ROOT
ATOM      1  C   UNL     1       6.050   1.545   1.206  1.00  0.00     0.080 C 
ENDROOT
BRANCH   1   2
ATOM      2  C   UNL     1       5.463   0.452   2.007  1.00  0.00     0.130 C 
ATOM      3  C   UNL     1       6.267  -0.757   2.276  1.00  0.00     0.087 C 
ATOM      4  O   UNL     1       4.338   0.569   2.425  1.00  0.00    -0.300 OA
ENDBRANCH   1   2
BRANCH   1   5
ATOM      5  C   UNL     1       5.738   1.376  -0.266  1.00  0.00     0.043 C 
BRANCH   5   6
ATOM      6  C   UNL     1       6.790   0.599  -0.929  1.00  0.00    -0.044 A 
ATOM      7  C   UNL     1       8.103   1.018  -0.877  1.00  0.00     0.008 A 
ATOM      8  C   UNL     1       6.513  -0.565  -1.624  1.00  0.00     0.054 A 
ATOM      9  C   UNL     1       9.131   0.310  -1.494  1.00  0.00     0.051 A 
ATOM     10  C   UNL     1       7.520  -1.295  -2.251  1.00  0.00     0.166 A 
ATOM     11  C   UNL     1       8.824  -0.849  -2.180  1.00  0.00     0.165 A 
ATOM     12  O   UNL     1       7.544  -2.470  -3.001  1.00  0.00    -0.454 OA
ATOM     13  O   UNL     1       9.615  -1.748  -2.881  1.00  0.00    -0.454 OA
ATOM     14  C   UNL     1       8.788  -2.631  -3.633  1.00  0.00     0.468 C 
ENDBRANCH   5   6
ENDBRANCH   1   5
TORSDOF 3
ENDMDL
MODEL 2
REMARK VINA RESULT:      -7.5      1.016      1.033
REMARK SMILES CC(=O)CCc1ccc2c(c1)OCO2
REMARK SMILES IDX 4 1 2 2 1 3 3 4 5 5 6 6 7 7 11 8 8 9 10 10 9 11 12 12 14 13
REMARK SMILES IDX 13 14
REMARK H PARENT
REMARK Flexibility Score: inf
ROOT
ATOM      1  C   UNL     1       6.366   1.171   0.922  1.00  0.00     0.080 C 
ENDROOT
BRANCH   1   2
ATOM      2  C   UNL     1       5.665   0.372   1.947  1.00  0.00     0.130 C 
ATOM      3  C   UNL     1       6.317  -0.837   2.489  1.00  0.00     0.087 C 
ATOM      4  O   UNL     1       4.573   0.724   2.321  1.00  0.00    -0.300 OA
ENDBRANCH   1   2
BRANCH   1   5
ATOM      5  C   UNL     1       5.824   0.884  -0.463  1.00  0.00     0.043 C 
BRANCH   5   6
ATOM      6  C   UNL     1       6.778   0.081  -1.233  1.00  0.00    -0.044 A 
ATOM      7  C   UNL     1       7.496   0.650  -2.264  1.00  0.00     0.008 A 
ATOM      8  C   UNL     1       6.992  -1.260  -0.962  1.00  0.00     0.054 A 
ATOM      9  C   UNL     1       8.411  -0.078  -3.019  1.00  0.00     0.051 A 
ATOM     10  C   UNL     1       7.901  -2.014  -1.701  1.00  0.00     0.166 A 
ATOM     11  C   UNL     1       8.604  -1.415  -2.725  1.00  0.00     0.165 A 
ATOM     12  O   UNL     1       8.317  -3.345  -1.661  1.00  0.00    -0.454 OA
ATOM     13  O   UNL     1       9.429  -2.377  -3.290  1.00  0.00    -0.454 OA
ATOM     14  C   UNL     1       9.062  -3.667  -2.807  1.00  0.00     0.468 C 
ENDBRANCH   5   6
ENDBRANCH   1   5
TORSDOF 3
ENDMDL
MODEL 3
REMARK VINA RESULT:      -7.3      1.625      5.441
REMARK SMILES CC(=O)CCc1ccc2c(c1)OCO2
REMARK SMILES IDX 4 1 2 2 1 3 3 4 5 5 6 6 7 7 11 8 8 9 10 10 9 11 12 12 14 13
REMARK SMILES IDX 13 14
REMARK H PARENT
REMARK Flexibility Score: inf
ROOT
ATOM      1  C   UNL     1       8.182  -2.514  -3.605  1.00  0.00     0.080 C 
ENDROOT
BRANCH   1   2
ATOM      2  C   UNL     1       9.253  -3.515  -3.424  1.00  0.00     0.130 C 
ATOM      3  C   UNL     1       8.897  -4.947  -3.357  1.00  0.00     0.087 C 
ATOM      4  O   UNL     1      10.396  -3.142  -3.333  1.00  0.00    -0.300 OA
ENDBRANCH   1   2
BRANCH   1   5
ATOM      5  C   UNL     1       8.598  -1.162  -3.065  1.00  0.00     0.043 C 
BRANCH   5   6
ATOM      6  C   UNL     1       7.796  -0.808  -1.890  1.00  0.00    -0.044 A 
ATOM      7  C   UNL     1       6.994   0.315  -1.906  1.00  0.00     0.008 A 
ATOM      8  C   UNL     1       7.811  -1.572  -0.736  1.00  0.00     0.054 A 
ATOM      9  C   UNL     1       6.218   0.686  -0.811  1.00  0.00     0.051 A 
ATOM     10  C   UNL     1       7.045  -1.226   0.375  1.00  0.00     0.166 A 
ATOM     11  C   UNL     1       6.253  -0.097   0.327  1.00  0.00     0.165 A 
ATOM     12  O   UNL     1       6.860  -1.785   1.639  1.00  0.00    -0.454 OA
ATOM     13  O   UNL     1       5.605   0.015   1.549  1.00  0.00    -0.454 OA
ATOM     14  C   UNL     1       6.184  -0.890   2.484  1.00  0.00     0.468 C 
ENDBRANCH   5   6
ENDBRANCH   1   5
TORSDOF 3
ENDMDL
MODEL 4
REMARK VINA RESULT:      -7.2      1.267      1.675
REMARK SMILES CC(=O)CCc1ccc2c(c1)OCO2
REMARK SMILES IDX 4 1 2 2 1 3 3 4 5 5 6 6 7 7 11 8 8 9 10 10 9 11 12 12 14 13
REMARK SMILES IDX 13 14
REMARK H PARENT
REMARK Flexibility Score: inf
ROOT
ATOM      1  C   UNL     1       5.828  -0.178   1.287  1.00  0.00     0.080 C 
ENDROOT
BRANCH   1   2
ATOM      2  C   UNL     1       4.929   0.971   1.515  1.00  0.00     0.130 C 
ATOM      3  C   UNL     1       5.029   2.150   0.631  1.00  0.00     0.087 C 
ATOM      4  O   UNL     1       4.131   0.923   2.418  1.00  0.00    -0.300 OA
ENDBRANCH   1   2
BRANCH   1   5
ATOM      5  C   UNL     1       7.222   0.281   0.913  1.00  0.00     0.043 C 
BRANCH   5   6
ATOM      6  C   UNL     1       7.642  -0.328  -0.352  1.00  0.00    -0.044 A 
ATOM      7  C   UNL     1       7.847   0.456  -1.469  1.00  0.00     0.008 A 
ATOM      8  C   UNL     1       7.846  -1.691  -0.477  1.00  0.00     0.054 A 
ATOM      9  C   UNL     1       8.245  -0.083  -2.689  1.00  0.00     0.051 A 
ATOM     10  C   UNL     1       8.245  -2.259  -1.684  1.00  0.00     0.166 A 
ATOM     11  C   UNL     1       8.442  -1.448  -2.782  1.00  0.00     0.165 A 
ATOM     12  O   UNL     1       8.521  -3.562  -2.100  1.00  0.00    -0.454 OA
ATOM     13  O   UNL     1       8.830  -2.257  -3.841  1.00  0.00    -0.454 OA
ATOM     14  C   UNL     1       8.623  -3.625  -3.499  1.00  0.00     0.468 C 
ENDBRANCH   5   6
ENDBRANCH   1   5
TORSDOF 3
ENDMDL
MODEL 5
REMARK VINA RESULT:      -7.0      1.209      5.250
REMARK SMILES CC(=O)CCc1ccc2c(c1)OCO2
REMARK SMILES IDX 4 1 2 2 1 3 3 4 5 5 6 6 7 7 11 8 8 9 10 10 9 11 12 12 14 13
REMARK SMILES IDX 13 14
REMARK H PARENT
REMARK Flexibility Score: inf
ROOT
ATOM      1  C   UNL     1       8.274   0.094  -2.674  1.00  0.00     0.080 C 
ENDROOT
BRANCH   1   2
ATOM      2  C   UNL     1       7.896  -1.328  -2.798  1.00  0.00     0.130 C 
ATOM      3  C   UNL     1       8.900  -2.302  -3.271  1.00  0.00     0.087 C 
ATOM      4  O   UNL     1       6.775  -1.665  -2.509  1.00  0.00    -0.300 OA
ENDBRANCH   1   2
BRANCH   1   5
ATOM      5  C   UNL     1       8.873   0.387  -1.314  1.00  0.00     0.043 C 
BRANCH   5   6
ATOM      6  C   UNL     1       7.840   0.337  -0.275  1.00  0.00    -0.044 A 
ATOM      7  C   UNL     1       7.876  -0.641   0.697  1.00  0.00     0.008 A 
ATOM      8  C   UNL     1       6.803   1.252  -0.229  1.00  0.00     0.054 A 
ATOM      9  C   UNL     1       6.914  -0.723   1.700  1.00  0.00     0.051 A 
ATOM     10  C   UNL     1       5.826   1.195   0.762  1.00  0.00     0.166 A 
ATOM     11  C   UNL     1       5.891   0.205   1.721  1.00  0.00     0.165 A 
ATOM     12  O   UNL     1       4.696   1.957   1.056  1.00  0.00    -0.454 OA
ATOM     13  O   UNL     1       4.811   0.375   2.576  1.00  0.00    -0.454 OA
ATOM     14  C   UNL     1       3.896   1.311   2.013  1.00  0.00     0.468 C 
ENDBRANCH   5   6
ENDBRANCH   1   5
TORSDOF 3
ENDMDL
