@<TRIPOS>MOLECULE
/home/cewinharhar/GITHUB/reincatalyze/data/processed/docking_pred/2023-May-31-1603_sub9_nm5_bs15_s42_ex16_mel10_mts1000_k50_ec05_g099_lra3e-4_lrc9e-3/6eca206a948153dc2868ed9d680cd756ab453321_ligand_9.pdbqt
 14 15 0 0 0
SMALL
GASTEIGER

@<TRIPOS>ATOM
      1  C          6.3120    1.2490    0.9700 C.3     1  UNL1        0.0800
      2  C          5.5890    0.4300    1.9630 C.2     1  UNL1        0.1300
      3  C          6.2450   -0.7690    2.5230 C.3     1  UNL1        0.0870
      4  O          4.4770    0.7570    2.2980 O.2     1  UNL1       -0.3000
      5  C          5.8160    0.9730   -0.4340 C.3     1  UNL1        0.0430
      6  C          6.7400    0.0810   -1.1410 C.2     1  UNL1       -0.0440
      7  C          7.3240    0.4800   -2.3250 C.2     1  UNL1        0.0080
      8  C          7.0590   -1.1750   -0.6570 C.2     1  UNL1        0.0540
      9  C          8.2060   -0.3370   -3.0270 C.2     1  UNL1        0.0510
     10  C          7.9380   -2.0150   -1.3370 C.2     1  UNL1        0.1660
     11  C          8.5050   -1.5870   -2.5190 C.2     1  UNL1        0.1650
     12  O          8.4340   -3.2970   -1.1010 O.2     1  UNL1       -0.4540
     13  O          9.3300   -2.6020   -2.9830 O.2     1  UNL1       -0.4540
     14  C          9.0870   -3.7940   -2.2400 C.3     1  UNL1        0.4680
@<TRIPOS>BOND
     1     9    11    2
     2     9     7    1
     3    13    11    1
     4    13    14    1
     5    11    10    1
     6     7     6    2
     7    14    12    1
     8    10    12    1
     9    10     8    2
    10     6     8    1
    11     6     5    1
    12     5     1    1
    13     1     2    1
    14     2     4    2
    15     2     3    1
