@<TRIPOS>MOLECULE
/home/cewinharhar/GITHUB/reincatalyze/data/processed/docking_pred/2023-May-31-1603_sub9_nm5_bs15_s42_ex16_mel10_mts1000_k50_ec05_g099_lra3e-4_lrc9e-3/7076afde4386affa59e586c5ec9b2181426a643f_ligand_9.pdbqt
 14 15 0 0 0
SMALL
GASTEIGER

@<TRIPOS>ATOM
      1  C          5.6350    1.8070    1.3490 C.3     1  UNL1        0.0800
      2  C          5.1440    0.6160    2.0720 C.2     1  UNL1        0.1300
      3  C          6.0490   -0.5360    2.2620 C.3     1  UNL1        0.0870
      4  O          4.0140    0.6090    2.4940 O.2     1  UNL1       -0.3000
      5  C          5.4400    1.6590   -0.1460 C.3     1  UNL1        0.0430
      6  C          6.5670    0.9380   -0.7440 C.2     1  UNL1       -0.0440
      7  C          7.8570    1.3990   -0.5760 C.2     1  UNL1        0.0080
      8  C          6.3870   -0.2140   -1.4890 C.2     1  UNL1        0.0540
      9  C          8.9540    0.7440   -1.1270 C.2     1  UNL1        0.0510
     10  C          7.4660   -0.8910   -2.0530 C.2     1  UNL1        0.1660
     11  C          8.7430   -0.4050   -1.8670 C.2     1  UNL1        0.1650
     12  O          7.5900   -2.0420   -2.8300 O.2     1  UNL1       -0.4540
     13  O          9.6190   -1.2560   -2.5250 O.2     1  UNL1       -0.4540
     14  C          8.8850   -2.1430   -3.3650 C.3     1  UNL1        0.4680
@<TRIPOS>BOND
     1    14    12    1
     2    14    13    1
     3    12    10    1
     4    13    11    1
     5    10    11    2
     6    10     8    1
     7    11     9    1
     8     8     6    2
     9     9     7    2
    10     6     7    1
    11     6     5    1
    12     5     1    1
    13     1     2    1
    14     2     3    1
    15     2     4    2
