@<TRIPOS>MOLECULE
/home/cewinharhar/GITHUB/reincatalyze/data/processed/docking_pred/2023-May-31-1603_sub9_nm5_bs15_s42_ex16_mel10_mts1000_k50_ec05_g099_lra3e-4_lrc9e-3/7076afde4386affa59e586c5ec9b2181426a643f_ligand_9.pdbqt
 14 15 0 0 0
SMALL
GASTEIGER

@<TRIPOS>ATOM
      1  C          5.6910    1.1820   -0.2010 C.3     1  UNL1        0.0800
      2  C          5.0980    1.2030    1.1520 C.2     1  UNL1        0.1300
      3  C          5.3370    0.0640    2.0610 C.3     1  UNL1        0.0870
      4  O          4.4310    2.1500    1.4860 O.2     1  UNL1       -0.3000
      5  C          7.1980    1.0430   -0.1380 C.3     1  UNL1        0.0430
      6  C          7.6200   -0.2450   -0.6980 C.2     1  UNL1       -0.0440
      7  C          7.6620   -0.4300   -2.0640 C.2     1  UNL1        0.0080
      8  C          7.9860   -1.3090    0.1080 C.2     1  UNL1        0.0540
      9  C          8.0560   -1.6370   -2.6350 C.2     1  UNL1        0.0510
     10  C          8.3850   -2.5280   -0.4350 C.2     1  UNL1        0.1660
     11  C          8.4170   -2.6810   -1.8050 C.2     1  UNL1        0.1650
     12  O          8.7990   -3.7430    0.1090 O.2     1  UNL1       -0.4540
     13  O          8.8440   -3.9730   -2.0760 O.2     1  UNL1       -0.4540
     14  C          8.8300   -4.7440   -0.8770 C.3     1  UNL1        0.4680
@<TRIPOS>BOND
     1     9     7    1
     2     9    11    2
     3    13    11    1
     4    13    14    1
     5     7     6    2
     6    11    10    1
     7    14    12    1
     8     6     5    1
     9     6     8    1
    10    10     8    2
    11    10    12    1
    12     1     5    1
    13     1     2    1
    14     2     4    2
    15     2     3    1
