@<TRIPOS>MOLECULE
/home/cewinharhar/GITHUB/reincatalyze/data/processed/docking_pred/2023-May-31-1603_sub9_nm5_bs15_s42_ex16_mel10_mts1000_k50_ec05_g099_lra3e-4_lrc9e-3/7076afde4386affa59e586c5ec9b2181426a643f_ligand_9.pdbqt
 14 15 0 0 0
SMALL
GASTEIGER

@<TRIPOS>ATOM
      1  C          6.2600    1.3430    0.9400 C.3     1  UNL1        0.0800
      2  C          5.5640    0.5210    1.9500 C.2     1  UNL1        0.1300
      3  C          6.2360   -0.6770    2.4910 C.3     1  UNL1        0.0870
      4  O          4.4610    0.8460    2.3130 O.2     1  UNL1       -0.3000
      5  C          5.7630    1.0330   -0.4570 C.3     1  UNL1        0.0430
      6  C          6.7150    0.1690   -1.1620 C.2     1  UNL1       -0.0440
      7  C          7.3890    0.6350   -2.2710 C.2     1  UNL1        0.0080
      8  C          6.9710   -1.1270   -0.7500 C.2     1  UNL1        0.0540
      9  C          8.3000   -0.1530   -2.9690 C.2     1  UNL1        0.0510
     10  C          7.8770   -1.9390   -1.4280 C.2     1  UNL1        0.1660
     11  C          8.5350   -1.4440   -2.5340 C.2     1  UNL1        0.1650
     12  O          8.3270   -3.2480   -1.2530 O.2     1  UNL1       -0.4540
     13  O          9.3670   -2.4450   -3.0140 O.2     1  UNL1       -0.4540
     14  C          9.0470   -3.6800   -2.3790 C.3     1  UNL1        0.4680
@<TRIPOS>BOND
     1    13    11    1
     2    13    14    1
     3     9    11    2
     4     9     7    1
     5    11    10    1
     6    14    12    1
     7     7     6    2
     8    10    12    1
     9    10     8    2
    10     6     8    1
    11     6     5    1
    12     5     1    1
    13     1     2    1
    14     2     4    2
    15     2     3    1
