@<TRIPOS>MOLECULE
/home/cewinharhar/GITHUB/reincatalyze/data/processed/docking_pred/2023-May-31-1603_sub9_nm5_bs15_s42_ex16_mel10_mts1000_k50_ec05_g099_lra3e-4_lrc9e-3/7076afde4386affa59e586c5ec9b2181426a643f_ligand_9.pdbqt
 14 15 0 0 0
SMALL
GASTEIGER

@<TRIPOS>ATOM
      1  C          5.4330    0.0170    1.9590 C.3     1  UNL1        0.0800
      2  C          4.5600    1.1870    1.7340 C.2     1  UNL1        0.1300
      3  C          4.9040    2.1480    0.6680 C.3     1  UNL1        0.0870
      4  O          3.5830    1.3330    2.4270 O.2     1  UNL1       -0.3000
      5  C          6.8560    0.3020    1.5240 C.3     1  UNL1        0.0430
      6  C          7.3030   -0.6910    0.5430 C.2     1  UNL1       -0.0440
      7  C          7.1120   -0.4720   -0.8060 C.2     1  UNL1        0.0080
      8  C          7.9230   -1.8680    0.9230 C.2     1  UNL1        0.0540
      9  C          7.5200   -1.3900   -1.7690 C.2     1  UNL1        0.0510
     10  C          8.3430   -2.8050   -0.0190 C.2     1  UNL1        0.1660
     11  C          8.1380   -2.5570   -1.3600 C.2     1  UNL1        0.1650
     12  O          8.9780   -4.0440    0.0610 O.2     1  UNL1       -0.4540
     13  O          8.6430   -3.6350   -2.0710 O.2     1  UNL1       -0.4540
     14  C          8.9330   -4.7060   -1.1760 C.3     1  UNL1        0.4680
@<TRIPOS>BOND
     1    13    11    1
     2    13    14    1
     3     9    11    2
     4     9     7    1
     5    11    10    1
     6    14    12    1
     7     7     6    2
     8    10    12    1
     9    10     8    2
    10     6     8    1
    11     6     5    1
    12     3     2    1
    13     5     1    1
    14     2     1    1
    15     2     4    2
