@<TRIPOS>MOLECULE
/home/cewinharhar/GITHUB/reincatalyze/data/processed/docking_pred/2023-May-31-1603_sub9_nm5_bs15_s42_ex16_mel10_mts1000_k50_ec05_g099_lra3e-4_lrc9e-3/7076afde4386affa59e586c5ec9b2181426a643f_ligand_9.pdbqt
 14 15 0 0 0
SMALL
GASTEIGER

@<TRIPOS>ATOM
      1  C          6.7150    0.7470    1.3630 C.3     1  UNL1        0.0800
      2  C          5.2840    1.0710    1.5260 C.2     1  UNL1        0.1300
      3  C          4.6730    2.0940    0.6540 C.3     1  UNL1        0.0870
      4  O          4.6430    0.4950    2.3700 O.2     1  UNL1       -0.3000
      5  C          7.1610    0.9370   -0.0720 C.3     1  UNL1        0.0430
      6  C          7.5950   -0.3380   -0.6500 C.2     1  UNL1       -0.0440
      7  C          7.6180   -0.5100   -2.0190 C.2     1  UNL1        0.0080
      8  C          7.9930   -1.4020    0.1400 C.2     1  UNL1        0.0540
      9  C          8.0230   -1.7060   -2.6070 C.2     1  UNL1        0.0510
     10  C          8.4030   -2.6100   -0.4200 C.2     1  UNL1        0.1660
     11  C          8.4150   -2.7510   -1.7920 C.2     1  UNL1        0.1650
     12  O          8.8460   -3.8230    0.1060 O.2     1  UNL1       -0.4540
     13  O          8.8590   -4.0330   -2.0810 O.2     1  UNL1       -0.4540
     14  C          8.8780   -4.8140   -0.8890 C.3     1  UNL1        0.4680
@<TRIPOS>BOND
     1     9     7    1
     2     9    11    2
     3    13    11    1
     4    13    14    1
     5     7     6    2
     6    11    10    1
     7    14    12    1
     8     6     5    1
     9     6     8    1
    10    10    12    1
    11    10     8    2
    12     5     1    1
    13     3     2    1
    14     1     2    1
    15     2     4    2
