MODEL 1
REMARK VINA RESULT:      -7.5      0.000      0.000
REMARK SMILES CC(=O)CCc1ccc2c(c1)OCO2
REMARK SMILES IDX 4 1 2 2 1 3 3 4 5 5 6 6 7 7 11 8 8 9 10 10 9 11 12 12 14 13
REMARK SMILES IDX 13 14
REMARK H PARENT
REMARK Flexibility Score: inf
ROOT
ATOM      1  C   UNL     1       5.564   1.882   1.302  1.00  0.00     0.080 C 
ENDROOT
BRANCH   1   2
ATOM      2  C   UNL     1       5.088   0.687   2.027  1.00  0.00     0.130 C 
ATOM      3  C   UNL     1       5.997  -0.465   2.193  1.00  0.00     0.087 C 
ATOM      4  O   UNL     1       3.966   0.676   2.470  1.00  0.00    -0.300 OA
ENDBRANCH   1   2
BRANCH   1   5
ATOM      5  C   UNL     1       5.390   1.722  -0.194  1.00  0.00     0.043 C 
BRANCH   5   6
ATOM      6  C   UNL     1       6.521   0.989  -0.768  1.00  0.00    -0.044 A 
ATOM      7  C   UNL     1       7.813   1.425  -0.558  1.00  0.00     0.008 A 
ATOM      8  C   UNL     1       6.343  -0.151  -1.533  1.00  0.00     0.054 A 
ATOM      9  C   UNL     1       8.915   0.757  -1.087  1.00  0.00     0.051 A 
ATOM     10  C   UNL     1       7.426  -0.839  -2.075  1.00  0.00     0.166 A 
ATOM     11  C   UNL     1       8.705  -0.378  -1.847  1.00  0.00     0.165 A 
ATOM     12  O   UNL     1       7.553  -1.983  -2.863  1.00  0.00    -0.454 OA
ATOM     13  O   UNL     1       9.585  -1.236  -2.491  1.00  0.00    -0.454 OA
ATOM     14  C   UNL     1       8.860  -2.100  -3.362  1.00  0.00     0.468 C 
ENDBRANCH   5   6
ENDBRANCH   1   5
TORSDOF 3
ENDMDL
MODEL 2
REMARK VINA RESULT:      -7.3      2.148      2.692
REMARK SMILES CC(=O)CCc1ccc2c(c1)OCO2
REMARK SMILES IDX 4 1 2 2 1 3 3 4 5 5 6 6 7 7 11 8 8 9 10 10 9 11 12 12 14 13
REMARK SMILES IDX 13 14
REMARK H PARENT
REMARK Flexibility Score: inf
ROOT
ATOM      1  C   UNL     1       5.380  -0.097   1.837  1.00  0.00     0.080 C 
ENDROOT
BRANCH   1   2
ATOM      2  C   UNL     1       4.596   1.133   1.603  1.00  0.00     0.130 C 
ATOM      3  C   UNL     1       5.010   2.058   0.529  1.00  0.00     0.087 C 
ATOM      4  O   UNL     1       3.634   1.357   2.295  1.00  0.00    -0.300 OA
ENDBRANCH   1   2
BRANCH   1   5
ATOM      5  C   UNL     1       6.851   0.127   1.552  1.00  0.00     0.043 C 
BRANCH   5   6
ATOM      6  C   UNL     1       7.335  -0.834   0.557  1.00  0.00    -0.044 A 
ATOM      7  C   UNL     1       7.213  -0.563  -0.790  1.00  0.00     0.008 A 
ATOM      8  C   UNL     1       7.922  -2.033   0.922  1.00  0.00     0.054 A 
ATOM      9  C   UNL     1       7.659  -1.450  -1.767  1.00  0.00     0.051 A 
ATOM     10  C   UNL     1       8.378  -2.939  -0.033  1.00  0.00     0.166 A 
ATOM     11  C   UNL     1       8.242  -2.639  -1.372  1.00  0.00     0.165 A 
ATOM     12  O   UNL     1       8.994  -4.189   0.031  1.00  0.00    -0.454 OA
ATOM     13  O   UNL     1       8.770  -3.697  -2.098  1.00  0.00    -0.454 OA
ATOM     14  C   UNL     1       9.003  -4.804  -1.231  1.00  0.00     0.468 C 
ENDBRANCH   5   6
ENDBRANCH   1   5
TORSDOF 3
ENDMDL
MODEL 3
REMARK VINA RESULT:      -7.3      1.868      2.294
REMARK SMILES CC(=O)CCc1ccc2c(c1)OCO2
REMARK SMILES IDX 4 1 2 2 1 3 3 4 5 5 6 6 7 7 11 8 8 9 10 10 9 11 12 12 14 13
REMARK SMILES IDX 13 14
REMARK H PARENT
REMARK Flexibility Score: inf
ROOT
ATOM      1  C   UNL     1       5.668   1.359  -0.313  1.00  0.00     0.080 C 
ENDROOT
BRANCH   1   2
ATOM      2  C   UNL     1       4.988   1.259   0.994  1.00  0.00     0.130 C 
ATOM      3  C   UNL     1       5.229   0.075   1.842  1.00  0.00     0.087 C 
ATOM      4  O   UNL     1       4.249   2.147   1.341  1.00  0.00    -0.300 OA
ENDBRANCH   1   2
BRANCH   1   5
ATOM      5  C   UNL     1       7.164   1.166  -0.170  1.00  0.00     0.043 C 
BRANCH   5   6
ATOM      6  C   UNL     1       7.581  -0.095  -0.789  1.00  0.00    -0.044 A 
ATOM      7  C   UNL     1       7.610  -0.221  -2.162  1.00  0.00     0.008 A 
ATOM      8  C   UNL     1       7.957  -1.193  -0.034  1.00  0.00     0.054 A 
ATOM      9  C   UNL     1       7.999  -1.402  -2.789  1.00  0.00     0.051 A 
ATOM     10  C   UNL     1       8.351  -2.387  -0.633  1.00  0.00     0.166 A 
ATOM     11  C   UNL     1       8.369  -2.481  -2.009  1.00  0.00     0.165 A 
ATOM     12  O   UNL     1       8.772  -3.624  -0.147  1.00  0.00    -0.454 OA
ATOM     13  O   UNL     1       8.794  -3.760  -2.339  1.00  0.00    -0.454 OA
ATOM     14  C   UNL     1       8.793  -4.581  -1.175  1.00  0.00     0.468 C 
ENDBRANCH   5   6
ENDBRANCH   1   5
TORSDOF 3
ENDMDL
MODEL 4
REMARK VINA RESULT:      -7.1      1.232      5.145
REMARK SMILES CC(=O)CCc1ccc2c(c1)OCO2
REMARK SMILES IDX 4 1 2 2 1 3 3 4 5 5 6 6 7 7 11 8 8 9 10 10 9 11 12 12 14 13
REMARK SMILES IDX 13 14
REMARK H PARENT
REMARK Flexibility Score: inf
ROOT
ATOM      1  C   UNL     1       8.255   0.161  -2.663  1.00  0.00     0.080 C 
ENDROOT
BRANCH   1   2
ATOM      2  C   UNL     1       7.916  -1.275  -2.721  1.00  0.00     0.130 C 
ATOM      3  C   UNL     1       8.989  -2.260  -2.964  1.00  0.00     0.087 C 
ATOM      4  O   UNL     1       6.768  -1.615  -2.569  1.00  0.00    -0.300 OA
ENDBRANCH   1   2
BRANCH   1   5
ATOM      5  C   UNL     1       8.830   0.535  -1.313  1.00  0.00     0.043 C 
BRANCH   5   6
ATOM      6  C   UNL     1       7.803   0.442  -0.272  1.00  0.00    -0.044 A 
ATOM      7  C   UNL     1       7.877  -0.538   0.696  1.00  0.00     0.008 A 
ATOM      8  C   UNL     1       6.734   1.320  -0.218  1.00  0.00     0.054 A 
ATOM      9  C   UNL     1       6.921  -0.661   1.701  1.00  0.00     0.051 A 
ATOM     10  C   UNL     1       5.762   1.222   0.776  1.00  0.00     0.166 A 
ATOM     11  C   UNL     1       5.865   0.230   1.729  1.00  0.00     0.165 A 
ATOM     12  O   UNL     1       4.606   1.941   1.077  1.00  0.00    -0.454 OA
ATOM     13  O   UNL     1       4.783   0.356   2.588  1.00  0.00    -0.454 OA
ATOM     14  C   UNL     1       3.833   1.262   2.033  1.00  0.00     0.468 C 
ENDBRANCH   5   6
ENDBRANCH   1   5
TORSDOF 3
ENDMDL
MODEL 5
REMARK VINA RESULT:      -7.0      1.245      1.404
REMARK SMILES CC(=O)CCc1ccc2c(c1)OCO2
REMARK SMILES IDX 4 1 2 2 1 3 3 4 5 5 6 6 7 7 11 8 8 9 10 10 9 11 12 12 14 13
REMARK SMILES IDX 13 14
REMARK H PARENT
REMARK Flexibility Score: inf
ROOT
ATOM      1  C   UNL     1       6.232   1.247   1.009  1.00  0.00     0.080 C 
ENDROOT
BRANCH   1   2
ATOM      2  C   UNL     1       5.556   0.382   1.996  1.00  0.00     0.130 C 
ATOM      3  C   UNL     1       6.260  -0.809   2.512  1.00  0.00     0.087 C 
ATOM      4  O   UNL     1       4.441   0.665   2.360  1.00  0.00    -0.300 OA
ENDBRANCH   1   2
BRANCH   1   5
ATOM      5  C   UNL     1       5.735   0.971  -0.395  1.00  0.00     0.043 C 
BRANCH   5   6
ATOM      6  C   UNL     1       6.687   0.126  -1.122  1.00  0.00    -0.044 A 
ATOM      7  C   UNL     1       7.337   0.610  -2.238  1.00  0.00     0.008 A 
ATOM      8  C   UNL     1       6.968  -1.170  -0.725  1.00  0.00     0.054 A 
ATOM      9  C   UNL     1       8.248  -0.160  -2.956  1.00  0.00     0.051 A 
ATOM     10  C   UNL     1       7.874  -1.964  -1.423  1.00  0.00     0.166 A 
ATOM     11  C   UNL     1       8.508  -1.451  -2.535  1.00  0.00     0.165 A 
ATOM     12  O   UNL     1       8.345  -3.267  -1.266  1.00  0.00    -0.454 OA
ATOM     13  O   UNL     1       9.346  -2.437  -3.036  1.00  0.00    -0.454 OA
ATOM     14  C   UNL     1       9.053  -3.681  -2.406  1.00  0.00     0.468 C 
ENDBRANCH   5   6
ENDBRANCH   1   5
TORSDOF 3
ENDMDL
