@<TRIPOS>MOLECULE
/home/cewinharhar/GITHUB/reincatalyze/data/processed/docking_pred/2023-May-31-1603_sub9_nm5_bs15_s42_ex16_mel10_mts1000_k50_ec05_g099_lra3e-4_lrc9e-3/718d515b24ba45f014f0b5b5cf87c837722ccc26_ligand_9.pdbqt
 14 15 0 0 0
SMALL
GASTEIGER

@<TRIPOS>ATOM
      1  C          6.2320    1.2470    1.0090 C.3     1  UNL1        0.0800
      2  C          5.5560    0.3820    1.9960 C.2     1  UNL1        0.1300
      3  C          6.2600   -0.8090    2.5120 C.3     1  UNL1        0.0870
      4  O          4.4410    0.6650    2.3600 O.2     1  UNL1       -0.3000
      5  C          5.7350    0.9710   -0.3950 C.3     1  UNL1        0.0430
      6  C          6.6870    0.1260   -1.1220 C.2     1  UNL1       -0.0440
      7  C          7.3370    0.6100   -2.2380 C.2     1  UNL1        0.0080
      8  C          6.9680   -1.1700   -0.7250 C.2     1  UNL1        0.0540
      9  C          8.2480   -0.1600   -2.9560 C.2     1  UNL1        0.0510
     10  C          7.8740   -1.9640   -1.4230 C.2     1  UNL1        0.1660
     11  C          8.5080   -1.4510   -2.5350 C.2     1  UNL1        0.1650
     12  O          8.3450   -3.2670   -1.2660 O.2     1  UNL1       -0.4540
     13  O          9.3460   -2.4370   -3.0360 O.2     1  UNL1       -0.4540
     14  C          9.0530   -3.6810   -2.4060 C.3     1  UNL1        0.4680
@<TRIPOS>BOND
     1    13    11    1
     2    13    14    1
     3     9    11    2
     4     9     7    1
     5    11    10    1
     6    14    12    1
     7     7     6    2
     8    10    12    1
     9    10     8    2
    10     6     8    1
    11     6     5    1
    12     5     1    1
    13     1     2    1
    14     2     4    2
    15     2     3    1
