MODEL 1
REMARK VINA RESULT:      -7.5      0.000      0.000
REMARK SMILES CC(=O)CCc1ccc2c(c1)OCO2
REMARK SMILES IDX 4 1 2 2 1 3 3 4 5 5 6 6 7 7 11 8 8 9 10 10 9 11 12 12 14 13
REMARK SMILES IDX 13 14
REMARK H PARENT
REMARK Flexibility Score: inf
ROOT
ATOM      1  C   UNL     1       5.537   1.928   1.331  1.00  0.00     0.080 C 
ENDROOT
BRANCH   1   2
ATOM      2  C   UNL     1       5.078   0.714   2.037  1.00  0.00     0.130 C 
ATOM      3  C   UNL     1       6.012  -0.416   2.210  1.00  0.00     0.087 C 
ATOM      4  O   UNL     1       3.948   0.672   2.457  1.00  0.00    -0.300 OA
ENDBRANCH   1   2
BRANCH   1   5
ATOM      5  C   UNL     1       5.371   1.788  -0.167  1.00  0.00     0.043 C 
BRANCH   5   6
ATOM      6  C   UNL     1       6.495   1.045  -0.744  1.00  0.00    -0.044 A 
ATOM      7  C   UNL     1       7.792   1.462  -0.522  1.00  0.00     0.008 A 
ATOM      8  C   UNL     1       6.306  -0.085  -1.520  1.00  0.00     0.054 A 
ATOM      9  C   UNL     1       8.887   0.785  -1.052  1.00  0.00     0.051 A 
ATOM     10  C   UNL     1       7.382  -0.782  -2.063  1.00  0.00     0.166 A 
ATOM     11  C   UNL     1       8.667  -0.340  -1.824  1.00  0.00     0.165 A 
ATOM     12  O   UNL     1       7.499  -1.920  -2.862  1.00  0.00    -0.454 OA
ATOM     13  O   UNL     1       9.538  -1.203  -2.472  1.00  0.00    -0.454 OA
ATOM     14  C   UNL     1       8.807  -2.049  -3.355  1.00  0.00     0.468 C 
ENDBRANCH   5   6
ENDBRANCH   1   5
TORSDOF 3
ENDMDL
MODEL 2
REMARK VINA RESULT:      -7.3      1.889      2.316
REMARK SMILES CC(=O)CCc1ccc2c(c1)OCO2
REMARK SMILES IDX 4 1 2 2 1 3 3 4 5 5 6 6 7 7 11 8 8 9 10 10 9 11 12 12 14 13
REMARK SMILES IDX 13 14
REMARK H PARENT
REMARK Flexibility Score: inf
ROOT
ATOM      1  C   UNL     1       5.682   1.374  -0.310  1.00  0.00     0.080 C 
ENDROOT
BRANCH   1   2
ATOM      2  C   UNL     1       5.000   1.288   0.997  1.00  0.00     0.130 C 
ATOM      3  C   UNL     1       5.313   0.162   1.901  1.00  0.00     0.087 C 
ATOM      4  O   UNL     1       4.200   2.138   1.300  1.00  0.00    -0.300 OA
ENDBRANCH   1   2
BRANCH   1   5
ATOM      5  C   UNL     1       7.177   1.184  -0.162  1.00  0.00     0.043 C 
BRANCH   5   6
ATOM      6  C   UNL     1       7.600  -0.076  -0.781  1.00  0.00    -0.044 A 
ATOM      7  C   UNL     1       7.647  -0.197  -2.154  1.00  0.00     0.008 A 
ATOM      8  C   UNL     1       7.962  -1.177  -0.025  1.00  0.00     0.054 A 
ATOM      9  C   UNL     1       8.041  -1.376  -2.780  1.00  0.00     0.051 A 
ATOM     10  C   UNL     1       8.362  -2.370  -0.623  1.00  0.00     0.166 A 
ATOM     11  C   UNL     1       8.398  -2.459  -1.999  1.00  0.00     0.165 A 
ATOM     12  O   UNL     1       8.772  -3.611  -0.136  1.00  0.00    -0.454 OA
ATOM     13  O   UNL     1       8.824  -3.737  -2.328  1.00  0.00    -0.454 OA
ATOM     14  C   UNL     1       8.805  -4.563  -1.167  1.00  0.00     0.468 C 
ENDBRANCH   5   6
ENDBRANCH   1   5
TORSDOF 3
ENDMDL
MODEL 3
REMARK VINA RESULT:      -7.3      2.174      2.727
REMARK SMILES CC(=O)CCc1ccc2c(c1)OCO2
REMARK SMILES IDX 4 1 2 2 1 3 3 4 5 5 6 6 7 7 11 8 8 9 10 10 9 11 12 12 14 13
REMARK SMILES IDX 13 14
REMARK H PARENT
REMARK Flexibility Score: inf
ROOT
ATOM      1  C   UNL     1       5.361  -0.154   1.803  1.00  0.00     0.080 C 
ENDROOT
BRANCH   1   2
ATOM      2  C   UNL     1       4.617   1.106   1.607  1.00  0.00     0.130 C 
ATOM      3  C   UNL     1       5.052   2.043   0.552  1.00  0.00     0.087 C 
ATOM      4  O   UNL     1       3.668   1.344   2.313  1.00  0.00    -0.300 OA
ENDBRANCH   1   2
BRANCH   1   5
ATOM      5  C   UNL     1       6.845   0.043   1.573  1.00  0.00     0.043 C 
BRANCH   5   6
ATOM      6  C   UNL     1       7.339  -0.896   0.561  1.00  0.00    -0.044 A 
ATOM      7  C   UNL     1       7.233  -0.593  -0.780  1.00  0.00     0.008 A 
ATOM      8  C   UNL     1       7.920  -2.104   0.904  1.00  0.00     0.054 A 
ATOM      9  C   UNL     1       7.688  -1.457  -1.772  1.00  0.00     0.051 A 
ATOM     10  C   UNL     1       8.385  -2.989  -0.066  1.00  0.00     0.166 A 
ATOM     11  C   UNL     1       8.265  -2.657  -1.399  1.00  0.00     0.165 A 
ATOM     12  O   UNL     1       8.998  -4.241  -0.024  1.00  0.00    -0.454 OA
ATOM     13  O   UNL     1       8.799  -3.698  -2.143  1.00  0.00    -0.454 OA
ATOM     14  C   UNL     1       9.020  -4.826  -1.300  1.00  0.00     0.468 C 
ENDBRANCH   5   6
ENDBRANCH   1   5
TORSDOF 3
ENDMDL
MODEL 4
REMARK VINA RESULT:      -7.1      1.222      5.116
REMARK SMILES CC(=O)CCc1ccc2c(c1)OCO2
REMARK SMILES IDX 4 1 2 2 1 3 3 4 5 5 6 6 7 7 11 8 8 9 10 10 9 11 12 12 14 13
REMARK SMILES IDX 13 14
REMARK H PARENT
REMARK Flexibility Score: inf
ROOT
ATOM      1  C   UNL     1       8.172   0.154  -2.702  1.00  0.00     0.080 C 
ENDROOT
BRANCH   1   2
ATOM      2  C   UNL     1       7.869  -1.292  -2.702  1.00  0.00     0.130 C 
ATOM      3  C   UNL     1       8.962  -2.257  -2.932  1.00  0.00     0.087 C 
ATOM      4  O   UNL     1       6.734  -1.654  -2.513  1.00  0.00    -0.300 OA
ENDBRANCH   1   2
BRANCH   1   5
ATOM      5  C   UNL     1       8.752   0.593  -1.374  1.00  0.00     0.043 C 
BRANCH   5   6
ATOM      6  C   UNL     1       7.746   0.488  -0.313  1.00  0.00    -0.044 A 
ATOM      7  C   UNL     1       7.861  -0.481   0.663  1.00  0.00     0.008 A 
ATOM      8  C   UNL     1       6.659   1.341  -0.248  1.00  0.00     0.054 A 
ATOM      9  C   UNL     1       6.927  -0.614   1.687  1.00  0.00     0.051 A 
ATOM     10  C   UNL     1       5.708   1.232   0.764  1.00  0.00     0.166 A 
ATOM     11  C   UNL     1       5.851   0.253   1.725  1.00  0.00     0.165 A 
ATOM     12  O   UNL     1       4.541   1.928   1.080  1.00  0.00    -0.454 OA
ATOM     13  O   UNL     1       4.782   0.363   2.603  1.00  0.00    -0.454 OA
ATOM     14  C   UNL     1       3.802   1.241   2.056  1.00  0.00     0.468 C 
ENDBRANCH   5   6
ENDBRANCH   1   5
TORSDOF 3
ENDMDL
MODEL 5
REMARK VINA RESULT:      -7.0      1.352      1.610
REMARK SMILES CC(=O)CCc1ccc2c(c1)OCO2
REMARK SMILES IDX 4 1 2 2 1 3 3 4 5 5 6 6 7 7 11 8 8 9 10 10 9 11 12 12 14 13
REMARK SMILES IDX 13 14
REMARK H PARENT
REMARK Flexibility Score: inf
ROOT
ATOM      1  C   UNL     1       6.340   1.193   0.952  1.00  0.00     0.080 C 
ENDROOT
BRANCH   1   2
ATOM      2  C   UNL     1       5.614   0.393   1.958  1.00  0.00     0.130 C 
ATOM      3  C   UNL     1       6.272  -0.791   2.548  1.00  0.00     0.087 C 
ATOM      4  O   UNL     1       4.499   0.721   2.277  1.00  0.00    -0.300 OA
ENDBRANCH   1   2
BRANCH   1   5
ATOM      5  C   UNL     1       5.837   0.904  -0.448  1.00  0.00     0.043 C 
BRANCH   5   6
ATOM      6  C   UNL     1       6.760   0.008  -1.151  1.00  0.00    -0.044 A 
ATOM      7  C   UNL     1       7.329   0.394  -2.347  1.00  0.00     0.008 A 
ATOM      8  C   UNL     1       7.091  -1.240  -0.654  1.00  0.00     0.054 A 
ATOM      9  C   UNL     1       8.209  -0.428  -3.047  1.00  0.00     0.051 A 
ATOM     10  C   UNL     1       7.968  -2.084  -1.331  1.00  0.00     0.166 A 
ATOM     11  C   UNL     1       8.521  -1.669  -2.524  1.00  0.00     0.165 A 
ATOM     12  O   UNL     1       8.475  -3.359  -1.083  1.00  0.00    -0.454 OA
ATOM     13  O   UNL     1       9.347  -2.685  -2.983  1.00  0.00    -0.454 OA
ATOM     14  C   UNL     1       9.119  -3.868  -2.222  1.00  0.00     0.468 C 
ENDBRANCH   5   6
ENDBRANCH   1   5
TORSDOF 3
ENDMDL
