@<TRIPOS>MOLECULE
/home/cewinharhar/GITHUB/reincatalyze/data/processed/docking_pred/2023-May-31-1603_sub9_nm5_bs15_s42_ex16_mel10_mts1000_k50_ec05_g099_lra3e-4_lrc9e-3/72c4800fcc396c08a923544a0defa9269110c5e0_ligand_9.pdbqt
 14 15 0 0 0
SMALL
GASTEIGER

@<TRIPOS>ATOM
      1  C          5.6820    1.3740   -0.3100 C.3     1  UNL1        0.0800
      2  C          5.0000    1.2880    0.9970 C.2     1  UNL1        0.1300
      3  C          5.3130    0.1620    1.9010 C.3     1  UNL1        0.0870
      4  O          4.2000    2.1380    1.3000 O.2     1  UNL1       -0.3000
      5  C          7.1770    1.1840   -0.1620 C.3     1  UNL1        0.0430
      6  C          7.6000   -0.0760   -0.7810 C.2     1  UNL1       -0.0440
      7  C          7.6470   -0.1970   -2.1540 C.2     1  UNL1        0.0080
      8  C          7.9620   -1.1770   -0.0250 C.2     1  UNL1        0.0540
      9  C          8.0410   -1.3760   -2.7800 C.2     1  UNL1        0.0510
     10  C          8.3620   -2.3700   -0.6230 C.2     1  UNL1        0.1660
     11  C          8.3980   -2.4590   -1.9990 C.2     1  UNL1        0.1650
     12  O          8.7720   -3.6110   -0.1360 O.2     1  UNL1       -0.4540
     13  O          8.8240   -3.7370   -2.3280 O.2     1  UNL1       -0.4540
     14  C          8.8050   -4.5630   -1.1670 C.3     1  UNL1        0.4680
@<TRIPOS>BOND
     1     9     7    1
     2     9    11    2
     3    13    11    1
     4    13    14    1
     5     7     6    2
     6    11    10    1
     7    14    12    1
     8     6     5    1
     9     6     8    1
    10    10    12    1
    11    10     8    2
    12     1     5    1
    13     1     2    1
    14     2     4    2
    15     2     3    1
