@<TRIPOS>MOLECULE
/home/cewinharhar/GITHUB/reincatalyze/data/processed/docking_pred/2023-May-31-1603_sub9_nm5_bs15_s42_ex16_mel10_mts1000_k50_ec05_g099_lra3e-4_lrc9e-3/72c4800fcc396c08a923544a0defa9269110c5e0_ligand_9.pdbqt
 14 15 0 0 0
SMALL
GASTEIGER

@<TRIPOS>ATOM
      1  C          6.3400    1.1930    0.9520 C.3     1  UNL1        0.0800
      2  C          5.6140    0.3930    1.9580 C.2     1  UNL1        0.1300
      3  C          6.2720   -0.7910    2.5480 C.3     1  UNL1        0.0870
      4  O          4.4990    0.7210    2.2770 O.2     1  UNL1       -0.3000
      5  C          5.8370    0.9040   -0.4480 C.3     1  UNL1        0.0430
      6  C          6.7600    0.0080   -1.1510 C.2     1  UNL1       -0.0440
      7  C          7.3290    0.3940   -2.3470 C.2     1  UNL1        0.0080
      8  C          7.0910   -1.2400   -0.6540 C.2     1  UNL1        0.0540
      9  C          8.2090   -0.4280   -3.0470 C.2     1  UNL1        0.0510
     10  C          7.9680   -2.0840   -1.3310 C.2     1  UNL1        0.1660
     11  C          8.5210   -1.6690   -2.5240 C.2     1  UNL1        0.1650
     12  O          8.4750   -3.3590   -1.0830 O.2     1  UNL1       -0.4540
     13  O          9.3470   -2.6850   -2.9830 O.2     1  UNL1       -0.4540
     14  C          9.1190   -3.8680   -2.2220 C.3     1  UNL1        0.4680
@<TRIPOS>BOND
     1     9    11    2
     2     9     7    1
     3    13    11    1
     4    13    14    1
     5    11    10    1
     6     7     6    2
     7    14    12    1
     8    10    12    1
     9    10     8    2
    10     6     8    1
    11     6     5    1
    12     5     1    1
    13     1     2    1
    14     2     4    2
    15     2     3    1
