@<TRIPOS>MOLECULE
/home/cewinharhar/GITHUB/reincatalyze/data/processed/docking_pred/2023-May-31-1603_sub9_nm5_bs15_s42_ex16_mel10_mts1000_k50_ec05_g099_lra3e-4_lrc9e-3/72c4800fcc396c08a923544a0defa9269110c5e0_ligand_9.pdbqt
 14 15 0 0 0
SMALL
GASTEIGER

@<TRIPOS>ATOM
      1  C          5.3610   -0.1540    1.8030 C.3     1  UNL1        0.0800
      2  C          4.6170    1.1060    1.6070 C.2     1  UNL1        0.1300
      3  C          5.0520    2.0430    0.5520 C.3     1  UNL1        0.0870
      4  O          3.6680    1.3440    2.3130 O.2     1  UNL1       -0.3000
      5  C          6.8450    0.0430    1.5730 C.3     1  UNL1        0.0430
      6  C          7.3390   -0.8960    0.5610 C.2     1  UNL1       -0.0440
      7  C          7.2330   -0.5930   -0.7800 C.2     1  UNL1        0.0080
      8  C          7.9200   -2.1040    0.9040 C.2     1  UNL1        0.0540
      9  C          7.6880   -1.4570   -1.7720 C.2     1  UNL1        0.0510
     10  C          8.3850   -2.9890   -0.0660 C.2     1  UNL1        0.1660
     11  C          8.2650   -2.6570   -1.3990 C.2     1  UNL1        0.1650
     12  O          8.9980   -4.2410   -0.0240 O.2     1  UNL1       -0.4540
     13  O          8.7990   -3.6980   -2.1430 O.2     1  UNL1       -0.4540
     14  C          9.0200   -4.8260   -1.3000 C.3     1  UNL1        0.4680
@<TRIPOS>BOND
     1    13    11    1
     2    13    14    1
     3     9    11    2
     4     9     7    1
     5    11    10    1
     6    14    12    1
     7     7     6    2
     8    10    12    1
     9    10     8    2
    10     3     2    1
    11     6     8    1
    12     6     5    1
    13     5     1    1
    14     2     1    1
    15     2     4    2
