@<TRIPOS>MOLECULE
/home/cewinharhar/GITHUB/reincatalyze/data/processed/docking_pred/2023-May-31-1603_sub9_nm5_bs15_s42_ex16_mel10_mts1000_k50_ec05_g099_lra3e-4_lrc9e-3/72c4800fcc396c08a923544a0defa9269110c5e0_ligand_9.pdbqt
 14 15 0 0 0
SMALL
GASTEIGER

@<TRIPOS>ATOM
      1  C          8.1720    0.1540   -2.7020 C.3     1  UNL1        0.0800
      2  C          7.8690   -1.2920   -2.7020 C.2     1  UNL1        0.1300
      3  C          8.9620   -2.2570   -2.9320 C.3     1  UNL1        0.0870
      4  O          6.7340   -1.6540   -2.5130 O.2     1  UNL1       -0.3000
      5  C          8.7520    0.5930   -1.3740 C.3     1  UNL1        0.0430
      6  C          7.7460    0.4880   -0.3130 C.2     1  UNL1       -0.0440
      7  C          7.8610   -0.4810    0.6630 C.2     1  UNL1        0.0080
      8  C          6.6590    1.3410   -0.2480 C.2     1  UNL1        0.0540
      9  C          6.9270   -0.6140    1.6870 C.2     1  UNL1        0.0510
     10  C          5.7080    1.2320    0.7640 C.2     1  UNL1        0.1660
     11  C          5.8510    0.2530    1.7250 C.2     1  UNL1        0.1650
     12  O          4.5410    1.9280    1.0800 O.2     1  UNL1       -0.4540
     13  O          4.7820    0.3630    2.6030 O.2     1  UNL1       -0.4540
     14  C          3.8020    1.2410    2.0560 C.3     1  UNL1        0.4680
@<TRIPOS>BOND
     1     3     2    1
     2     1     2    1
     3     1     5    1
     4     2     4    2
     5     5     6    1
     6     6     8    2
     7     6     7    1
     8     8    10    1
     9     7     9    2
    10    10    12    1
    11    10    11    2
    12    12    14    1
    13     9    11    1
    14    11    13    1
    15    14    13    1
