@<TRIPOS>MOLECULE
/home/cewinharhar/GITHUB/reincatalyze/data/processed/docking_pred/2023-May-31-1603_sub9_nm5_bs15_s42_ex16_mel10_mts1000_k50_ec05_g099_lra3e-4_lrc9e-3/7473f82790d6809f011fa27bf7bcba9a4b9bdb46_ligand_9.pdbqt
 14 15 0 0 0
SMALL
GASTEIGER

@<TRIPOS>ATOM
      1  C          5.5980    1.2790   -0.2320 C.3     1  UNL1        0.0800
      2  C          5.0220    1.2330    1.1270 C.2     1  UNL1        0.1300
      3  C          5.3750    0.1140    2.0230 C.3     1  UNL1        0.0870
      4  O          4.2740    2.1120    1.4780 O.2     1  UNL1       -0.3000
      5  C          7.1080    1.1730   -0.1910 C.3     1  UNL1        0.0430
      6  C          7.5540   -0.0780   -0.8120 C.2     1  UNL1       -0.0440
      7  C          7.6200   -0.1900   -2.1850 C.2     1  UNL1        0.0080
      8  C          7.9200   -1.1790   -0.0580 C.2     1  UNL1        0.0540
      9  C          8.0370   -1.3600   -2.8130 C.2     1  UNL1        0.0510
     10  C          8.3410   -2.3640   -0.6580 C.2     1  UNL1        0.1660
     11  C          8.3960   -2.4440   -2.0340 C.2     1  UNL1        0.1650
     12  O          8.7600   -3.6020   -0.1730 O.2     1  UNL1       -0.4540
     13  O          8.8420   -3.7150   -2.3650 O.2     1  UNL1       -0.4540
     14  C          8.8180   -4.5480   -1.2090 C.3     1  UNL1        0.4680
@<TRIPOS>BOND
     1     9     7    1
     2     9    11    2
     3    13    11    1
     4    13    14    1
     5     7     6    2
     6    11    10    1
     7    14    12    1
     8     6     5    1
     9     6     8    1
    10    10    12    1
    11    10     8    2
    12     1     5    1
    13     1     2    1
    14     2     4    2
    15     2     3    1
