@<TRIPOS>MOLECULE
/home/cewinharhar/GITHUB/reincatalyze/data/processed/docking_pred/2023-May-31-1603_sub9_nm5_bs15_s42_ex16_mel10_mts1000_k50_ec05_g099_lra3e-4_lrc9e-3/7473f82790d6809f011fa27bf7bcba9a4b9bdb46_ligand_9.pdbqt
 14 15 0 0 0
SMALL
GASTEIGER

@<TRIPOS>ATOM
      1  C          5.4810    0.0380    1.9130 C.3     1  UNL1        0.0800
      2  C          4.6110    1.1990    1.6350 C.2     1  UNL1        0.1300
      3  C          4.9890    2.1420    0.5630 C.3     1  UNL1        0.0870
      4  O          3.6090    1.3520    2.2880 O.2     1  UNL1       -0.3000
      5  C          6.9070    0.3040    1.4770 C.3     1  UNL1        0.0430
      6  C          7.3440   -0.7020    0.5050 C.2     1  UNL1       -0.0440
      7  C          7.1690   -0.4860   -0.8470 C.2     1  UNL1        0.0080
      8  C          7.9400   -1.8880    0.8950 C.2     1  UNL1        0.0540
      9  C          7.5690   -1.4160   -1.8020 C.2     1  UNL1        0.0510
     10  C          8.3510   -2.8370   -0.0380 C.2     1  UNL1        0.1660
     11  C          8.1620   -2.5920   -1.3820 C.2     1  UNL1        0.1650
     12  O          8.9630   -4.0870    0.0540 O.2     1  UNL1       -0.4540
     13  O          8.6540   -3.6830   -2.0830 O.2     1  UNL1       -0.4540
     14  C          8.9170   -4.7540   -1.1810 C.3     1  UNL1        0.4680
@<TRIPOS>BOND
     1    13    11    1
     2    13    14    1
     3     9    11    2
     4     9     7    1
     5    11    10    1
     6    14    12    1
     7     7     6    2
     8    10    12    1
     9    10     8    2
    10     6     8    1
    11     6     5    1
    12     3     2    1
    13     5     1    1
    14     2     1    1
    15     2     4    2
