@<TRIPOS>MOLECULE
/home/cewinharhar/GITHUB/reincatalyze/data/processed/docking_pred/2023-May-31-1603_sub9_nm5_bs15_s42_ex16_mel10_mts1000_k50_ec05_g099_lra3e-4_lrc9e-3/7473f82790d6809f011fa27bf7bcba9a4b9bdb46_ligand_9.pdbqt
 14 15 0 0 0
SMALL
GASTEIGER

@<TRIPOS>ATOM
      1  C          5.7370    1.7910    1.4540 C.3     1  UNL1        0.0800
      2  C          5.2070    0.5730    2.1000 C.2     1  UNL1        0.1300
      3  C          6.0880   -0.6010    2.2580 C.3     1  UNL1        0.0870
      4  O          4.0640    0.5630    2.4850 O.2     1  UNL1       -0.3000
      5  C          5.5460    1.7430   -0.0480 C.3     1  UNL1        0.0430
      6  C          6.6380    0.9980   -0.6820 C.2     1  UNL1       -0.0440
      7  C          7.9430    1.4230   -0.5440 C.2     1  UNL1        0.0080
      8  C          6.4080   -0.1410   -1.4340 C.2     1  UNL1        0.0540
      9  C          9.0080    0.7450   -1.1310 C.2     1  UNL1        0.0510
     10  C          7.4530   -0.8400   -2.0320 C.2     1  UNL1        0.1660
     11  C          8.7470   -0.3900   -1.8750 C.2     1  UNL1        0.1650
     12  O          7.5260   -1.9870   -2.8230 O.2     1  UNL1       -0.4540
     13  O          9.5820   -1.2570   -2.5650 O.2     1  UNL1       -0.4540
     14  C          8.8030   -2.1160   -3.3930 C.3     1  UNL1        0.4680
@<TRIPOS>BOND
     1    14    12    1
     2    14    13    1
     3    12    10    1
     4    13    11    1
     5    10    11    2
     6    10     8    1
     7    11     9    1
     8     8     6    2
     9     9     7    2
    10     6     7    1
    11     6     5    1
    12     5     1    1
    13     1     2    1
    14     2     3    1
    15     2     4    2
