@<TRIPOS>MOLECULE
/home/cewinharhar/GITHUB/reincatalyze/data/processed/docking_pred/2023-May-31-1603_sub9_nm5_bs15_s42_ex16_mel10_mts1000_k50_ec05_g099_lra3e-4_lrc9e-3/7473f82790d6809f011fa27bf7bcba9a4b9bdb46_ligand_9.pdbqt
 14 15 0 0 0
SMALL
GASTEIGER

@<TRIPOS>ATOM
      1  C          8.2420    0.1490   -2.6650 C.3     1  UNL1        0.0800
      2  C          7.9960   -1.3030   -2.7640 C.2     1  UNL1        0.1300
      3  C          9.1330   -2.2120   -3.0150 C.3     1  UNL1        0.0870
      4  O          6.8700   -1.7190   -2.6380 O.2     1  UNL1       -0.3000
      5  C          8.8180    0.5170   -1.3140 C.3     1  UNL1        0.0430
      6  C          7.7890    0.4310   -0.2740 C.2     1  UNL1       -0.0440
      7  C          7.8420   -0.5660    0.6780 C.2     1  UNL1        0.0080
      8  C          6.7400    1.3310   -0.2050 C.2     1  UNL1        0.0540
      9  C          6.8840   -0.6830    1.6810 C.2     1  UNL1        0.0510
     10  C          5.7670    1.2390    0.7870 C.2     1  UNL1        0.1660
     11  C          5.8480    0.2300    1.7240 C.2     1  UNL1        0.1650
     12  O          4.6270    1.9790    1.1010 O.2     1  UNL1       -0.4540
     13  O          4.7690    0.3670    2.5850 O.2     1  UNL1       -0.4540
     14  C          3.8390    1.3020    2.0450 C.3     1  UNL1        0.4680
@<TRIPOS>BOND
     1     3     2    1
     2     2     1    1
     3     2     4    2
     4     1     5    1
     5     5     6    1
     6     6     8    2
     7     6     7    1
     8     8    10    1
     9     7     9    2
    10    10    12    1
    11    10    11    2
    12    12    14    1
    13     9    11    1
    14    11    13    1
    15    14    13    1
