MODEL 1
REMARK VINA RESULT:      -7.4      0.000      0.000
REMARK SMILES CC(=O)CCc1ccc2c(c1)OCO2
REMARK SMILES IDX 4 1 2 2 1 3 3 4 5 5 6 6 7 7 11 8 8 9 10 10 9 11 12 12 14 13
REMARK SMILES IDX 13 14
REMARK H PARENT
REMARK Flexibility Score: inf
ROOT
ATOM      1  C   UNL     1       5.737   1.791   1.454  1.00  0.00     0.080 C 
ENDROOT
BRANCH   1   2
ATOM      2  C   UNL     1       5.207   0.573   2.100  1.00  0.00     0.130 C 
ATOM      3  C   UNL     1       6.088  -0.601   2.258  1.00  0.00     0.087 C 
ATOM      4  O   UNL     1       4.064   0.563   2.485  1.00  0.00    -0.300 OA
ENDBRANCH   1   2
BRANCH   1   5
ATOM      5  C   UNL     1       5.546   1.743  -0.048  1.00  0.00     0.043 C 
BRANCH   5   6
ATOM      6  C   UNL     1       6.638   0.998  -0.682  1.00  0.00    -0.044 A 
ATOM      7  C   UNL     1       7.943   1.423  -0.544  1.00  0.00     0.008 A 
ATOM      8  C   UNL     1       6.408  -0.141  -1.434  1.00  0.00     0.054 A 
ATOM      9  C   UNL     1       9.008   0.745  -1.131  1.00  0.00     0.051 A 
ATOM     10  C   UNL     1       7.453  -0.840  -2.032  1.00  0.00     0.166 A 
ATOM     11  C   UNL     1       8.747  -0.390  -1.875  1.00  0.00     0.165 A 
ATOM     12  O   UNL     1       7.526  -1.987  -2.823  1.00  0.00    -0.454 OA
ATOM     13  O   UNL     1       9.582  -1.257  -2.565  1.00  0.00    -0.454 OA
ATOM     14  C   UNL     1       8.803  -2.116  -3.393  1.00  0.00     0.468 C 
ENDBRANCH   5   6
ENDBRANCH   1   5
TORSDOF 3
ENDMDL
MODEL 2
REMARK VINA RESULT:      -7.3      1.830      2.245
REMARK SMILES CC(=O)CCc1ccc2c(c1)OCO2
REMARK SMILES IDX 4 1 2 2 1 3 3 4 5 5 6 6 7 7 11 8 8 9 10 10 9 11 12 12 14 13
REMARK SMILES IDX 13 14
REMARK H PARENT
REMARK Flexibility Score: inf
ROOT
ATOM      1  C   UNL     1       5.598   1.279  -0.232  1.00  0.00     0.080 C 
ENDROOT
BRANCH   1   2
ATOM      2  C   UNL     1       5.022   1.233   1.127  1.00  0.00     0.130 C 
ATOM      3  C   UNL     1       5.375   0.114   2.023  1.00  0.00     0.087 C 
ATOM      4  O   UNL     1       4.274   2.112   1.478  1.00  0.00    -0.300 OA
ENDBRANCH   1   2
BRANCH   1   5
ATOM      5  C   UNL     1       7.108   1.173  -0.191  1.00  0.00     0.043 C 
BRANCH   5   6
ATOM      6  C   UNL     1       7.554  -0.078  -0.812  1.00  0.00    -0.044 A 
ATOM      7  C   UNL     1       7.620  -0.190  -2.185  1.00  0.00     0.008 A 
ATOM      8  C   UNL     1       7.920  -1.179  -0.058  1.00  0.00     0.054 A 
ATOM      9  C   UNL     1       8.037  -1.360  -2.813  1.00  0.00     0.051 A 
ATOM     10  C   UNL     1       8.341  -2.364  -0.658  1.00  0.00     0.166 A 
ATOM     11  C   UNL     1       8.396  -2.444  -2.034  1.00  0.00     0.165 A 
ATOM     12  O   UNL     1       8.760  -3.602  -0.173  1.00  0.00    -0.454 OA
ATOM     13  O   UNL     1       8.842  -3.715  -2.365  1.00  0.00    -0.454 OA
ATOM     14  C   UNL     1       8.818  -4.548  -1.209  1.00  0.00     0.468 C 
ENDBRANCH   5   6
ENDBRANCH   1   5
TORSDOF 3
ENDMDL
MODEL 3
REMARK VINA RESULT:      -7.2      2.110      2.646
REMARK SMILES CC(=O)CCc1ccc2c(c1)OCO2
REMARK SMILES IDX 4 1 2 2 1 3 3 4 5 5 6 6 7 7 11 8 8 9 10 10 9 11 12 12 14 13
REMARK SMILES IDX 13 14
REMARK H PARENT
REMARK Flexibility Score: inf
ROOT
ATOM      1  C   UNL     1       5.481   0.038   1.913  1.00  0.00     0.080 C 
ENDROOT
BRANCH   1   2
ATOM      2  C   UNL     1       4.611   1.199   1.635  1.00  0.00     0.130 C 
ATOM      3  C   UNL     1       4.989   2.142   0.563  1.00  0.00     0.087 C 
ATOM      4  O   UNL     1       3.609   1.352   2.288  1.00  0.00    -0.300 OA
ENDBRANCH   1   2
BRANCH   1   5
ATOM      5  C   UNL     1       6.907   0.304   1.477  1.00  0.00     0.043 C 
BRANCH   5   6
ATOM      6  C   UNL     1       7.344  -0.702   0.505  1.00  0.00    -0.044 A 
ATOM      7  C   UNL     1       7.169  -0.486  -0.847  1.00  0.00     0.008 A 
ATOM      8  C   UNL     1       7.940  -1.888   0.895  1.00  0.00     0.054 A 
ATOM      9  C   UNL     1       7.569  -1.416  -1.802  1.00  0.00     0.051 A 
ATOM     10  C   UNL     1       8.351  -2.837  -0.038  1.00  0.00     0.166 A 
ATOM     11  C   UNL     1       8.162  -2.592  -1.382  1.00  0.00     0.165 A 
ATOM     12  O   UNL     1       8.963  -4.087   0.054  1.00  0.00    -0.454 OA
ATOM     13  O   UNL     1       8.654  -3.683  -2.083  1.00  0.00    -0.454 OA
ATOM     14  C   UNL     1       8.917  -4.754  -1.181  1.00  0.00     0.468 C 
ENDBRANCH   5   6
ENDBRANCH   1   5
TORSDOF 3
ENDMDL
MODEL 4
REMARK VINA RESULT:      -7.0      1.247      1.431
REMARK SMILES CC(=O)CCc1ccc2c(c1)OCO2
REMARK SMILES IDX 4 1 2 2 1 3 3 4 5 5 6 6 7 7 11 8 8 9 10 10 9 11 12 12 14 13
REMARK SMILES IDX 13 14
REMARK H PARENT
REMARK Flexibility Score: inf
ROOT
ATOM      1  C   UNL     1       6.295   1.211   1.017  1.00  0.00     0.080 C 
ENDROOT
BRANCH   1   2
ATOM      2  C   UNL     1       5.596   0.358   1.999  1.00  0.00     0.130 C 
ATOM      3  C   UNL     1       6.284  -0.833   2.537  1.00  0.00     0.087 C 
ATOM      4  O   UNL     1       4.478   0.652   2.343  1.00  0.00    -0.300 OA
ENDBRANCH   1   2
BRANCH   1   5
ATOM      5  C   UNL     1       5.794   0.952  -0.389  1.00  0.00     0.043 C 
BRANCH   5   6
ATOM      6  C   UNL     1       6.728   0.089  -1.117  1.00  0.00    -0.044 A 
ATOM      7  C   UNL     1       7.359   0.549  -2.255  1.00  0.00     0.008 A 
ATOM      8  C   UNL     1       7.010  -1.201  -0.702  1.00  0.00     0.054 A 
ATOM      9  C   UNL     1       8.252  -0.239  -2.976  1.00  0.00     0.051 A 
ATOM     10  C   UNL     1       7.899  -2.012  -1.402  1.00  0.00     0.166 A 
ATOM     11  C   UNL     1       8.514  -1.523  -2.536  1.00  0.00     0.165 A 
ATOM     12  O   UNL     1       8.367  -3.315  -1.230  1.00  0.00    -0.454 OA
ATOM     13  O   UNL     1       9.338  -2.522  -3.034  1.00  0.00    -0.454 OA
ATOM     14  C   UNL     1       9.051  -3.753  -2.375  1.00  0.00     0.468 C 
ENDBRANCH   5   6
ENDBRANCH   1   5
TORSDOF 3
ENDMDL
MODEL 5
REMARK VINA RESULT:      -6.9      1.184      5.168
REMARK SMILES CC(=O)CCc1ccc2c(c1)OCO2
REMARK SMILES IDX 4 1 2 2 1 3 3 4 5 5 6 6 7 7 11 8 8 9 10 10 9 11 12 12 14 13
REMARK SMILES IDX 13 14
REMARK H PARENT
REMARK Flexibility Score: inf
ROOT
ATOM      1  C   UNL     1       8.242   0.149  -2.665  1.00  0.00     0.080 C 
ENDROOT
BRANCH   1   2
ATOM      2  C   UNL     1       7.996  -1.303  -2.764  1.00  0.00     0.130 C 
ATOM      3  C   UNL     1       9.133  -2.212  -3.015  1.00  0.00     0.087 C 
ATOM      4  O   UNL     1       6.870  -1.719  -2.638  1.00  0.00    -0.300 OA
ENDBRANCH   1   2
BRANCH   1   5
ATOM      5  C   UNL     1       8.818   0.517  -1.314  1.00  0.00     0.043 C 
BRANCH   5   6
ATOM      6  C   UNL     1       7.789   0.431  -0.274  1.00  0.00    -0.044 A 
ATOM      7  C   UNL     1       7.842  -0.566   0.678  1.00  0.00     0.008 A 
ATOM      8  C   UNL     1       6.740   1.331  -0.205  1.00  0.00     0.054 A 
ATOM      9  C   UNL     1       6.884  -0.683   1.681  1.00  0.00     0.051 A 
ATOM     10  C   UNL     1       5.767   1.239   0.787  1.00  0.00     0.166 A 
ATOM     11  C   UNL     1       5.848   0.230   1.724  1.00  0.00     0.165 A 
ATOM     12  O   UNL     1       4.627   1.979   1.101  1.00  0.00    -0.454 OA
ATOM     13  O   UNL     1       4.769   0.367   2.585  1.00  0.00    -0.454 OA
ATOM     14  C   UNL     1       3.839   1.302   2.045  1.00  0.00     0.468 C 
ENDBRANCH   5   6
ENDBRANCH   1   5
TORSDOF 3
ENDMDL
