@<TRIPOS>MOLECULE
/home/cewinharhar/GITHUB/reincatalyze/data/processed/docking_pred/2023-May-31-1603_sub9_nm5_bs15_s42_ex16_mel10_mts1000_k50_ec05_g099_lra3e-4_lrc9e-3/777751631f294be45381376aa4be6161cfc72981_ligand_9.pdbqt
 14 15 0 0 0
SMALL
GASTEIGER

@<TRIPOS>ATOM
      1  C          5.4360    0.0020    1.8910 C.3     1  UNL1        0.0800
      2  C          4.6020    1.1930    1.6350 C.2     1  UNL1        0.1300
      3  C          5.0110    2.1470    0.5850 C.3     1  UNL1        0.0870
      4  O          3.6030    1.3620    2.2890 O.2     1  UNL1       -0.3000
      5  C          6.8800    0.2500    1.5060 C.3     1  UNL1        0.0430
      6  C          7.3290   -0.7420    0.5240 C.2     1  UNL1       -0.0440
      7  C          7.1580   -0.5120   -0.8260 C.2     1  UNL1        0.0080
      8  C          7.9310   -1.9280    0.9040 C.2     1  UNL1        0.0540
      9  C          7.5690   -1.4280   -1.7900 C.2     1  UNL1        0.0510
     10  C          8.3540   -2.8630   -0.0380 C.2     1  UNL1        0.1660
     11  C          8.1680   -2.6050   -1.3800 C.2     1  UNL1        0.1650
     12  O          8.9730   -4.1100    0.0420 O.2     1  UNL1       -0.4540
     13  O          8.6710   -3.6840   -2.0920 O.2     1  UNL1       -0.4540
     14  C          8.9380   -4.7640   -1.2010 C.3     1  UNL1        0.4680
@<TRIPOS>BOND
     1    13    11    1
     2    13    14    1
     3     9    11    2
     4     9     7    1
     5    11    10    1
     6    14    12    1
     7     7     6    2
     8    10    12    1
     9    10     8    2
    10     6     8    1
    11     6     5    1
    12     3     2    1
    13     5     1    1
    14     2     1    1
    15     2     4    2
