@<TRIPOS>MOLECULE
/home/cewinharhar/GITHUB/reincatalyze/data/processed/docking_pred/2023-May-31-1603_sub9_nm5_bs15_s42_ex16_mel10_mts1000_k50_ec05_g099_lra3e-4_lrc9e-3/777751631f294be45381376aa4be6161cfc72981_ligand_9.pdbqt
 14 15 0 0 0
SMALL
GASTEIGER

@<TRIPOS>ATOM
      1  C          8.4270    0.2730   -2.5900 C.3     1  UNL1        0.0800
      2  C          8.5210   -1.1870   -2.7920 C.2     1  UNL1        0.1300
      3  C          7.2810   -1.9790   -2.9150 C.3     1  UNL1        0.0870
      4  O          9.6100   -1.7030   -2.8520 O.2     1  UNL1       -0.3000
      5  C          8.9350    0.6710   -1.2200 C.3     1  UNL1        0.0430
      6  C          7.8780    0.5230   -0.2150 C.2     1  UNL1       -0.0440
      7  C          7.8990   -0.5380    0.6660 C.2     1  UNL1        0.0080
      8  C          6.8340    1.4250   -0.1120 C.2     1  UNL1        0.0540
      9  C          6.9140   -0.7150    1.6340 C.2     1  UNL1        0.0510
     10  C          5.8340    1.2740    0.8460 C.2     1  UNL1        0.1660
     11  C          5.8830    0.2030    1.7130 C.2     1  UNL1        0.1650
     12  O          4.6920    2.0010    1.1800 O.2     1  UNL1       -0.4540
     13  O          4.7830    0.2890    2.5530 O.2     1  UNL1       -0.4540
     14  C          3.8750    1.2670    2.0550 C.3     1  UNL1        0.4680
@<TRIPOS>BOND
     1     3     2    1
     2     4     2    2
     3     2     1    1
     4     1     5    1
     5     5     6    1
     6     6     8    2
     7     6     7    1
     8     8    10    1
     9     7     9    2
    10    10    12    1
    11    10    11    2
    12    12    14    1
    13     9    11    1
    14    11    13    1
    15    14    13    1
