@<TRIPOS>MOLECULE
/home/cewinharhar/GITHUB/reincatalyze/data/processed/docking_pred/2023-May-31-1603_sub9_nm5_bs15_s42_ex16_mel10_mts1000_k50_ec05_g099_lra3e-4_lrc9e-3/777751631f294be45381376aa4be6161cfc72981_ligand_9.pdbqt
 14 15 0 0 0
SMALL
GASTEIGER

@<TRIPOS>ATOM
      1  C          5.6580    1.0710   -0.2730 C.3     1  UNL1        0.0800
      2  C          5.1900    1.1360    1.1260 C.2     1  UNL1        0.1300
      3  C          5.3720   -0.0380    2.0020 C.3     1  UNL1        0.0870
      4  O          4.6680    2.1480    1.5240 O.2     1  UNL1       -0.3000
      5  C          7.1710    1.0200   -0.3440 C.3     1  UNL1        0.0430
      6  C          7.6190   -0.2760   -0.8610 C.2     1  UNL1       -0.0440
      7  C          7.7220   -0.4860   -2.2210 C.2     1  UNL1        0.0080
      8  C          7.9510   -1.3240   -0.0210 C.2     1  UNL1        0.0540
      9  C          8.1430   -1.7020   -2.7520 C.2     1  UNL1        0.0510
     10  C          8.3750   -2.5520   -0.5230 C.2     1  UNL1        0.1660
     11  C          8.4670   -2.7300   -1.8880 C.2     1  UNL1        0.1650
     12  O          8.7660   -3.7570    0.0600 O.2     1  UNL1       -0.4540
     13  O          8.9080   -4.0260   -2.1160 O.2     1  UNL1       -0.4540
     14  C          8.8410   -4.7750   -0.9050 C.3     1  UNL1        0.4680
@<TRIPOS>BOND
     1     9     7    1
     2     9    11    2
     3     7     6    2
     4    13    11    1
     5    13    14    1
     6    11    10    1
     7    14    12    1
     8     6     5    1
     9     6     8    1
    10    10     8    2
    11    10    12    1
    12     5     1    1
    13     1     2    1
    14     2     4    2
    15     2     3    1
