MODEL 1
REMARK VINA RESULT:      -7.6      0.000      0.000
REMARK SMILES CC(=O)CCc1ccc2c(c1)OCO2
REMARK SMILES IDX 4 1 2 2 1 3 3 4 5 5 6 6 7 7 11 8 8 9 10 10 9 11 12 12 14 13
REMARK SMILES IDX 13 14
REMARK H PARENT
REMARK Flexibility Score: inf
ROOT
ATOM      1  C   UNL     1       5.580   1.842   1.333  1.00  0.00     0.080 C 
ENDROOT
BRANCH   1   2
ATOM      2  C   UNL     1       5.095   0.647   2.053  1.00  0.00     0.130 C 
ATOM      3  C   UNL     1       6.000  -0.508   2.224  1.00  0.00     0.087 C 
ATOM      4  O   UNL     1       3.970   0.639   2.487  1.00  0.00    -0.300 OA
ENDBRANCH   1   2
BRANCH   1   5
ATOM      5  C   UNL     1       5.403   1.691  -0.164  1.00  0.00     0.043 C 
BRANCH   5   6
ATOM      6  C   UNL     1       6.536   0.965  -0.746  1.00  0.00    -0.044 A 
ATOM      7  C   UNL     1       7.823   1.429  -0.572  1.00  0.00     0.008 A 
ATOM      8  C   UNL     1       6.363  -0.195  -1.481  1.00  0.00     0.054 A 
ATOM      9  C   UNL     1       8.926   0.770  -1.110  1.00  0.00     0.051 A 
ATOM     10  C   UNL     1       7.447  -0.876  -2.030  1.00  0.00     0.166 A 
ATOM     11  C   UNL     1       8.722  -0.386  -1.839  1.00  0.00     0.165 A 
ATOM     12  O   UNL     1       7.579  -2.035  -2.794  1.00  0.00    -0.454 OA
ATOM     13  O   UNL     1       9.604  -1.243  -2.482  1.00  0.00    -0.454 OA
ATOM     14  C   UNL     1       8.878  -2.139  -3.318  1.00  0.00     0.468 C 
ENDBRANCH   5   6
ENDBRANCH   1   5
TORSDOF 3
ENDMDL
MODEL 2
REMARK VINA RESULT:      -7.4      1.955      2.418
REMARK SMILES CC(=O)CCc1ccc2c(c1)OCO2
REMARK SMILES IDX 4 1 2 2 1 3 3 4 5 5 6 6 7 7 11 8 8 9 10 10 9 11 12 12 14 13
REMARK SMILES IDX 13 14
REMARK H PARENT
REMARK Flexibility Score: inf
ROOT
ATOM      1  C   UNL     1       5.658   1.071  -0.273  1.00  0.00     0.080 C 
ENDROOT
BRANCH   1   2
ATOM      2  C   UNL     1       5.190   1.136   1.126  1.00  0.00     0.130 C 
ATOM      3  C   UNL     1       5.372  -0.038   2.002  1.00  0.00     0.087 C 
ATOM      4  O   UNL     1       4.668   2.148   1.524  1.00  0.00    -0.300 OA
ENDBRANCH   1   2
BRANCH   1   5
ATOM      5  C   UNL     1       7.171   1.020  -0.344  1.00  0.00     0.043 C 
BRANCH   5   6
ATOM      6  C   UNL     1       7.619  -0.276  -0.861  1.00  0.00    -0.044 A 
ATOM      7  C   UNL     1       7.722  -0.486  -2.221  1.00  0.00     0.008 A 
ATOM      8  C   UNL     1       7.951  -1.324  -0.021  1.00  0.00     0.054 A 
ATOM      9  C   UNL     1       8.143  -1.702  -2.752  1.00  0.00     0.051 A 
ATOM     10  C   UNL     1       8.375  -2.552  -0.523  1.00  0.00     0.166 A 
ATOM     11  C   UNL     1       8.467  -2.730  -1.888  1.00  0.00     0.165 A 
ATOM     12  O   UNL     1       8.766  -3.757   0.060  1.00  0.00    -0.454 OA
ATOM     13  O   UNL     1       8.908  -4.026  -2.116  1.00  0.00    -0.454 OA
ATOM     14  C   UNL     1       8.841  -4.775  -0.905  1.00  0.00     0.468 C 
ENDBRANCH   5   6
ENDBRANCH   1   5
TORSDOF 3
ENDMDL
MODEL 3
REMARK VINA RESULT:      -7.3      2.092      2.638
REMARK SMILES CC(=O)CCc1ccc2c(c1)OCO2
REMARK SMILES IDX 4 1 2 2 1 3 3 4 5 5 6 6 7 7 11 8 8 9 10 10 9 11 12 12 14 13
REMARK SMILES IDX 13 14
REMARK H PARENT
REMARK Flexibility Score: inf
ROOT
ATOM      1  C   UNL     1       5.436   0.002   1.891  1.00  0.00     0.080 C 
ENDROOT
BRANCH   1   2
ATOM      2  C   UNL     1       4.602   1.193   1.635  1.00  0.00     0.130 C 
ATOM      3  C   UNL     1       5.011   2.147   0.585  1.00  0.00     0.087 C 
ATOM      4  O   UNL     1       3.603   1.362   2.289  1.00  0.00    -0.300 OA
ENDBRANCH   1   2
BRANCH   1   5
ATOM      5  C   UNL     1       6.880   0.250   1.506  1.00  0.00     0.043 C 
BRANCH   5   6
ATOM      6  C   UNL     1       7.329  -0.742   0.524  1.00  0.00    -0.044 A 
ATOM      7  C   UNL     1       7.158  -0.512  -0.826  1.00  0.00     0.008 A 
ATOM      8  C   UNL     1       7.931  -1.928   0.904  1.00  0.00     0.054 A 
ATOM      9  C   UNL     1       7.569  -1.428  -1.790  1.00  0.00     0.051 A 
ATOM     10  C   UNL     1       8.354  -2.863  -0.038  1.00  0.00     0.166 A 
ATOM     11  C   UNL     1       8.168  -2.605  -1.380  1.00  0.00     0.165 A 
ATOM     12  O   UNL     1       8.973  -4.110   0.042  1.00  0.00    -0.454 OA
ATOM     13  O   UNL     1       8.671  -3.684  -2.092  1.00  0.00    -0.454 OA
ATOM     14  C   UNL     1       8.938  -4.764  -1.201  1.00  0.00     0.468 C 
ENDBRANCH   5   6
ENDBRANCH   1   5
TORSDOF 3
ENDMDL
MODEL 4
REMARK VINA RESULT:      -6.9      1.232      5.310
REMARK SMILES CC(=O)CCc1ccc2c(c1)OCO2
REMARK SMILES IDX 4 1 2 2 1 3 3 4 5 5 6 6 7 7 11 8 8 9 10 10 9 11 12 12 14 13
REMARK SMILES IDX 13 14
REMARK H PARENT
REMARK Flexibility Score: inf
ROOT
ATOM      1  C   UNL     1       8.427   0.273  -2.590  1.00  0.00     0.080 C 
ENDROOT
BRANCH   1   2
ATOM      2  C   UNL     1       8.521  -1.187  -2.792  1.00  0.00     0.130 C 
ATOM      3  C   UNL     1       7.281  -1.979  -2.915  1.00  0.00     0.087 C 
ATOM      4  O   UNL     1       9.610  -1.703  -2.852  1.00  0.00    -0.300 OA
ENDBRANCH   1   2
BRANCH   1   5
ATOM      5  C   UNL     1       8.935   0.671  -1.220  1.00  0.00     0.043 C 
BRANCH   5   6
ATOM      6  C   UNL     1       7.878   0.523  -0.215  1.00  0.00    -0.044 A 
ATOM      7  C   UNL     1       7.899  -0.538   0.666  1.00  0.00     0.008 A 
ATOM      8  C   UNL     1       6.834   1.425  -0.112  1.00  0.00     0.054 A 
ATOM      9  C   UNL     1       6.914  -0.715   1.634  1.00  0.00     0.051 A 
ATOM     10  C   UNL     1       5.834   1.274   0.846  1.00  0.00     0.166 A 
ATOM     11  C   UNL     1       5.883   0.203   1.713  1.00  0.00     0.165 A 
ATOM     12  O   UNL     1       4.692   2.001   1.180  1.00  0.00    -0.454 OA
ATOM     13  O   UNL     1       4.783   0.289   2.553  1.00  0.00    -0.454 OA
ATOM     14  C   UNL     1       3.875   1.267   2.055  1.00  0.00     0.468 C 
ENDBRANCH   5   6
ENDBRANCH   1   5
TORSDOF 3
ENDMDL
MODEL 5
REMARK VINA RESULT:      -6.8      1.234      1.708
REMARK SMILES CC(=O)CCc1ccc2c(c1)OCO2
REMARK SMILES IDX 4 1 2 2 1 3 3 4 5 5 6 6 7 7 11 8 8 9 10 10 9 11 12 12 14 13
REMARK SMILES IDX 13 14
REMARK H PARENT
REMARK Flexibility Score: inf
ROOT
ATOM      1  C   UNL     1       5.292  -0.008   1.966  1.00  0.00     0.080 C 
ENDROOT
BRANCH   1   2
ATOM      2  C   UNL     1       4.397   1.154   1.792  1.00  0.00     0.130 C 
ATOM      3  C   UNL     1       4.705   2.150   0.746  1.00  0.00     0.087 C 
ATOM      4  O   UNL     1       3.434   1.266   2.509  1.00  0.00    -0.300 OA
ENDBRANCH   1   2
BRANCH   1   5
ATOM      5  C   UNL     1       6.747   0.409   1.928  1.00  0.00     0.043 C 
BRANCH   5   6
ATOM      6  C   UNL     1       7.372  -0.014   0.671  1.00  0.00    -0.044 A 
ATOM      7  C   UNL     1       7.910   0.921  -0.188  1.00  0.00     0.008 A 
ATOM      8  C   UNL     1       7.445  -1.346   0.301  1.00  0.00     0.054 A 
ATOM      9  C   UNL     1       8.511   0.560  -1.392  1.00  0.00     0.051 A 
ATOM     10  C   UNL     1       8.040  -1.737  -0.896  1.00  0.00     0.166 A 
ATOM     11  C   UNL     1       8.569  -0.777  -1.734  1.00  0.00     0.165 A 
ATOM     12  O   UNL     1       8.255  -2.966  -1.517  1.00  0.00    -0.454 OA
ATOM     13  O   UNL     1       9.093  -1.427  -2.842  1.00  0.00    -0.454 OA
ATOM     14  C   UNL     1       8.663  -2.786  -2.849  1.00  0.00     0.468 C 
ENDBRANCH   5   6
ENDBRANCH   1   5
TORSDOF 3
ENDMDL
