MODEL 1
REMARK VINA RESULT:      -7.5      0.000      0.000
REMARK SMILES CC(=O)CCc1ccc2c(c1)OCO2
REMARK SMILES IDX 4 1 2 2 1 3 3 4 5 5 6 6 7 7 11 8 8 9 10 10 9 11 12 12 14 13
REMARK SMILES IDX 13 14
REMARK H PARENT
REMARK Flexibility Score: inf
ROOT
ATOM      1  C   UNL     1       5.587   1.854   1.320  1.00  0.00     0.080 C 
ENDROOT
BRANCH   1   2
ATOM      2  C   UNL     1       5.120   0.657   2.049  1.00  0.00     0.130 C 
ATOM      3  C   UNL     1       6.041  -0.483   2.227  1.00  0.00     0.087 C 
ATOM      4  O   UNL     1       3.995   0.636   2.484  1.00  0.00    -0.300 OA
ENDBRANCH   1   2
BRANCH   1   5
ATOM      5  C   UNL     1       5.404   1.693  -0.174  1.00  0.00     0.043 C 
BRANCH   5   6
ATOM      6  C   UNL     1       6.535   0.964  -0.756  1.00  0.00    -0.044 A 
ATOM      7  C   UNL     1       7.825   1.415  -0.569  1.00  0.00     0.008 A 
ATOM      8  C   UNL     1       6.357  -0.186  -1.505  1.00  0.00     0.054 A 
ATOM      9  C   UNL     1       8.926   0.753  -1.106  1.00  0.00     0.051 A 
ATOM     10  C   UNL     1       7.439  -0.871  -2.054  1.00  0.00     0.166 A 
ATOM     11  C   UNL     1       8.717  -0.394  -1.849  1.00  0.00     0.165 A 
ATOM     12  O   UNL     1       7.567  -2.022  -2.830  1.00  0.00    -0.454 OA
ATOM     13  O   UNL     1       9.596  -1.251  -2.495  1.00  0.00    -0.454 OA
ATOM     14  C   UNL     1       8.869  -2.132  -3.346  1.00  0.00     0.468 C 
ENDBRANCH   5   6
ENDBRANCH   1   5
TORSDOF 3
ENDMDL
MODEL 2
REMARK VINA RESULT:      -7.4      1.853      2.274
REMARK SMILES CC(=O)CCc1ccc2c(c1)OCO2
REMARK SMILES IDX 4 1 2 2 1 3 3 4 5 5 6 6 7 7 11 8 8 9 10 10 9 11 12 12 14 13
REMARK SMILES IDX 13 14
REMARK H PARENT
REMARK Flexibility Score: inf
ROOT
ATOM      1  C   UNL     1       5.640   1.340  -0.271  1.00  0.00     0.080 C 
ENDROOT
BRANCH   1   2
ATOM      2  C   UNL     1       5.031   1.272   1.073  1.00  0.00     0.130 C 
ATOM      3  C   UNL     1       5.353   0.130   1.953  1.00  0.00     0.087 C 
ATOM      4  O   UNL     1       4.283   2.150   1.424  1.00  0.00    -0.300 OA
ENDBRANCH   1   2
BRANCH   1   5
ATOM      5  C   UNL     1       7.146   1.197  -0.199  1.00  0.00     0.043 C 
BRANCH   5   6
ATOM      6  C   UNL     1       7.571  -0.073  -0.795  1.00  0.00    -0.044 A 
ATOM      7  C   UNL     1       7.587  -0.229  -2.165  1.00  0.00     0.008 A 
ATOM      8  C   UNL     1       7.967  -1.149  -0.020  1.00  0.00     0.054 A 
ATOM      9  C   UNL     1       7.983  -1.418  -2.770  1.00  0.00     0.051 A 
ATOM     10  C   UNL     1       8.369  -2.351  -0.597  1.00  0.00     0.166 A 
ATOM     11  C   UNL     1       8.374  -2.476  -1.971  1.00  0.00     0.165 A 
ATOM     12  O   UNL     1       8.809  -3.573  -0.088  1.00  0.00    -0.454 OA
ATOM     13  O   UNL     1       8.810  -3.756  -2.277  1.00  0.00    -0.454 OA
ATOM     14  C   UNL     1       8.831  -4.552  -1.095  1.00  0.00     0.468 C 
ENDBRANCH   5   6
ENDBRANCH   1   5
TORSDOF 3
ENDMDL
MODEL 3
REMARK VINA RESULT:      -7.3      2.083      2.663
REMARK SMILES CC(=O)CCc1ccc2c(c1)OCO2
REMARK SMILES IDX 4 1 2 2 1 3 3 4 5 5 6 6 7 7 11 8 8 9 10 10 9 11 12 12 14 13
REMARK SMILES IDX 13 14
REMARK H PARENT
REMARK Flexibility Score: inf
ROOT
ATOM      1  C   UNL     1       5.375  -0.084   1.894  1.00  0.00     0.080 C 
ENDROOT
BRANCH   1   2
ATOM      2  C   UNL     1       4.609   1.165   1.708  1.00  0.00     0.130 C 
ATOM      3  C   UNL     1       5.063   2.146   0.702  1.00  0.00     0.087 C 
ATOM      4  O   UNL     1       3.628   1.359   2.383  1.00  0.00    -0.300 OA
ENDBRANCH   1   2
BRANCH   1   5
ATOM      5  C   UNL     1       6.843   0.121   1.584  1.00  0.00     0.043 C 
BRANCH   5   6
ATOM      6  C   UNL     1       7.293  -0.834   0.567  1.00  0.00    -0.044 A 
ATOM      7  C   UNL     1       7.092  -0.572  -0.772  1.00  0.00     0.008 A 
ATOM      8  C   UNL     1       7.926  -2.018   0.903  1.00  0.00     0.054 A 
ATOM      9  C   UNL     1       7.504  -1.453  -1.769  1.00  0.00     0.051 A 
ATOM     10  C   UNL     1       8.349  -2.919  -0.071  1.00  0.00     0.166 A 
ATOM     11  C   UNL     1       8.133  -2.628  -1.402  1.00  0.00     0.165 A 
ATOM     12  O   UNL     1       8.995  -4.154  -0.036  1.00  0.00    -0.454 OA
ATOM     13  O   UNL     1       8.644  -3.677  -2.152  1.00  0.00    -0.454 OA
ATOM     14  C   UNL     1       8.949  -4.775  -1.296  1.00  0.00     0.468 C 
ENDBRANCH   5   6
ENDBRANCH   1   5
TORSDOF 3
ENDMDL
MODEL 4
REMARK VINA RESULT:      -7.1      1.237      1.397
REMARK SMILES CC(=O)CCc1ccc2c(c1)OCO2
REMARK SMILES IDX 4 1 2 2 1 3 3 4 5 5 6 6 7 7 11 8 8 9 10 10 9 11 12 12 14 13
REMARK SMILES IDX 13 14
REMARK H PARENT
REMARK Flexibility Score: inf
ROOT
ATOM      1  C   UNL     1       6.259   1.231   1.051  1.00  0.00     0.080 C 
ENDROOT
BRANCH   1   2
ATOM      2  C   UNL     1       5.547   0.358   2.006  1.00  0.00     0.130 C 
ATOM      3  C   UNL     1       6.212  -0.863   2.500  1.00  0.00     0.087 C 
ATOM      4  O   UNL     1       4.435   0.662   2.363  1.00  0.00    -0.300 OA
ENDBRANCH   1   2
BRANCH   1   5
ATOM      5  C   UNL     1       5.769   1.010  -0.365  1.00  0.00     0.043 C 
BRANCH   5   6
ATOM      6  C   UNL     1       6.696   0.146  -1.102  1.00  0.00    -0.044 A 
ATOM      7  C   UNL     1       7.305   0.600  -2.253  1.00  0.00     0.008 A 
ATOM      8  C   UNL     1       6.991  -1.138  -0.681  1.00  0.00     0.054 A 
ATOM      9  C   UNL     1       8.191  -0.189  -2.982  1.00  0.00     0.051 A 
ATOM     10  C   UNL     1       7.873  -1.951  -1.389  1.00  0.00     0.166 A 
ATOM     11  C   UNL     1       8.467  -1.468  -2.537  1.00  0.00     0.165 A 
ATOM     12  O   UNL     1       8.351  -3.249  -1.214  1.00  0.00    -0.454 OA
ATOM     13  O   UNL     1       9.288  -2.466  -3.040  1.00  0.00    -0.454 OA
ATOM     14  C   UNL     1       9.019  -3.693  -2.367  1.00  0.00     0.468 C 
ENDBRANCH   5   6
ENDBRANCH   1   5
TORSDOF 3
ENDMDL
MODEL 5
REMARK VINA RESULT:      -7.0      1.211      5.185
REMARK SMILES CC(=O)CCc1ccc2c(c1)OCO2
REMARK SMILES IDX 4 1 2 2 1 3 3 4 5 5 6 6 7 7 11 8 8 9 10 10 9 11 12 12 14 13
REMARK SMILES IDX 13 14
REMARK H PARENT
REMARK Flexibility Score: inf
ROOT
ATOM      1  C   UNL     1       8.308   0.199  -2.590  1.00  0.00     0.080 C 
ENDROOT
BRANCH   1   2
ATOM      2  C   UNL     1       7.990  -1.236  -2.727  1.00  0.00     0.130 C 
ATOM      3  C   UNL     1       9.079  -2.192  -3.009  1.00  0.00     0.087 C 
ATOM      4  O   UNL     1       6.846  -1.599  -2.606  1.00  0.00    -0.300 OA
ENDBRANCH   1   2
BRANCH   1   5
ATOM      5  C   UNL     1       8.858   0.510  -1.213  1.00  0.00     0.043 C 
BRANCH   5   6
ATOM      6  C   UNL     1       7.799   0.426  -0.204  1.00  0.00    -0.044 A 
ATOM      7  C   UNL     1       7.803  -0.592   0.727  1.00  0.00     0.008 A 
ATOM      8  C   UNL     1       6.768   1.348  -0.145  1.00  0.00     0.054 A 
ATOM      9  C   UNL     1       6.815  -0.708   1.701  1.00  0.00     0.051 A 
ATOM     10  C   UNL     1       5.766   1.257   0.818  1.00  0.00     0.166 A 
ATOM     11  C   UNL     1       5.799   0.227   1.735  1.00  0.00     0.165 A 
ATOM     12  O   UNL     1       4.635   2.016   1.116  1.00  0.00    -0.454 OA
ATOM     13  O   UNL     1       4.699   0.370   2.569  1.00  0.00    -0.454 OA
ATOM     14  C   UNL     1       3.806   1.337   2.024  1.00  0.00     0.468 C 
ENDBRANCH   5   6
ENDBRANCH   1   5
TORSDOF 3
ENDMDL
