@<TRIPOS>MOLECULE
/home/cewinharhar/GITHUB/reincatalyze/data/processed/docking_pred/2023-May-31-1603_sub9_nm5_bs15_s42_ex16_mel10_mts1000_k50_ec05_g099_lra3e-4_lrc9e-3/79094ef31ed65e340e791eab6f4e997ef8bc8970_ligand_9.pdbqt
 14 15 0 0 0
SMALL
GASTEIGER

@<TRIPOS>ATOM
      1  C          5.6400    1.3400   -0.2710 C.3     1  UNL1        0.0800
      2  C          5.0310    1.2720    1.0730 C.2     1  UNL1        0.1300
      3  C          5.3530    0.1300    1.9530 C.3     1  UNL1        0.0870
      4  O          4.2830    2.1500    1.4240 O.2     1  UNL1       -0.3000
      5  C          7.1460    1.1970   -0.1990 C.3     1  UNL1        0.0430
      6  C          7.5710   -0.0730   -0.7950 C.2     1  UNL1       -0.0440
      7  C          7.5870   -0.2290   -2.1650 C.2     1  UNL1        0.0080
      8  C          7.9670   -1.1490   -0.0200 C.2     1  UNL1        0.0540
      9  C          7.9830   -1.4180   -2.7700 C.2     1  UNL1        0.0510
     10  C          8.3690   -2.3510   -0.5970 C.2     1  UNL1        0.1660
     11  C          8.3740   -2.4760   -1.9710 C.2     1  UNL1        0.1650
     12  O          8.8090   -3.5730   -0.0880 O.2     1  UNL1       -0.4540
     13  O          8.8100   -3.7560   -2.2770 O.2     1  UNL1       -0.4540
     14  C          8.8310   -4.5520   -1.0950 C.3     1  UNL1        0.4680
@<TRIPOS>BOND
     1     9     7    1
     2     9    11    2
     3    13    11    1
     4    13    14    1
     5     7     6    2
     6    11    10    1
     7    14    12    1
     8     6     5    1
     9     6     8    1
    10    10    12    1
    11    10     8    2
    12     1     5    1
    13     1     2    1
    14     2     4    2
    15     2     3    1
