@<TRIPOS>MOLECULE
/home/cewinharhar/GITHUB/reincatalyze/data/processed/docking_pred/2023-May-31-1603_sub9_nm5_bs15_s42_ex16_mel10_mts1000_k50_ec05_g099_lra3e-4_lrc9e-3/79094ef31ed65e340e791eab6f4e997ef8bc8970_ligand_9.pdbqt
 14 15 0 0 0
SMALL
GASTEIGER

@<TRIPOS>ATOM
      1  C          5.3750   -0.0840    1.8940 C.3     1  UNL1        0.0800
      2  C          4.6090    1.1650    1.7080 C.2     1  UNL1        0.1300
      3  C          5.0630    2.1460    0.7020 C.3     1  UNL1        0.0870
      4  O          3.6280    1.3590    2.3830 O.2     1  UNL1       -0.3000
      5  C          6.8430    0.1210    1.5840 C.3     1  UNL1        0.0430
      6  C          7.2930   -0.8340    0.5670 C.2     1  UNL1       -0.0440
      7  C          7.0920   -0.5720   -0.7720 C.2     1  UNL1        0.0080
      8  C          7.9260   -2.0180    0.9030 C.2     1  UNL1        0.0540
      9  C          7.5040   -1.4530   -1.7690 C.2     1  UNL1        0.0510
     10  C          8.3490   -2.9190   -0.0710 C.2     1  UNL1        0.1660
     11  C          8.1330   -2.6280   -1.4020 C.2     1  UNL1        0.1650
     12  O          8.9950   -4.1540   -0.0360 O.2     1  UNL1       -0.4540
     13  O          8.6440   -3.6770   -2.1520 O.2     1  UNL1       -0.4540
     14  C          8.9490   -4.7750   -1.2960 C.3     1  UNL1        0.4680
@<TRIPOS>BOND
     1    13    11    1
     2    13    14    1
     3     9    11    2
     4     9     7    1
     5    11    10    1
     6    14    12    1
     7     7     6    2
     8    10    12    1
     9    10     8    2
    10     6     8    1
    11     6     5    1
    12     3     2    1
    13     5     1    1
    14     2     1    1
    15     2     4    2
