@<TRIPOS>MOLECULE
/home/cewinharhar/GITHUB/reincatalyze/data/processed/docking_pred/2023-May-31-1603_sub9_nm5_bs15_s42_ex16_mel10_mts1000_k50_ec05_g099_lra3e-4_lrc9e-3/79094ef31ed65e340e791eab6f4e997ef8bc8970_ligand_9.pdbqt
 14 15 0 0 0
SMALL
GASTEIGER

@<TRIPOS>ATOM
      1  C          5.5870    1.8540    1.3200 C.3     1  UNL1        0.0800
      2  C          5.1200    0.6570    2.0490 C.2     1  UNL1        0.1300
      3  C          6.0410   -0.4830    2.2270 C.3     1  UNL1        0.0870
      4  O          3.9950    0.6360    2.4840 O.2     1  UNL1       -0.3000
      5  C          5.4040    1.6930   -0.1740 C.3     1  UNL1        0.0430
      6  C          6.5350    0.9640   -0.7560 C.2     1  UNL1       -0.0440
      7  C          7.8250    1.4150   -0.5690 C.2     1  UNL1        0.0080
      8  C          6.3570   -0.1860   -1.5050 C.2     1  UNL1        0.0540
      9  C          8.9260    0.7530   -1.1060 C.2     1  UNL1        0.0510
     10  C          7.4390   -0.8710   -2.0540 C.2     1  UNL1        0.1660
     11  C          8.7170   -0.3940   -1.8490 C.2     1  UNL1        0.1650
     12  O          7.5670   -2.0220   -2.8300 O.2     1  UNL1       -0.4540
     13  O          9.5960   -1.2510   -2.4950 O.2     1  UNL1       -0.4540
     14  C          8.8690   -2.1320   -3.3460 C.3     1  UNL1        0.4680
@<TRIPOS>BOND
     1    14    12    1
     2    14    13    1
     3    12    10    1
     4    13    11    1
     5    10    11    2
     6    10     8    1
     7    11     9    1
     8     8     6    2
     9     9     7    2
    10     6     7    1
    11     6     5    1
    12     5     1    1
    13     1     2    1
    14     2     3    1
    15     2     4    2
