@<TRIPOS>MOLECULE
/home/cewinharhar/GITHUB/reincatalyze/data/processed/docking_pred/2023-May-31-1603_sub9_nm5_bs15_s42_ex16_mel10_mts1000_k50_ec05_g099_lra3e-4_lrc9e-3/79094ef31ed65e340e791eab6f4e997ef8bc8970_ligand_9.pdbqt
 14 15 0 0 0
SMALL
GASTEIGER

@<TRIPOS>ATOM
      1  C          8.3080    0.1990   -2.5900 C.3     1  UNL1        0.0800
      2  C          7.9900   -1.2360   -2.7270 C.2     1  UNL1        0.1300
      3  C          9.0790   -2.1920   -3.0090 C.3     1  UNL1        0.0870
      4  O          6.8460   -1.5990   -2.6060 O.2     1  UNL1       -0.3000
      5  C          8.8580    0.5100   -1.2130 C.3     1  UNL1        0.0430
      6  C          7.7990    0.4260   -0.2040 C.2     1  UNL1       -0.0440
      7  C          7.8030   -0.5920    0.7270 C.2     1  UNL1        0.0080
      8  C          6.7680    1.3480   -0.1450 C.2     1  UNL1        0.0540
      9  C          6.8150   -0.7080    1.7010 C.2     1  UNL1        0.0510
     10  C          5.7660    1.2570    0.8180 C.2     1  UNL1        0.1660
     11  C          5.7990    0.2270    1.7350 C.2     1  UNL1        0.1650
     12  O          4.6350    2.0160    1.1160 O.2     1  UNL1       -0.4540
     13  O          4.6990    0.3700    2.5690 O.2     1  UNL1       -0.4540
     14  C          3.8060    1.3370    2.0240 C.3     1  UNL1        0.4680
@<TRIPOS>BOND
     1     3     2    1
     2     2     4    2
     3     2     1    1
     4     1     5    1
     5     5     6    1
     6     6     8    2
     7     6     7    1
     8     8    10    1
     9     7     9    2
    10    10    12    1
    11    10    11    2
    12    12    14    1
    13     9    11    1
    14    11    13    1
    15    14    13    1
