@<TRIPOS>MOLECULE
/home/cewinharhar/GITHUB/reincatalyze/data/processed/docking_pred/2023-May-31-1603_sub9_nm5_bs15_s42_ex16_mel10_mts1000_k50_ec05_g099_lra3e-4_lrc9e-3/79495f175fd15f32955b26bb978cae7af324a937_ligand_9.pdbqt
 14 15 0 0 0
SMALL
GASTEIGER

@<TRIPOS>ATOM
      1  C          5.6990    1.1970   -0.3150 C.3     1  UNL1        0.0800
      2  C          5.1110    1.2270    1.0400 C.2     1  UNL1        0.1300
      3  C          5.4150    0.1310    1.9820 C.3     1  UNL1        0.0870
      4  O          4.3950    2.1460    1.3490 O.2     1  UNL1       -0.3000
      5  C          7.2070    1.0690   -0.2560 C.3     1  UNL1        0.0430
      6  C          7.6390   -0.2070   -0.8330 C.2     1  UNL1       -0.0440
      7  C          7.7080   -0.3650   -2.2020 C.2     1  UNL1        0.0080
      8  C          7.9870   -1.2880   -0.0420 C.2     1  UNL1        0.0540
      9  C          8.1120   -1.5600   -2.7900 C.2     1  UNL1        0.0510
     10  C          8.3960   -2.4960   -0.6020 C.2     1  UNL1        0.1660
     11  C          8.4550   -2.6220   -1.9740 C.2     1  UNL1        0.1650
     12  O          8.7970   -3.7240   -0.0750 O.2     1  UNL1       -0.4540
     13  O          8.8850   -3.9090   -2.2620 O.2     1  UNL1       -0.4540
     14  C          8.8460   -4.7040   -1.0790 C.3     1  UNL1        0.4680
@<TRIPOS>BOND
     1     9     7    1
     2     9    11    2
     3    13    11    1
     4    13    14    1
     5     7     6    2
     6    11    10    1
     7    14    12    1
     8     6     5    1
     9     6     8    1
    10    10    12    1
    11    10     8    2
    12     1     5    1
    13     1     2    1
    14     2     4    2
    15     2     3    1
