@<TRIPOS>MOLECULE
/home/cewinharhar/GITHUB/reincatalyze/data/processed/docking_pred/2023-May-31-1603_sub9_nm5_bs15_s42_ex16_mel10_mts1000_k50_ec05_g099_lra3e-4_lrc9e-3/7ac8f9624e71b352d93dccd4dc48cb56e96c53c0_ligand_9.pdbqt
 14 15 0 0 0
SMALL
GASTEIGER

@<TRIPOS>ATOM
      1  C          6.2540    1.3100    0.9510 C.3     1  UNL1        0.0800
      2  C          5.5730    0.4600    1.9480 C.2     1  UNL1        0.1300
      3  C          6.2840   -0.7070    2.5070 C.3     1  UNL1        0.0870
      4  O          4.4480    0.7370    2.2850 O.2     1  UNL1       -0.3000
      5  C          5.7590    1.0160   -0.4510 C.3     1  UNL1        0.0430
      6  C          6.7070    0.1530   -1.1610 C.2     1  UNL1       -0.0440
      7  C          7.3720    0.6190   -2.2770 C.2     1  UNL1        0.0080
      8  C          6.9700   -1.1420   -0.7490 C.2     1  UNL1        0.0540
      9  C          8.2790   -0.1690   -2.9800 C.2     1  UNL1        0.0510
     10  C          7.8720   -1.9530   -1.4320 C.2     1  UNL1        0.1660
     11  C          8.5210   -1.4590   -2.5450 C.2     1  UNL1        0.1650
     12  O          8.3270   -3.2600   -1.2590 O.2     1  UNL1       -0.4540
     13  O          9.3520   -2.4590   -3.0290 O.2     1  UNL1       -0.4540
     14  C          9.0390   -3.6930   -2.3890 C.3     1  UNL1        0.4680
@<TRIPOS>BOND
     1    13    11    1
     2    13    14    1
     3     9    11    2
     4     9     7    1
     5    11    10    1
     6    14    12    1
     7     7     6    2
     8    10    12    1
     9    10     8    2
    10     6     8    1
    11     6     5    1
    12     5     1    1
    13     1     2    1
    14     2     4    2
    15     2     3    1
