@<TRIPOS>MOLECULE
/home/cewinharhar/GITHUB/reincatalyze/data/processed/docking_pred/2023-May-31-1603_sub9_nm5_bs15_s42_ex16_mel10_mts1000_k50_ec05_g099_lra3e-4_lrc9e-3/7ac8f9624e71b352d93dccd4dc48cb56e96c53c0_ligand_9.pdbqt
 14 15 0 0 0
SMALL
GASTEIGER

@<TRIPOS>ATOM
      1  C          5.6530    1.5170   -0.1970 C.3     1  UNL1        0.0800
      2  C          5.0170    1.3100    1.1200 C.2     1  UNL1        0.1300
      3  C          5.4490    0.1740    1.9590 C.3     1  UNL1        0.0870
      4  O          4.1560    2.0730    1.4830 O.2     1  UNL1       -0.3000
      5  C          7.1590    1.3840   -0.1050 C.3     1  UNL1        0.0430
      6  C          7.6160    0.1930   -0.8270 C.2     1  UNL1       -0.0440
      7  C          7.7980    0.2350   -2.1940 C.2     1  UNL1        0.0080
      8  C          7.8770   -1.0010   -0.1790 C.2     1  UNL1        0.0540
      9  C          8.2300   -0.8740   -2.9170 C.2     1  UNL1        0.0510
     10  C          8.3100   -2.1270   -0.8760 C.2     1  UNL1        0.1660
     11  C          8.4830   -2.0530   -2.2420 C.2     1  UNL1        0.1650
     12  O          8.6430   -3.4300   -0.5050 O.2     1  UNL1       -0.4540
     13  O          8.9140   -3.2970   -2.6810 O.2     1  UNL1       -0.4540
     14  C          8.7600   -4.2540   -1.6360 C.3     1  UNL1        0.4680
@<TRIPOS>BOND
     1     9    11    2
     2     9     7    1
     3    13    11    1
     4    13    14    1
     5    11    10    1
     6     7     6    2
     7    14    12    1
     8    10    12    1
     9    10     8    2
    10     6     8    1
    11     6     5    1
    12     1     5    1
    13     1     2    1
    14     2     4    2
    15     2     3    1
