@<TRIPOS>MOLECULE
/home/cewinharhar/GITHUB/reincatalyze/data/processed/docking_pred/2023-May-31-1603_sub9_nm5_bs15_s42_ex16_mel10_mts1000_k50_ec05_g099_lra3e-4_lrc9e-3/7ac8f9624e71b352d93dccd4dc48cb56e96c53c0_ligand_9.pdbqt
 14 15 0 0 0
SMALL
GASTEIGER

@<TRIPOS>ATOM
      1  C          8.2860    0.1810   -2.6420 C.3     1  UNL1        0.0800
      2  C          7.9900   -1.2610   -2.7510 C.2     1  UNL1        0.1300
      3  C          9.0930   -2.2040   -3.0260 C.3     1  UNL1        0.0870
      4  O          6.8530   -1.6400   -2.6130 O.2     1  UNL1       -0.3000
      5  C          8.8500    0.5250   -1.2790 C.3     1  UNL1        0.0430
      6  C          7.8080    0.4350   -0.2520 C.2     1  UNL1       -0.0440
      7  C          7.8390   -0.5750    0.6870 C.2     1  UNL1        0.0080
      8  C          6.7670    1.3450   -0.1840 C.2     1  UNL1        0.0540
      9  C          6.8680   -0.6950    1.6770 C.2     1  UNL1        0.0510
     10  C          5.7810    1.2500    0.7950 C.2     1  UNL1        0.1660
     11  C          5.8410    0.2280    1.7200 C.2     1  UNL1        0.1650
     12  O          4.6450    1.9970    1.1050 O.2     1  UNL1       -0.4540
     13  O          4.7530    0.3640    2.5700 O.2     1  UNL1       -0.4540
     14  C          3.8390    1.3150    2.0310 C.3     1  UNL1        0.4680
@<TRIPOS>BOND
     1     3     2    1
     2     2     1    1
     3     2     4    2
     4     1     5    1
     5     5     6    1
     6     6     8    2
     7     6     7    1
     8     8    10    1
     9     7     9    2
    10    10    12    1
    11    10    11    2
    12    12    14    1
    13     9    11    1
    14    11    13    1
    15    14    13    1
