@<TRIPOS>MOLECULE
/home/cewinharhar/GITHUB/reincatalyze/data/processed/docking_pred/2023-May-31-1603_sub9_nm5_bs15_s42_ex16_mel10_mts1000_k50_ec05_g099_lra3e-4_lrc9e-3/7ac8f9624e71b352d93dccd4dc48cb56e96c53c0_ligand_9.pdbqt
 14 15 0 0 0
SMALL
GASTEIGER

@<TRIPOS>ATOM
      1  C          5.5950    1.8620    1.3190 C.3     1  UNL1        0.0800
      2  C          5.1360    0.6640    2.0490 C.2     1  UNL1        0.1300
      3  C          6.0650   -0.4690    2.2310 C.3     1  UNL1        0.0870
      4  O          4.0100    0.6340    2.4810 O.2     1  UNL1       -0.3000
      5  C          5.4100    1.6990   -0.1760 C.3     1  UNL1        0.0430
      6  C          6.5410    0.9700   -0.7570 C.2     1  UNL1       -0.0440
      7  C          7.8320    1.4150   -0.5620 C.2     1  UNL1        0.0080
      8  C          6.3630   -0.1750   -1.5140 C.2     1  UNL1        0.0540
      9  C          8.9330    0.7530   -1.0980 C.2     1  UNL1        0.0510
     10  C          7.4450   -0.8590   -2.0630 C.2     1  UNL1        0.1660
     11  C          8.7230   -0.3880   -1.8490 C.2     1  UNL1        0.1650
     12  O          7.5720   -2.0070   -2.8460 O.2     1  UNL1       -0.4540
     13  O          9.6020   -1.2440   -2.4980 O.2     1  UNL1       -0.4540
     14  C          8.8750   -2.1180   -3.3570 C.3     1  UNL1        0.4680
@<TRIPOS>BOND
     1    14    12    1
     2    14    13    1
     3    12    10    1
     4    13    11    1
     5    10    11    2
     6    10     8    1
     7    11     9    1
     8     8     6    2
     9     9     7    2
    10     6     7    1
    11     6     5    1
    12     5     1    1
    13     1     2    1
    14     2     3    1
    15     2     4    2
