@<TRIPOS>MOLECULE
/home/cewinharhar/GITHUB/reincatalyze/data/processed/docking_pred/2023-May-31-1603_sub9_nm5_bs15_s42_ex16_mel10_mts1000_k50_ec05_g099_lra3e-4_lrc9e-3/7ac8f9624e71b352d93dccd4dc48cb56e96c53c0_ligand_9.pdbqt
 14 15 0 0 0
SMALL
GASTEIGER

@<TRIPOS>ATOM
      1  C          5.3240    0.0330    2.0730 C.3     1  UNL1        0.0800
      2  C          4.4400    1.1870    1.8130 C.2     1  UNL1        0.1300
      3  C          4.7990    2.1440    0.7480 C.3     1  UNL1        0.0870
      4  O          3.4420    1.3240    2.4770 O.2     1  UNL1       -0.3000
      5  C          6.7540    0.3360    1.6750 C.3     1  UNL1        0.0430
      6  C          7.1730   -0.5260    0.5660 C.2     1  UNL1       -0.0440
      7  C          6.8950   -0.1690   -0.7370 C.2     1  UNL1        0.0080
      8  C          7.8530   -1.7120    0.7770 C.2     1  UNL1        0.0540
      9  C          7.2750   -0.9590   -1.8180 C.2     1  UNL1        0.0510
     10  C          8.2470   -2.5240   -0.2840 C.2     1  UNL1        0.1660
     11  C          7.9530   -2.1390   -1.5760 C.2     1  UNL1        0.1650
     12  O          8.9250   -3.7390   -0.3780 O.2     1  UNL1       -0.4540
     13  O          8.4500   -3.1130   -2.4300 O.2     1  UNL1       -0.4540
     14  C          8.8280   -4.2630   -1.6780 C.3     1  UNL1        0.4680
@<TRIPOS>BOND
     1    13    14    1
     2    13    11    1
     3     9    11    2
     4     9     7    1
     5    14    12    1
     6    11    10    1
     7     7     6    2
     8    12    10    1
     9    10     8    2
    10     6     8    1
    11     6     5    1
    12     3     2    1
    13     5     1    1
    14     2     1    1
    15     2     4    2
