MODEL 1
REMARK VINA RESULT:      -7.6      0.000      0.000
REMARK SMILES CC(=O)CCc1ccc2c(c1)OCO2
REMARK SMILES IDX 4 1 2 2 1 3 3 4 5 5 6 6 7 7 11 8 8 9 10 10 9 11 12 12 14 13
REMARK SMILES IDX 13 14
REMARK H PARENT
REMARK Flexibility Score: inf
ROOT
ATOM      1  C   UNL     1       5.595   1.862   1.319  1.00  0.00     0.080 C 
ENDROOT
BRANCH   1   2
ATOM      2  C   UNL     1       5.136   0.664   2.049  1.00  0.00     0.130 C 
ATOM      3  C   UNL     1       6.065  -0.469   2.231  1.00  0.00     0.087 C 
ATOM      4  O   UNL     1       4.010   0.634   2.481  1.00  0.00    -0.300 OA
ENDBRANCH   1   2
BRANCH   1   5
ATOM      5  C   UNL     1       5.410   1.699  -0.176  1.00  0.00     0.043 C 
BRANCH   5   6
ATOM      6  C   UNL     1       6.541   0.970  -0.757  1.00  0.00    -0.044 A 
ATOM      7  C   UNL     1       7.832   1.415  -0.562  1.00  0.00     0.008 A 
ATOM      8  C   UNL     1       6.363  -0.175  -1.514  1.00  0.00     0.054 A 
ATOM      9  C   UNL     1       8.933   0.753  -1.098  1.00  0.00     0.051 A 
ATOM     10  C   UNL     1       7.445  -0.859  -2.063  1.00  0.00     0.166 A 
ATOM     11  C   UNL     1       8.723  -0.388  -1.849  1.00  0.00     0.165 A 
ATOM     12  O   UNL     1       7.572  -2.007  -2.846  1.00  0.00    -0.454 OA
ATOM     13  O   UNL     1       9.602  -1.244  -2.498  1.00  0.00    -0.454 OA
ATOM     14  C   UNL     1       8.875  -2.118  -3.357  1.00  0.00     0.468 C 
ENDBRANCH   5   6
ENDBRANCH   1   5
TORSDOF 3
ENDMDL
MODEL 2
REMARK VINA RESULT:      -7.2      1.228      1.387
REMARK SMILES CC(=O)CCc1ccc2c(c1)OCO2
REMARK SMILES IDX 4 1 2 2 1 3 3 4 5 5 6 6 7 7 11 8 8 9 10 10 9 11 12 12 14 13
REMARK SMILES IDX 13 14
REMARK H PARENT
REMARK Flexibility Score: inf
ROOT
ATOM      1  C   UNL     1       6.254   1.310   0.951  1.00  0.00     0.080 C 
ENDROOT
BRANCH   1   2
ATOM      2  C   UNL     1       5.573   0.460   1.948  1.00  0.00     0.130 C 
ATOM      3  C   UNL     1       6.284  -0.707   2.507  1.00  0.00     0.087 C 
ATOM      4  O   UNL     1       4.448   0.737   2.285  1.00  0.00    -0.300 OA
ENDBRANCH   1   2
BRANCH   1   5
ATOM      5  C   UNL     1       5.759   1.016  -0.451  1.00  0.00     0.043 C 
BRANCH   5   6
ATOM      6  C   UNL     1       6.707   0.153  -1.161  1.00  0.00    -0.044 A 
ATOM      7  C   UNL     1       7.372   0.619  -2.277  1.00  0.00     0.008 A 
ATOM      8  C   UNL     1       6.970  -1.142  -0.749  1.00  0.00     0.054 A 
ATOM      9  C   UNL     1       8.279  -0.169  -2.980  1.00  0.00     0.051 A 
ATOM     10  C   UNL     1       7.872  -1.953  -1.432  1.00  0.00     0.166 A 
ATOM     11  C   UNL     1       8.521  -1.459  -2.545  1.00  0.00     0.165 A 
ATOM     12  O   UNL     1       8.327  -3.260  -1.259  1.00  0.00    -0.454 OA
ATOM     13  O   UNL     1       9.352  -2.459  -3.029  1.00  0.00    -0.454 OA
ATOM     14  C   UNL     1       9.039  -3.693  -2.389  1.00  0.00     0.468 C 
ENDBRANCH   5   6
ENDBRANCH   1   5
TORSDOF 3
ENDMDL
MODEL 3
REMARK VINA RESULT:      -7.0      1.213      5.176
REMARK SMILES CC(=O)CCc1ccc2c(c1)OCO2
REMARK SMILES IDX 4 1 2 2 1 3 3 4 5 5 6 6 7 7 11 8 8 9 10 10 9 11 12 12 14 13
REMARK SMILES IDX 13 14
REMARK H PARENT
REMARK Flexibility Score: inf
ROOT
ATOM      1  C   UNL     1       8.286   0.181  -2.642  1.00  0.00     0.080 C 
ENDROOT
BRANCH   1   2
ATOM      2  C   UNL     1       7.990  -1.261  -2.751  1.00  0.00     0.130 C 
ATOM      3  C   UNL     1       9.093  -2.204  -3.026  1.00  0.00     0.087 C 
ATOM      4  O   UNL     1       6.853  -1.640  -2.613  1.00  0.00    -0.300 OA
ENDBRANCH   1   2
BRANCH   1   5
ATOM      5  C   UNL     1       8.850   0.525  -1.279  1.00  0.00     0.043 C 
BRANCH   5   6
ATOM      6  C   UNL     1       7.808   0.435  -0.252  1.00  0.00    -0.044 A 
ATOM      7  C   UNL     1       7.839  -0.575   0.687  1.00  0.00     0.008 A 
ATOM      8  C   UNL     1       6.767   1.345  -0.184  1.00  0.00     0.054 A 
ATOM      9  C   UNL     1       6.868  -0.695   1.677  1.00  0.00     0.051 A 
ATOM     10  C   UNL     1       5.781   1.250   0.795  1.00  0.00     0.166 A 
ATOM     11  C   UNL     1       5.841   0.228   1.720  1.00  0.00     0.165 A 
ATOM     12  O   UNL     1       4.645   1.997   1.105  1.00  0.00    -0.454 OA
ATOM     13  O   UNL     1       4.753   0.364   2.570  1.00  0.00    -0.454 OA
ATOM     14  C   UNL     1       3.839   1.315   2.031  1.00  0.00     0.468 C 
ENDBRANCH   5   6
ENDBRANCH   1   5
TORSDOF 3
ENDMDL
MODEL 4
REMARK VINA RESULT:      -7.0      1.804      2.400
REMARK SMILES CC(=O)CCc1ccc2c(c1)OCO2
REMARK SMILES IDX 4 1 2 2 1 3 3 4 5 5 6 6 7 7 11 8 8 9 10 10 9 11 12 12 14 13
REMARK SMILES IDX 13 14
REMARK H PARENT
REMARK Flexibility Score: inf
ROOT
ATOM      1  C   UNL     1       5.324   0.033   2.073  1.00  0.00     0.080 C 
ENDROOT
BRANCH   1   2
ATOM      2  C   UNL     1       4.440   1.187   1.813  1.00  0.00     0.130 C 
ATOM      3  C   UNL     1       4.799   2.144   0.748  1.00  0.00     0.087 C 
ATOM      4  O   UNL     1       3.442   1.324   2.477  1.00  0.00    -0.300 OA
ENDBRANCH   1   2
BRANCH   1   5
ATOM      5  C   UNL     1       6.754   0.336   1.675  1.00  0.00     0.043 C 
BRANCH   5   6
ATOM      6  C   UNL     1       7.173  -0.526   0.566  1.00  0.00    -0.044 A 
ATOM      7  C   UNL     1       6.895  -0.169  -0.737  1.00  0.00     0.008 A 
ATOM      8  C   UNL     1       7.853  -1.712   0.777  1.00  0.00     0.054 A 
ATOM      9  C   UNL     1       7.275  -0.959  -1.818  1.00  0.00     0.051 A 
ATOM     10  C   UNL     1       8.247  -2.524  -0.284  1.00  0.00     0.166 A 
ATOM     11  C   UNL     1       7.953  -2.139  -1.576  1.00  0.00     0.165 A 
ATOM     12  O   UNL     1       8.925  -3.739  -0.378  1.00  0.00    -0.454 OA
ATOM     13  O   UNL     1       8.450  -3.113  -2.430  1.00  0.00    -0.454 OA
ATOM     14  C   UNL     1       8.828  -4.263  -1.678  1.00  0.00     0.468 C 
ENDBRANCH   5   6
ENDBRANCH   1   5
TORSDOF 3
ENDMDL
MODEL 5
REMARK VINA RESULT:      -7.0      1.643      1.992
REMARK SMILES CC(=O)CCc1ccc2c(c1)OCO2
REMARK SMILES IDX 4 1 2 2 1 3 3 4 5 5 6 6 7 7 11 8 8 9 10 10 9 11 12 12 14 13
REMARK SMILES IDX 13 14
REMARK H PARENT
REMARK Flexibility Score: inf
ROOT
ATOM      1  C   UNL     1       5.653   1.517  -0.197  1.00  0.00     0.080 C 
ENDROOT
BRANCH   1   2
ATOM      2  C   UNL     1       5.017   1.310   1.120  1.00  0.00     0.130 C 
ATOM      3  C   UNL     1       5.449   0.174   1.959  1.00  0.00     0.087 C 
ATOM      4  O   UNL     1       4.156   2.073   1.483  1.00  0.00    -0.300 OA
ENDBRANCH   1   2
BRANCH   1   5
ATOM      5  C   UNL     1       7.159   1.384  -0.105  1.00  0.00     0.043 C 
BRANCH   5   6
ATOM      6  C   UNL     1       7.616   0.193  -0.827  1.00  0.00    -0.044 A 
ATOM      7  C   UNL     1       7.798   0.235  -2.194  1.00  0.00     0.008 A 
ATOM      8  C   UNL     1       7.877  -1.001  -0.179  1.00  0.00     0.054 A 
ATOM      9  C   UNL     1       8.230  -0.874  -2.917  1.00  0.00     0.051 A 
ATOM     10  C   UNL     1       8.310  -2.127  -0.876  1.00  0.00     0.166 A 
ATOM     11  C   UNL     1       8.483  -2.053  -2.242  1.00  0.00     0.165 A 
ATOM     12  O   UNL     1       8.643  -3.430  -0.505  1.00  0.00    -0.454 OA
ATOM     13  O   UNL     1       8.914  -3.297  -2.681  1.00  0.00    -0.454 OA
ATOM     14  C   UNL     1       8.760  -4.254  -1.636  1.00  0.00     0.468 C 
ENDBRANCH   5   6
ENDBRANCH   1   5
TORSDOF 3
ENDMDL
