@<TRIPOS>MOLECULE
/home/cewinharhar/GITHUB/reincatalyze/data/processed/docking_pred/2023-May-31-1603_sub9_nm5_bs15_s42_ex16_mel10_mts1000_k50_ec05_g099_lra3e-4_lrc9e-3/7d60c2a66717a3f4b6d307e9593656cfb0aaeeb8_ligand_9.pdbqt
 14 15 0 0 0
SMALL
GASTEIGER

@<TRIPOS>ATOM
      1  C          5.6320    1.8110    1.3520 C.3     1  UNL1        0.0800
      2  C          5.1440    0.6150    2.0690 C.2     1  UNL1        0.1300
      3  C          6.0500   -0.5380    2.2470 C.3     1  UNL1        0.0870
      4  O          4.0160    0.6050    2.4940 O.2     1  UNL1       -0.3000
      5  C          5.4460    1.6680   -0.1440 C.3     1  UNL1        0.0430
      6  C          6.5750    0.9450   -0.7370 C.2     1  UNL1       -0.0440
      7  C          7.8640    1.4070   -0.5700 C.2     1  UNL1        0.0080
      8  C          6.3970   -0.2120   -1.4760 C.2     1  UNL1        0.0540
      9  C          8.9620    0.7500   -1.1170 C.2     1  UNL1        0.0510
     10  C          7.4770   -0.8910   -2.0350 C.2     1  UNL1        0.1660
     11  C          8.7530   -0.4030   -1.8500 C.2     1  UNL1        0.1650
     12  O          7.6030   -2.0470   -2.8050 O.2     1  UNL1       -0.4540
     13  O          9.6310   -1.2570   -2.5030 O.2     1  UNL1       -0.4540
     14  C          8.8990   -2.1490   -3.3380 C.3     1  UNL1        0.4680
@<TRIPOS>BOND
     1    14    12    1
     2    14    13    1
     3    12    10    1
     4    13    11    1
     5    10    11    2
     6    10     8    1
     7    11     9    1
     8     8     6    2
     9     9     7    2
    10     6     7    1
    11     6     5    1
    12     5     1    1
    13     1     2    1
    14     2     3    1
    15     2     4    2
