@<TRIPOS>MOLECULE
/home/cewinharhar/GITHUB/reincatalyze/data/processed/docking_pred/2023-May-31-1603_sub9_nm5_bs15_s42_ex16_mel10_mts1000_k50_ec05_g099_lra3e-4_lrc9e-3/7d60c2a66717a3f4b6d307e9593656cfb0aaeeb8_ligand_9.pdbqt
 14 15 0 0 0
SMALL
GASTEIGER

@<TRIPOS>ATOM
      1  C          8.4370    0.2720   -2.5560 C.3     1  UNL1        0.0800
      2  C          8.5300   -1.1850   -2.7770 C.2     1  UNL1        0.1300
      3  C          7.2890   -1.9760   -2.8980 C.3     1  UNL1        0.0870
      4  O          9.6180   -1.7000   -2.8540 O.2     1  UNL1       -0.3000
      5  C          8.9390    0.6510   -1.1780 C.3     1  UNL1        0.0430
      6  C          7.8690    0.5160   -0.1850 C.2     1  UNL1       -0.0440
      7  C          7.8680   -0.5430    0.6990 C.2     1  UNL1        0.0080
      8  C          6.8330    1.4290   -0.0970 C.2     1  UNL1        0.0540
      9  C          6.8700   -0.7070    1.6560 C.2     1  UNL1        0.0510
     10  C          5.8210    1.2910    0.8500 C.2     1  UNL1        0.1660
     11  C          5.8480    0.2210    1.7200 C.2     1  UNL1        0.1650
     12  O          4.6820    2.0300    1.1690 O.2     1  UNL1       -0.4540
     13  O          4.7390    0.3210    2.5480 O.2     1  UNL1       -0.4540
     14  C          3.8470    1.3070    2.0360 C.3     1  UNL1        0.4680
@<TRIPOS>BOND
     1     3     2    1
     2     4     2    2
     3     2     1    1
     4     1     5    1
     5     5     6    1
     6     6     8    2
     7     6     7    1
     8     8    10    1
     9     7     9    2
    10    10    12    1
    11    10    11    2
    12    12    14    1
    13     9    11    1
    14    11    13    1
    15    14    13    1
