MODEL 1
REMARK VINA RESULT:      -7.5      0.000      0.000
REMARK SMILES CC(=O)CCc1ccc2c(c1)OCO2
REMARK SMILES IDX 4 1 2 2 1 3 3 4 5 5 6 6 7 7 11 8 8 9 10 10 9 11 12 12 14 13
REMARK SMILES IDX 13 14
REMARK H PARENT
REMARK Flexibility Score: inf
ROOT
ATOM      1  C   UNL     1       5.632   1.811   1.352  1.00  0.00     0.080 C 
ENDROOT
BRANCH   1   2
ATOM      2  C   UNL     1       5.144   0.615   2.069  1.00  0.00     0.130 C 
ATOM      3  C   UNL     1       6.050  -0.538   2.247  1.00  0.00     0.087 C 
ATOM      4  O   UNL     1       4.016   0.605   2.494  1.00  0.00    -0.300 OA
ENDBRANCH   1   2
BRANCH   1   5
ATOM      5  C   UNL     1       5.446   1.668  -0.144  1.00  0.00     0.043 C 
BRANCH   5   6
ATOM      6  C   UNL     1       6.575   0.945  -0.737  1.00  0.00    -0.044 A 
ATOM      7  C   UNL     1       7.864   1.407  -0.570  1.00  0.00     0.008 A 
ATOM      8  C   UNL     1       6.397  -0.212  -1.476  1.00  0.00     0.054 A 
ATOM      9  C   UNL     1       8.962   0.750  -1.117  1.00  0.00     0.051 A 
ATOM     10  C   UNL     1       7.477  -0.891  -2.035  1.00  0.00     0.166 A 
ATOM     11  C   UNL     1       8.753  -0.403  -1.850  1.00  0.00     0.165 A 
ATOM     12  O   UNL     1       7.603  -2.047  -2.805  1.00  0.00    -0.454 OA
ATOM     13  O   UNL     1       9.631  -1.257  -2.503  1.00  0.00    -0.454 OA
ATOM     14  C   UNL     1       8.899  -2.149  -3.338  1.00  0.00     0.468 C 
ENDBRANCH   5   6
ENDBRANCH   1   5
TORSDOF 3
ENDMDL
MODEL 2
REMARK VINA RESULT:      -7.3      1.698      2.145
REMARK SMILES CC(=O)CCc1ccc2c(c1)OCO2
REMARK SMILES IDX 4 1 2 2 1 3 3 4 5 5 6 6 7 7 11 8 8 9 10 10 9 11 12 12 14 13
REMARK SMILES IDX 13 14
REMARK H PARENT
REMARK Flexibility Score: inf
ROOT
ATOM      1  C   UNL     1       6.546   1.314   0.394  1.00  0.00     0.080 C 
ENDROOT
BRANCH   1   2
ATOM      2  C   UNL     1       5.401   1.139   1.311  1.00  0.00     0.130 C 
ATOM      3  C   UNL     1       5.305  -0.095   2.116  1.00  0.00     0.087 C 
ATOM      4  O   UNL     1       4.568   2.008   1.383  1.00  0.00    -0.300 OA
ENDBRANCH   1   2
BRANCH   1   5
ATOM      5  C   UNL     1       6.190   0.889  -1.015  1.00  0.00     0.043 C 
BRANCH   5   6
ATOM      6  C   UNL     1       6.993  -0.266  -1.424  1.00  0.00    -0.044 A 
ATOM      7  C   UNL     1       7.473  -0.361  -2.713  1.00  0.00     0.008 A 
ATOM      8  C   UNL     1       7.297  -1.293  -0.547  1.00  0.00     0.054 A 
ATOM      9  C   UNL     1       8.239  -1.442  -3.141  1.00  0.00     0.051 A 
ATOM     10  C   UNL     1       8.061  -2.387  -0.946  1.00  0.00     0.166 A 
ATOM     11  C   UNL     1       8.527  -2.452  -2.243  1.00  0.00     0.165 A 
ATOM     12  O   UNL     1       8.516  -3.540  -0.305  1.00  0.00    -0.454 OA
ATOM     13  O   UNL     1       9.250  -3.629  -2.373  1.00  0.00    -0.454 OA
ATOM     14  C   UNL     1       9.026  -4.458  -1.237  1.00  0.00     0.468 C 
ENDBRANCH   5   6
ENDBRANCH   1   5
TORSDOF 3
ENDMDL
MODEL 3
REMARK VINA RESULT:      -7.3      2.084      2.640
REMARK SMILES CC(=O)CCc1ccc2c(c1)OCO2
REMARK SMILES IDX 4 1 2 2 1 3 3 4 5 5 6 6 7 7 11 8 8 9 10 10 9 11 12 12 14 13
REMARK SMILES IDX 13 14
REMARK H PARENT
REMARK Flexibility Score: inf
ROOT
ATOM      1  C   UNL     1       5.415  -0.009   1.871  1.00  0.00     0.080 C 
ENDROOT
BRANCH   1   2
ATOM      2  C   UNL     1       4.602   1.198   1.623  1.00  0.00     0.130 C 
ATOM      3  C   UNL     1       4.995   2.123   0.541  1.00  0.00     0.087 C 
ATOM      4  O   UNL     1       3.633   1.406   2.311  1.00  0.00    -0.300 OA
ENDBRANCH   1   2
BRANCH   1   5
ATOM      5  C   UNL     1       6.868   0.225   1.514  1.00  0.00     0.043 C 
BRANCH   5   6
ATOM      6  C   UNL     1       7.322  -0.761   0.529  1.00  0.00    -0.044 A 
ATOM      7  C   UNL     1       7.157  -0.524  -0.820  1.00  0.00     0.008 A 
ATOM      8  C   UNL     1       7.922  -1.949   0.905  1.00  0.00     0.054 A 
ATOM      9  C   UNL     1       7.573  -1.434  -1.788  1.00  0.00     0.051 A 
ATOM     10  C   UNL     1       8.349  -2.879  -0.040  1.00  0.00     0.166 A 
ATOM     11  C   UNL     1       8.171  -2.613  -1.382  1.00  0.00     0.165 A 
ATOM     12  O   UNL     1       8.969  -4.126   0.036  1.00  0.00    -0.454 OA
ATOM     13  O   UNL     1       8.677  -3.688  -2.097  1.00  0.00    -0.454 OA
ATOM     14  C   UNL     1       8.939  -4.773  -1.211  1.00  0.00     0.468 C 
ENDBRANCH   5   6
ENDBRANCH   1   5
TORSDOF 3
ENDMDL
MODEL 4
REMARK VINA RESULT:      -7.1      1.960      2.549
REMARK SMILES CC(=O)CCc1ccc2c(c1)OCO2
REMARK SMILES IDX 4 1 2 2 1 3 3 4 5 5 6 6 7 7 11 8 8 9 10 10 9 11 12 12 14 13
REMARK SMILES IDX 13 14
REMARK H PARENT
REMARK Flexibility Score: inf
ROOT
ATOM      1  C   UNL     1       6.803   0.731   1.146  1.00  0.00     0.080 C 
ENDROOT
BRANCH   1   2
ATOM      2  C   UNL     1       5.408   1.141   1.402  1.00  0.00     0.130 C 
ATOM      3  C   UNL     1       4.780   2.150   0.525  1.00  0.00     0.087 C 
ATOM      4  O   UNL     1       4.808   0.643   2.322  1.00  0.00    -0.300 OA
ENDBRANCH   1   2
BRANCH   1   5
ATOM      5  C   UNL     1       7.156   0.871  -0.320  1.00  0.00     0.043 C 
BRANCH   5   6
ATOM      6  C   UNL     1       7.638  -0.405  -0.858  1.00  0.00    -0.044 A 
ATOM      7  C   UNL     1       7.817  -0.565  -2.216  1.00  0.00     0.008 A 
ATOM      8  C   UNL     1       7.926  -1.482  -0.039  1.00  0.00     0.054 A 
ATOM      9  C   UNL     1       8.271  -1.760  -2.767  1.00  0.00     0.051 A 
ATOM     10  C   UNL     1       8.382  -2.691  -0.561  1.00  0.00     0.166 A 
ATOM     11  C   UNL     1       8.551  -2.819  -1.924  1.00  0.00     0.165 A 
ATOM     12  O   UNL     1       8.744  -3.915  -0.001  1.00  0.00    -0.454 OA
ATOM     13  O   UNL     1       9.008  -4.105  -2.173  1.00  0.00    -0.454 OA
ATOM     14  C   UNL     1       8.877  -4.897  -0.996  1.00  0.00     0.468 C 
ENDBRANCH   5   6
ENDBRANCH   1   5
TORSDOF 3
ENDMDL
MODEL 5
REMARK VINA RESULT:      -6.9      1.230      5.322
REMARK SMILES CC(=O)CCc1ccc2c(c1)OCO2
REMARK SMILES IDX 4 1 2 2 1 3 3 4 5 5 6 6 7 7 11 8 8 9 10 10 9 11 12 12 14 13
REMARK SMILES IDX 13 14
REMARK H PARENT
REMARK Flexibility Score: inf
ROOT
ATOM      1  C   UNL     1       8.437   0.272  -2.556  1.00  0.00     0.080 C 
ENDROOT
BRANCH   1   2
ATOM      2  C   UNL     1       8.530  -1.185  -2.777  1.00  0.00     0.130 C 
ATOM      3  C   UNL     1       7.289  -1.976  -2.898  1.00  0.00     0.087 C 
ATOM      4  O   UNL     1       9.618  -1.700  -2.854  1.00  0.00    -0.300 OA
ENDBRANCH   1   2
BRANCH   1   5
ATOM      5  C   UNL     1       8.939   0.651  -1.178  1.00  0.00     0.043 C 
BRANCH   5   6
ATOM      6  C   UNL     1       7.869   0.516  -0.185  1.00  0.00    -0.044 A 
ATOM      7  C   UNL     1       7.868  -0.543   0.699  1.00  0.00     0.008 A 
ATOM      8  C   UNL     1       6.833   1.429  -0.097  1.00  0.00     0.054 A 
ATOM      9  C   UNL     1       6.870  -0.707   1.656  1.00  0.00     0.051 A 
ATOM     10  C   UNL     1       5.821   1.291   0.850  1.00  0.00     0.166 A 
ATOM     11  C   UNL     1       5.848   0.221   1.720  1.00  0.00     0.165 A 
ATOM     12  O   UNL     1       4.682   2.030   1.169  1.00  0.00    -0.454 OA
ATOM     13  O   UNL     1       4.739   0.321   2.548  1.00  0.00    -0.454 OA
ATOM     14  C   UNL     1       3.847   1.307   2.036  1.00  0.00     0.468 C 
ENDBRANCH   5   6
ENDBRANCH   1   5
TORSDOF 3
ENDMDL
