@<TRIPOS>MOLECULE
/home/cewinharhar/GITHUB/reincatalyze/data/processed/docking_pred/2023-May-31-1603_sub9_nm5_bs15_s42_ex16_mel10_mts1000_k50_ec05_g099_lra3e-4_lrc9e-3/7ff2a118a63670e32b3229f93cb76c105bf9ebe4_ligand_9.pdbqt
 14 15 0 0 0
SMALL
GASTEIGER

@<TRIPOS>ATOM
      1  C          5.6210    0.7150    0.0580 C.3     1  UNL1        0.0800
      2  C          5.8290    1.0200    1.4880 C.2     1  UNL1        0.1300
      3  C          7.0920    1.6590    1.9120 C.3     1  UNL1        0.0870
      4  O          4.9640    0.7420    2.2810 O.2     1  UNL1       -0.3000
      5  C          6.8920    0.9250   -0.7390 C.3     1  UNL1        0.0430
      6  C          7.4530   -0.3620   -1.1620 C.2     1  UNL1       -0.0440
      7  C          7.7020   -0.6080   -2.4960 C.2     1  UNL1        0.0080
      8  C          7.7490   -1.3650   -0.2560 C.2     1  UNL1        0.0540
      9  C          8.2330   -1.8160   -2.9390 C.2     1  UNL1        0.0510
     10  C          8.2810   -2.5840   -0.6690 C.2     1  UNL1        0.1660
     11  C          8.5190   -2.7990   -2.0110 C.2     1  UNL1        0.1650
     12  O          8.6690   -3.7480   -0.0070 O.2     1  UNL1       -0.4540
     13  O          9.0430   -4.0770   -2.1470 O.2     1  UNL1       -0.4540
     14  C          8.8910   -4.7900   -0.9230 C.3     1  UNL1        0.4680
@<TRIPOS>BOND
     1     9     7    1
     2     9    11    2
     3     7     6    2
     4    13    11    1
     5    13    14    1
     6    11    10    1
     7     6     5    1
     8     6     8    1
     9    14    12    1
    10     5     1    1
    11    10     8    2
    12    10    12    1
    13     1     2    1
    14     2     3    1
    15     2     4    2
