MODEL 1
REMARK VINA RESULT:      -7.5      0.000      0.000
REMARK SMILES CC(=O)CCc1ccc2c(c1)OCO2
REMARK SMILES IDX 4 1 2 2 1 3 3 4 5 5 6 6 7 7 11 8 8 9 10 10 9 11 12 12 14 13
REMARK SMILES IDX 13 14
REMARK H PARENT
REMARK Flexibility Score: inf
ROOT
ATOM      1  C   UNL     1       5.633   1.823   1.344  1.00  0.00     0.080 C 
ENDROOT
BRANCH   1   2
ATOM      2  C   UNL     1       5.135   0.633   2.063  1.00  0.00     0.130 C 
ATOM      3  C   UNL     1       6.035  -0.522   2.254  1.00  0.00     0.087 C 
ATOM      4  O   UNL     1       4.003   0.629   2.479  1.00  0.00    -0.300 OA
ENDBRANCH   1   2
BRANCH   1   5
ATOM      5  C   UNL     1       5.448   1.678  -0.152  1.00  0.00     0.043 C 
BRANCH   5   6
ATOM      6  C   UNL     1       6.577   0.952  -0.742  1.00  0.00    -0.044 A 
ATOM      7  C   UNL     1       7.865   1.420  -0.584  1.00  0.00     0.008 A 
ATOM      8  C   UNL     1       6.399  -0.210  -1.472  1.00  0.00     0.054 A 
ATOM      9  C   UNL     1       8.964   0.761  -1.129  1.00  0.00     0.051 A 
ATOM     10  C   UNL     1       7.479  -0.891  -2.029  1.00  0.00     0.166 A 
ATOM     11  C   UNL     1       8.755  -0.398  -1.852  1.00  0.00     0.165 A 
ATOM     12  O   UNL     1       7.606  -2.053  -2.790  1.00  0.00    -0.454 OA
ATOM     13  O   UNL     1       9.632  -1.255  -2.501  1.00  0.00    -0.454 OA
ATOM     14  C   UNL     1       8.900  -2.156  -3.327  1.00  0.00     0.468 C 
ENDBRANCH   5   6
ENDBRANCH   1   5
TORSDOF 3
ENDMDL
MODEL 2
REMARK VINA RESULT:      -7.4      1.915      2.366
REMARK SMILES CC(=O)CCc1ccc2c(c1)OCO2
REMARK SMILES IDX 4 1 2 2 1 3 3 4 5 5 6 6 7 7 11 8 8 9 10 10 9 11 12 12 14 13
REMARK SMILES IDX 13 14
REMARK H PARENT
REMARK Flexibility Score: inf
ROOT
ATOM      1  C   UNL     1       5.671   1.133  -0.274  1.00  0.00     0.080 C 
ENDROOT
BRANCH   1   2
ATOM      2  C   UNL     1       5.129   1.189   1.098  1.00  0.00     0.130 C 
ATOM      3  C   UNL     1       5.400   0.073   2.027  1.00  0.00     0.087 C 
ATOM      4  O   UNL     1       4.476   2.146   1.433  1.00  0.00    -0.300 OA
ENDBRANCH   1   2
BRANCH   1   5
ATOM      5  C   UNL     1       7.183   1.038  -0.263  1.00  0.00     0.043 C 
BRANCH   5   6
ATOM      6  C   UNL     1       7.622  -0.245  -0.821  1.00  0.00    -0.044 A 
ATOM      7  C   UNL     1       7.721  -0.413  -2.187  1.00  0.00     0.008 A 
ATOM      8  C   UNL     1       7.949  -1.321  -0.015  1.00  0.00     0.054 A 
ATOM      9  C   UNL     1       8.133  -1.615  -2.757  1.00  0.00     0.051 A 
ATOM     10  C   UNL     1       8.365  -2.535  -0.556  1.00  0.00     0.166 A 
ATOM     11  C   UNL     1       8.453  -2.672  -1.925  1.00  0.00     0.165 A 
ATOM     12  O   UNL     1       8.750  -3.760  -0.011  1.00  0.00    -0.454 OA
ATOM     13  O   UNL     1       8.885  -3.963  -2.194  1.00  0.00    -0.454 OA
ATOM     14  C   UNL     1       8.817  -4.748  -1.007  1.00  0.00     0.468 C 
ENDBRANCH   5   6
ENDBRANCH   1   5
TORSDOF 3
ENDMDL
MODEL 3
REMARK VINA RESULT:      -7.3      2.086      2.633
REMARK SMILES CC(=O)CCc1ccc2c(c1)OCO2
REMARK SMILES IDX 4 1 2 2 1 3 3 4 5 5 6 6 7 7 11 8 8 9 10 10 9 11 12 12 14 13
REMARK SMILES IDX 13 14
REMARK H PARENT
REMARK Flexibility Score: inf
ROOT
ATOM      1  C   UNL     1       5.454   0.007   1.885  1.00  0.00     0.080 C 
ENDROOT
BRANCH   1   2
ATOM      2  C   UNL     1       4.617   1.197   1.636  1.00  0.00     0.130 C 
ATOM      3  C   UNL     1       5.013   2.148   0.578  1.00  0.00     0.087 C 
ATOM      4  O   UNL     1       3.626   1.369   2.302  1.00  0.00    -0.300 OA
ENDBRANCH   1   2
BRANCH   1   5
ATOM      5  C   UNL     1       6.895   0.256   1.490  1.00  0.00     0.043 C 
BRANCH   5   6
ATOM      6  C   UNL     1       7.340  -0.741   0.512  1.00  0.00    -0.044 A 
ATOM      7  C   UNL     1       7.169  -0.516  -0.839  1.00  0.00     0.008 A 
ATOM      8  C   UNL     1       7.939  -1.928   0.896  1.00  0.00     0.054 A 
ATOM      9  C   UNL     1       7.578  -1.437  -1.800  1.00  0.00     0.051 A 
ATOM     10  C   UNL     1       8.358  -2.868  -0.042  1.00  0.00     0.166 A 
ATOM     11  C   UNL     1       8.173  -2.613  -1.385  1.00  0.00     0.165 A 
ATOM     12  O   UNL     1       8.973  -4.116   0.042  1.00  0.00    -0.454 OA
ATOM     13  O   UNL     1       8.672  -3.697  -2.093  1.00  0.00    -0.454 OA
ATOM     14  C   UNL     1       8.935  -4.774  -1.198  1.00  0.00     0.468 C 
ENDBRANCH   5   6
ENDBRANCH   1   5
TORSDOF 3
ENDMDL
MODEL 4
REMARK VINA RESULT:      -7.1      1.187      1.336
REMARK SMILES CC(=O)CCc1ccc2c(c1)OCO2
REMARK SMILES IDX 4 1 2 2 1 3 3 4 5 5 6 6 7 7 11 8 8 9 10 10 9 11 12 12 14 13
REMARK SMILES IDX 13 14
REMARK H PARENT
REMARK Flexibility Score: inf
ROOT
ATOM      1  C   UNL     1       6.231   1.340   0.937  1.00  0.00     0.080 C 
ENDROOT
BRANCH   1   2
ATOM      2  C   UNL     1       5.554   0.496   1.942  1.00  0.00     0.130 C 
ATOM      3  C   UNL     1       6.271  -0.662   2.512  1.00  0.00     0.087 C 
ATOM      4  O   UNL     1       4.428   0.770   2.278  1.00  0.00    -0.300 OA
ENDBRANCH   1   2
BRANCH   1   5
ATOM      5  C   UNL     1       5.738   1.031  -0.461  1.00  0.00     0.043 C 
BRANCH   5   6
ATOM      6  C   UNL     1       6.695   0.174  -1.167  1.00  0.00    -0.044 A 
ATOM      7  C   UNL     1       7.369   0.647  -2.274  1.00  0.00     0.008 A 
ATOM      8  C   UNL     1       6.956  -1.123  -0.760  1.00  0.00     0.054 A 
ATOM      9  C   UNL     1       8.285  -0.134  -2.972  1.00  0.00     0.051 A 
ATOM     10  C   UNL     1       7.868  -1.928  -1.439  1.00  0.00     0.166 A 
ATOM     11  C   UNL     1       8.526  -1.425  -2.542  1.00  0.00     0.165 A 
ATOM     12  O   UNL     1       8.324  -3.235  -1.268  1.00  0.00    -0.454 OA
ATOM     13  O   UNL     1       9.364  -2.421  -3.023  1.00  0.00    -0.454 OA
ATOM     14  C   UNL     1       9.048  -3.659  -2.394  1.00  0.00     0.468 C 
ENDBRANCH   5   6
ENDBRANCH   1   5
TORSDOF 3
ENDMDL
MODEL 5
REMARK VINA RESULT:      -7.0      1.218      5.167
REMARK SMILES CC(=O)CCc1ccc2c(c1)OCO2
REMARK SMILES IDX 4 1 2 2 1 3 3 4 5 5 6 6 7 7 11 8 8 9 10 10 9 11 12 12 14 13
REMARK SMILES IDX 13 14
REMARK H PARENT
REMARK Flexibility Score: inf
ROOT
ATOM      1  C   UNL     1       8.264   0.160  -2.705  1.00  0.00     0.080 C 
ENDROOT
BRANCH   1   2
ATOM      2  C   UNL     1       7.985  -1.288  -2.771  1.00  0.00     0.130 C 
ATOM      3  C   UNL     1       9.102  -2.228  -2.997  1.00  0.00     0.087 C 
ATOM      4  O   UNL     1       6.850  -1.675  -2.639  1.00  0.00    -0.300 OA
ENDBRANCH   1   2
BRANCH   1   5
ATOM      5  C   UNL     1       8.842   0.548  -1.360  1.00  0.00     0.043 C 
BRANCH   5   6
ATOM      6  C   UNL     1       7.822   0.443  -0.312  1.00  0.00    -0.044 A 
ATOM      7  C   UNL     1       7.887  -0.567   0.625  1.00  0.00     0.008 A 
ATOM      8  C   UNL     1       6.770   1.338  -0.223  1.00  0.00     0.054 A 
ATOM      9  C   UNL     1       6.938  -0.701   1.635  1.00  0.00     0.051 A 
ATOM     10  C   UNL     1       5.806   1.228   0.776  1.00  0.00     0.166 A 
ATOM     11  C   UNL     1       5.899   0.207   1.699  1.00  0.00     0.165 A 
ATOM     12  O   UNL     1       4.665   1.959   1.109  1.00  0.00    -0.454 OA
ATOM     13  O   UNL     1       4.827   0.327   2.571  1.00  0.00    -0.454 OA
ATOM     14  C   UNL     1       3.888   1.266   2.052  1.00  0.00     0.468 C 
ENDBRANCH   5   6
ENDBRANCH   1   5
TORSDOF 3
ENDMDL
