@<TRIPOS>MOLECULE
/home/cewinharhar/GITHUB/reincatalyze/data/processed/docking_pred/2023-May-31-1603_sub9_nm5_bs15_s42_ex16_mel10_mts1000_k50_ec05_g099_lra3e-4_lrc9e-3/80c9945afd0f5f9f0270d56cce32b054e5c09707_ligand_9.pdbqt
 14 15 0 0 0
SMALL
GASTEIGER

@<TRIPOS>ATOM
      1  C          2.3630   -7.8190   -0.6920 C.3     1  UNL1        0.0800
      2  C          2.3740   -6.3930   -0.3090 C.2     1  UNL1        0.1300
      3  C          1.9870   -5.3750   -1.3070 C.3     1  UNL1        0.0870
      4  O          2.6980   -6.0880    0.8120 O.2     1  UNL1       -0.3000
      5  C          2.9420   -8.6870    0.4060 C.3     1  UNL1        0.0430
      6  C          1.9680   -9.6970    0.8310 C.2     1  UNL1       -0.0440
      7  C          2.3950  -10.8930    1.3700 C.2     1  UNL1        0.0080
      8  C          0.6040   -9.4960    0.7110 C.2     1  UNL1        0.0540
      9  C          1.5040  -11.8780    1.7850 C.2     1  UNL1        0.0510
     10  C         -0.3120  -10.4630    1.1170 C.2     1  UNL1        0.1660
     11  C          0.1470  -11.6480    1.6520 C.2     1  UNL1        0.1650
     12  O         -1.7040  -10.5410    1.1200 O.2     1  UNL1       -0.4540
     13  O         -0.9580  -12.4240    1.9690 O.2     1  UNL1       -0.4540
     14  C         -2.1280  -11.8520    1.3900 C.3     1  UNL1        0.4680
@<TRIPOS>BOND
     1     3     2    1
     2     1     2    1
     3     1     5    1
     4     2     4    2
     5     5     6    1
     6     8     6    2
     7     8    10    1
     8     6     7    1
     9    10    12    1
    10    10    11    2
    11    12    14    1
    12     7     9    2
    13    14    13    1
    14    11     9    1
    15    11    13    1
