MODEL 1
REMARK VINA RESULT:       1.2      0.000      0.000
REMARK SMILES CC(=O)CCc1ccc2c(c1)OCO2
REMARK SMILES IDX 4 1 2 2 1 3 3 4 5 5 6 6 7 7 11 8 8 9 10 10 9 11 12 12 14 13
REMARK SMILES IDX 13 14
REMARK H PARENT
REMARK Flexibility Score: inf
ROOT
ATOM      1  C   UNL     1       6.397   2.058   1.537  1.00  0.00     0.080 C 
ENDROOT
BRANCH   1   2
ATOM      2  C   UNL     1       5.068   2.051   0.892  1.00  0.00     0.130 C 
ATOM      3  C   UNL     1       4.980   2.150  -0.579  1.00  0.00     0.087 C 
ATOM      4  O   UNL     1       4.082   1.965   1.581  1.00  0.00    -0.300 OA
ENDBRANCH   1   2
BRANCH   1   5
ATOM      5  C   UNL     1       6.469   1.042   2.658  1.00  0.00     0.043 C 
BRANCH   5   6
ATOM      6  C   UNL     1       6.877  -0.267   2.140  1.00  0.00    -0.044 A 
ATOM      7  C   UNL     1       5.932  -1.232   1.862  1.00  0.00     0.008 A 
ATOM      8  C   UNL     1       8.206  -0.583   1.915  1.00  0.00     0.054 A 
ATOM      9  C   UNL     1       6.279  -2.488   1.371  1.00  0.00     0.051 A 
ATOM     10  C   UNL     1       8.583  -1.831   1.424  1.00  0.00     0.166 A 
ATOM     11  C   UNL     1       7.614  -2.775   1.155  1.00  0.00     0.165 A 
ATOM     12  O   UNL     1       9.807  -2.419   1.106  1.00  0.00    -0.454 OA
ATOM     13  O   UNL     1       8.252  -3.913   0.683  1.00  0.00    -0.454 OA
ATOM     14  C   UNL     1       9.655  -3.801   0.901  1.00  0.00     0.468 C 
ENDBRANCH   5   6
ENDBRANCH   1   5
TORSDOF 3
ENDMDL
MODEL 2
REMARK VINA RESULT:       1.6      3.073      3.955
REMARK SMILES CC(=O)CCc1ccc2c(c1)OCO2
REMARK SMILES IDX 4 1 2 2 1 3 3 4 5 5 6 6 7 7 11 8 8 9 10 10 9 11 12 12 14 13
REMARK SMILES IDX 13 14
REMARK H PARENT
REMARK Flexibility Score: inf
ROOT
ATOM      1  C   UNL     1       2.054  -0.161   2.899  1.00  0.00     0.080 C 
ENDROOT
BRANCH   1   2
ATOM      2  C   UNL     1       0.635   0.181   3.125  1.00  0.00     0.130 C 
ATOM      3  C   UNL     1       0.029   1.285   2.355  1.00  0.00     0.087 C 
ATOM      4  O   UNL     1       0.000  -0.449   3.935  1.00  0.00    -0.300 OA
ENDBRANCH   1   2
BRANCH   1   5
ATOM      5  C   UNL     1       2.822   1.022   2.348  1.00  0.00     0.043 C 
BRANCH   5   6
ATOM      6  C   UNL     1       4.232   0.672   2.149  1.00  0.00    -0.044 A 
ATOM      7  C   UNL     1       5.156   1.651   1.848  1.00  0.00     0.008 A 
ATOM      8  C   UNL     1       4.685  -0.631   2.254  1.00  0.00     0.054 A 
ATOM      9  C   UNL     1       6.504   1.361   1.651  1.00  0.00     0.051 A 
ATOM     10  C   UNL     1       6.027  -0.952   2.063  1.00  0.00     0.166 A 
ATOM     11  C   UNL     1       6.927   0.050   1.763  1.00  0.00     0.165 A 
ATOM     12  O   UNL     1       6.757  -2.139   2.104  1.00  0.00    -0.454 OA
ATOM     13  O   UNL     1       8.178  -0.534   1.625  1.00  0.00    -0.454 OA
ATOM     14  C   UNL     1       8.042  -1.951   1.570  1.00  0.00     0.468 C 
ENDBRANCH   5   6
ENDBRANCH   1   5
TORSDOF 3
ENDMDL
MODEL 3
REMARK VINA RESULT:       1.6      9.411     11.227
REMARK SMILES CC(=O)CCc1ccc2c(c1)OCO2
REMARK SMILES IDX 4 1 2 2 1 3 3 4 5 5 6 6 7 7 11 8 8 9 10 10 9 11 12 12 14 13
REMARK SMILES IDX 13 14
REMARK H PARENT
REMARK Flexibility Score: inf
ROOT
ATOM      1  C   UNL     1       2.363  -7.819  -0.692  1.00  0.00     0.080 C 
ENDROOT
BRANCH   1   2
ATOM      2  C   UNL     1       2.374  -6.393  -0.309  1.00  0.00     0.130 C 
ATOM      3  C   UNL     1       1.987  -5.375  -1.307  1.00  0.00     0.087 C 
ATOM      4  O   UNL     1       2.698  -6.088   0.812  1.00  0.00    -0.300 OA
ENDBRANCH   1   2
BRANCH   1   5
ATOM      5  C   UNL     1       2.942  -8.687   0.406  1.00  0.00     0.043 C 
BRANCH   5   6
ATOM      6  C   UNL     1       1.968  -9.697   0.831  1.00  0.00    -0.044 A 
ATOM      7  C   UNL     1       2.395 -10.893   1.370  1.00  0.00     0.008 A 
ATOM      8  C   UNL     1       0.604  -9.496   0.711  1.00  0.00     0.054 A 
ATOM      9  C   UNL     1       1.504 -11.878   1.785  1.00  0.00     0.051 A 
ATOM     10  C   UNL     1      -0.312 -10.463   1.117  1.00  0.00     0.166 A 
ATOM     11  C   UNL     1       0.147 -11.648   1.652  1.00  0.00     0.165 A 
ATOM     12  O   UNL     1      -1.704 -10.541   1.120  1.00  0.00    -0.454 OA
ATOM     13  O   UNL     1      -0.958 -12.424   1.969  1.00  0.00    -0.454 OA
ATOM     14  C   UNL     1      -2.128 -11.852   1.390  1.00  0.00     0.468 C 
ENDBRANCH   5   6
ENDBRANCH   1   5
TORSDOF 3
ENDMDL
MODEL 4
REMARK VINA RESULT:       1.7      2.200      5.803
REMARK SMILES CC(=O)CCc1ccc2c(c1)OCO2
REMARK SMILES IDX 4 1 2 2 1 3 3 4 5 5 6 6 7 7 11 8 8 9 10 10 9 11 12 12 14 13
REMARK SMILES IDX 13 14
REMARK H PARENT
REMARK Flexibility Score: inf
ROOT
ATOM      1  C   UNL     1       8.803  -4.809  -0.447  1.00  0.00     0.080 C 
ENDROOT
BRANCH   1   2
ATOM      2  C   UNL     1       9.546  -4.698  -1.719  1.00  0.00     0.130 C 
ATOM      3  C   UNL     1      10.349  -5.846  -2.187  1.00  0.00     0.087 C 
ATOM      4  O   UNL     1       9.481  -3.672  -2.350  1.00  0.00    -0.300 OA
ENDBRANCH   1   2
BRANCH   1   5
ATOM      5  C   UNL     1       9.541  -4.119   0.681  1.00  0.00     0.043 C 
BRANCH   5   6
ATOM      6  C   UNL     1       8.860  -2.878   1.059  1.00  0.00    -0.044 A 
ATOM      7  C   UNL     1       9.578  -1.711   1.221  1.00  0.00     0.008 A 
ATOM      8  C   UNL     1       7.493  -2.827   1.267  1.00  0.00     0.054 A 
ATOM      9  C   UNL     1       8.969  -0.511   1.580  1.00  0.00     0.051 A 
ATOM     10  C   UNL     1       6.856  -1.641   1.627  1.00  0.00     0.166 A 
ATOM     11  C   UNL     1       7.602  -0.491   1.780  1.00  0.00     0.165 A 
ATOM     12  O   UNL     1       5.532  -1.293   1.895  1.00  0.00    -0.454 OA
ATOM     13  O   UNL     1       6.733   0.531   2.136  1.00  0.00    -0.454 OA
ATOM     14  C   UNL     1       5.463  -0.017   2.477  1.00  0.00     0.468 C 
ENDBRANCH   5   6
ENDBRANCH   1   5
TORSDOF 3
ENDMDL
MODEL 5
REMARK VINA RESULT:       1.8      1.348      5.682
REMARK SMILES CC(=O)CCc1ccc2c(c1)OCO2
REMARK SMILES IDX 4 1 2 2 1 3 3 4 5 5 6 6 7 7 11 8 8 9 10 10 9 11 12 12 14 13
REMARK SMILES IDX 13 14
REMARK H PARENT
REMARK Flexibility Score: inf
ROOT
ATOM      1  C   UNL     1       8.007  -3.024   1.217  1.00  0.00     0.080 C 
ENDROOT
BRANCH   1   2
ATOM      2  C   UNL     1       9.114  -3.814   0.641  1.00  0.00     0.130 C 
ATOM      3  C   UNL     1       8.902  -4.529  -0.634  1.00  0.00     0.087 C 
ATOM      4  O   UNL     1      10.169  -3.859   1.224  1.00  0.00    -0.300 OA
ENDBRANCH   1   2
BRANCH   1   5
ATOM      5  C   UNL     1       8.499  -1.690   1.739  1.00  0.00     0.043 C 
BRANCH   5   6
ATOM      6  C   UNL     1       7.406  -0.713   1.767  1.00  0.00    -0.044 A 
ATOM      7  C   UNL     1       7.660   0.622   1.531  1.00  0.00     0.008 A 
ATOM      8  C   UNL     1       6.099  -1.084   2.027  1.00  0.00     0.054 A 
ATOM      9  C   UNL     1       6.650   1.581   1.550  1.00  0.00     0.051 A 
ATOM     10  C   UNL     1       5.068  -0.148   2.052  1.00  0.00     0.166 A 
ATOM     11  C   UNL     1       5.354   1.180   1.812  1.00  0.00     0.165 A 
ATOM     12  O   UNL     1       3.694  -0.221   2.279  1.00  0.00    -0.454 OA
ATOM     13  O   UNL     1       4.165   1.890   1.896  1.00  0.00    -0.454 OA
ATOM     14  C   UNL     1       3.150   1.061   2.457  1.00  0.00     0.468 C 
ENDBRANCH   5   6
ENDBRANCH   1   5
TORSDOF 3
ENDMDL
