@<TRIPOS>MOLECULE
/home/cewinharhar/GITHUB/reincatalyze/data/processed/docking_pred/2023-May-31-1603_sub9_nm5_bs15_s42_ex16_mel10_mts1000_k50_ec05_g099_lra3e-4_lrc9e-3/80c9945afd0f5f9f0270d56cce32b054e5c09707_ligand_9.pdbqt
 14 15 0 0 0
SMALL
GASTEIGER

@<TRIPOS>ATOM
      1  C          8.0070   -3.0240    1.2170 C.3     1  UNL1        0.0800
      2  C          9.1140   -3.8140    0.6410 C.2     1  UNL1        0.1300
      3  C          8.9020   -4.5290   -0.6340 C.3     1  UNL1        0.0870
      4  O         10.1690   -3.8590    1.2240 O.2     1  UNL1       -0.3000
      5  C          8.4990   -1.6900    1.7390 C.3     1  UNL1        0.0430
      6  C          7.4060   -0.7130    1.7670 C.2     1  UNL1       -0.0440
      7  C          7.6600    0.6220    1.5310 C.2     1  UNL1        0.0080
      8  C          6.0990   -1.0840    2.0270 C.2     1  UNL1        0.0540
      9  C          6.6500    1.5810    1.5500 C.2     1  UNL1        0.0510
     10  C          5.0680   -0.1480    2.0520 C.2     1  UNL1        0.1660
     11  C          5.3540    1.1800    1.8120 C.2     1  UNL1        0.1650
     12  O          3.6940   -0.2210    2.2790 O.2     1  UNL1       -0.4540
     13  O          4.1650    1.8900    1.8960 O.2     1  UNL1       -0.4540
     14  C          3.1500    1.0610    2.4570 C.3     1  UNL1        0.4680
@<TRIPOS>BOND
     1     3     2    1
     2     2     1    1
     3     2     4    2
     4     1     5    1
     5     7     9    1
     6     7     6    2
     7     9    11    2
     8     5     6    1
     9     6     8    1
    10    11    13    1
    11    11    10    1
    12    13    14    1
    13     8    10    2
    14    10    12    1
    15    12    14    1
