@<TRIPOS>MOLECULE
/home/cewinharhar/GITHUB/reincatalyze/data/processed/docking_pred/2023-May-31-1603_sub9_nm5_bs15_s42_ex16_mel10_mts1000_k50_ec05_g099_lra3e-4_lrc9e-3/81487a167534eaf1a49a57d95a0bec7d9495d7bd_ligand_9.pdbqt
 14 15 0 0 0
SMALL
GASTEIGER

@<TRIPOS>ATOM
      1  C          6.5850    1.2710    0.4600 C.3     1  UNL1        0.0800
      2  C          5.3840    1.1610    1.3110 C.2     1  UNL1        0.1300
      3  C          5.2190   -0.0250    2.1750 C.3     1  UNL1        0.0870
      4  O          4.5610    2.0430    1.2830 O.2     1  UNL1       -0.3000
      5  C          6.2910    0.8430   -0.9630 C.3     1  UNL1        0.0430
      6  C          7.0310   -0.3770   -1.2970 C.2     1  UNL1       -0.0440
      7  C          7.4230   -0.6210   -2.5970 C.2     1  UNL1        0.0080
      8  C          7.3590   -1.3200   -0.3380 C.2     1  UNL1        0.0540
      9  C          8.1260   -1.7680   -2.9560 C.2     1  UNL1        0.0510
     10  C          8.0620   -2.4770   -0.6670 C.2     1  UNL1        0.1660
     11  C          8.4400   -2.6910   -1.9760 C.2     1  UNL1        0.1650
     12  O          8.5220   -3.5740    0.0610 O.2     1  UNL1       -0.4540
     13  O          9.1170   -3.9010   -2.0280 O.2     1  UNL1       -0.4540
     14  C          8.9410   -4.6010   -0.7990 C.3     1  UNL1        0.4680
@<TRIPOS>BOND
     1     9     7    1
     2     9    11    2
     3     7     6    2
     4    13    11    1
     5    13    14    1
     6    11    10    1
     7     6     5    1
     8     6     8    1
     9     5     1    1
    10    14    12    1
    11    10     8    2
    12    10    12    1
    13     1     2    1
    14     4     2    2
    15     2     3    1
