@<TRIPOS>MOLECULE
/home/cewinharhar/GITHUB/reincatalyze/data/processed/docking_pred/2023-May-31-1603_sub9_nm5_bs15_s42_ex16_mel10_mts1000_k50_ec05_g099_lra3e-4_lrc9e-3/81487a167534eaf1a49a57d95a0bec7d9495d7bd_ligand_9.pdbqt
 14 15 0 0 0
SMALL
GASTEIGER

@<TRIPOS>ATOM
      1  C          8.2850    0.1830   -2.6130 C.3     1  UNL1        0.0800
      2  C          7.9880   -1.2590   -2.7320 C.2     1  UNL1        0.1300
      3  C          9.0890   -2.2010   -3.0160 C.3     1  UNL1        0.0870
      4  O          6.8510   -1.6380   -2.5940 O.2     1  UNL1       -0.3000
      5  C          8.8460    0.5170   -1.2470 C.3     1  UNL1        0.0430
      6  C          7.7980    0.4340   -0.2250 C.2     1  UNL1       -0.0440
      7  C          7.8260   -0.5680    0.7220 C.2     1  UNL1        0.0080
      8  C          6.7560    1.3420   -0.1710 C.2     1  UNL1        0.0540
      9  C          6.8500   -0.6820    1.7080 C.2     1  UNL1        0.0510
     10  C          5.7650    1.2540    0.8040 C.2     1  UNL1        0.1660
     11  C          5.8210    0.2400    1.7370 C.2     1  UNL1        0.1650
     12  O          4.6250    2.0020    1.1010 O.2     1  UNL1       -0.4540
     13  O          4.7280    0.3810    2.5800 O.2     1  UNL1       -0.4540
     14  C          3.8160    1.3270    2.0290 C.3     1  UNL1        0.4680
@<TRIPOS>BOND
     1     3     2    1
     2     2     1    1
     3     2     4    2
     4     1     5    1
     5     5     6    1
     6     6     8    2
     7     6     7    1
     8     8    10    1
     9     7     9    2
    10    10    12    1
    11    10    11    2
    12    12    14    1
    13     9    11    1
    14    11    13    1
    15    14    13    1
