@<TRIPOS>MOLECULE
/home/cewinharhar/GITHUB/reincatalyze/data/processed/docking_pred/2023-May-31-1603_sub9_nm5_bs15_s42_ex16_mel10_mts1000_k50_ec05_g099_lra3e-4_lrc9e-3/81487a167534eaf1a49a57d95a0bec7d9495d7bd_ligand_9.pdbqt
 14 15 0 0 0
SMALL
GASTEIGER

@<TRIPOS>ATOM
      1  C          5.4030   -0.0390    1.8490 C.3     1  UNL1        0.0800
      2  C          4.6050    1.1820    1.6170 C.2     1  UNL1        0.1300
      3  C          5.0100    2.1140    0.5450 C.3     1  UNL1        0.0870
      4  O          3.6400    1.3940    2.3090 O.2     1  UNL1       -0.3000
      5  C          6.8650    0.1910    1.5290 C.3     1  UNL1        0.0430
      6  C          7.3380   -0.7900    0.5480 C.2     1  UNL1       -0.0440
      7  C          7.2060   -0.5430   -0.8030 C.2     1  UNL1        0.0080
      8  C          7.9250   -1.9830    0.9300 C.2     1  UNL1        0.0540
      9  C          7.6410   -1.4480   -1.7670 C.2     1  UNL1        0.0510
     10  C          8.3710   -2.9080   -0.0110 C.2     1  UNL1        0.1660
     11  C          8.2240   -2.6320   -1.3550 C.2     1  UNL1        0.1650
     12  O          8.9840   -4.1580    0.0700 O.2     1  UNL1       -0.4540
     13  O          8.7430   -3.7050   -2.0660 O.2     1  UNL1       -0.4540
     14  C          8.9810   -4.7960   -1.1810 C.3     1  UNL1        0.4680
@<TRIPOS>BOND
     1    13    11    1
     2    13    14    1
     3     9    11    2
     4     9     7    1
     5    11    10    1
     6    14    12    1
     7     7     6    2
     8    10    12    1
     9    10     8    2
    10     3     2    1
    11     6     8    1
    12     6     5    1
    13     5     1    1
    14     2     1    1
    15     2     4    2
