@<TRIPOS>MOLECULE
/home/cewinharhar/GITHUB/reincatalyze/data/processed/docking_pred/2023-May-31-1603_sub9_nm5_bs15_s42_ex16_mel10_mts1000_k50_ec05_g099_lra3e-4_lrc9e-3/81487a167534eaf1a49a57d95a0bec7d9495d7bd_ligand_9.pdbqt
 14 15 0 0 0
SMALL
GASTEIGER

@<TRIPOS>ATOM
      1  C          6.3040    1.2420    0.9740 C.3     1  UNL1        0.0800
      2  C          5.6000    0.4080    1.9690 C.2     1  UNL1        0.1300
      3  C          6.2820   -0.7760    2.5280 C.3     1  UNL1        0.0870
      4  O          4.4820    0.7110    2.3040 O.2     1  UNL1       -0.3000
      5  C          5.8020    0.9650   -0.4280 C.3     1  UNL1        0.0430
      6  C          6.7360    0.0920   -1.1460 C.2     1  UNL1       -0.0440
      7  C          7.3320    0.5210   -2.3150 C.2     1  UNL1        0.0080
      8  C          7.0530   -1.1750   -0.6900 C.2     1  UNL1        0.0540
      9  C          8.2230   -0.2770   -3.0270 C.2     1  UNL1        0.0510
     10  C          7.9410   -1.9960   -1.3800 C.2     1  UNL1        0.1660
     11  C          8.5200   -1.5380   -2.5460 C.2     1  UNL1        0.1650
     12  O          8.4390   -3.2820   -1.1710 O.2     1  UNL1       -0.4540
     13  O          9.3520   -2.5400   -3.0250 O.2     1  UNL1       -0.4540
     14  C          9.1050   -3.7500   -2.3150 C.3     1  UNL1        0.4680
@<TRIPOS>BOND
     1     9    11    2
     2     9     7    1
     3    13    11    1
     4    13    14    1
     5    11    10    1
     6     7     6    2
     7    14    12    1
     8    10    12    1
     9    10     8    2
    10     6     8    1
    11     6     5    1
    12     5     1    1
    13     1     2    1
    14     2     4    2
    15     2     3    1
