@<TRIPOS>MOLECULE
/home/cewinharhar/GITHUB/reincatalyze/data/processed/docking_pred/2023-May-31-1603_sub9_nm5_bs15_s42_ex16_mel10_mts1000_k50_ec05_g099_lra3e-4_lrc9e-3/82066193004a6cdbe54a2a950d109d8cafa96b54_ligand_9.pdbqt
 14 15 0 0 0
SMALL
GASTEIGER

@<TRIPOS>ATOM
      1  C          6.8500    0.9220    1.0660 C.3     1  UNL1        0.0800
      2  C          5.4210    1.1680    1.3440 C.2     1  UNL1        0.1300
      3  C          4.6850    2.1500    0.5220 C.3     1  UNL1        0.0870
      4  O          4.8830    0.5610    2.2370 O.2     1  UNL1       -0.3000
      5  C          7.1420    0.9980   -0.4180 C.3     1  UNL1        0.0430
      6  C          7.6140   -0.2960   -0.9170 C.2     1  UNL1       -0.0440
      7  C          7.7660   -0.5070   -2.2720 C.2     1  UNL1        0.0080
      8  C          7.9210   -1.3420   -0.0650 C.2     1  UNL1        0.0540
      9  C          8.2120   -1.7210   -2.7870 C.2     1  UNL1        0.0510
     10  C          8.3690   -2.5680   -0.5500 C.2     1  UNL1        0.1660
     11  C          8.5100   -2.7480   -1.9110 C.2     1  UNL1        0.1650
     12  O          8.7440   -3.7710    0.0480 O.2     1  UNL1       -0.4540
     13  O          8.9650   -4.0420   -2.1210 O.2     1  UNL1       -0.4540
     14  C          8.8590   -4.7890   -0.9130 C.3     1  UNL1        0.4680
@<TRIPOS>BOND
     1     9     7    1
     2     9    11    2
     3     7     6    2
     4    13    11    1
     5    13    14    1
     6    11    10    1
     7     6     5    1
     8     6     8    1
     9    14    12    1
    10    10     8    2
    11    10    12    1
    12     5     1    1
    13     3     2    1
    14     1     2    1
    15     2     4    2
