@<TRIPOS>MOLECULE
/home/cewinharhar/GITHUB/reincatalyze/data/processed/docking_pred/2023-May-31-1603_sub9_nm5_bs15_s42_ex16_mel10_mts1000_k50_ec05_g099_lra3e-4_lrc9e-3/82066193004a6cdbe54a2a950d109d8cafa96b54_ligand_9.pdbqt
 14 15 0 0 0
SMALL
GASTEIGER

@<TRIPOS>ATOM
      1  C          5.3690   -0.0380    1.9600 C.3     1  UNL1        0.0800
      2  C          4.5420    1.1670    1.7560 C.2     1  UNL1        0.1300
      3  C          4.9400    2.1500    0.7280 C.3     1  UNL1        0.0870
      4  O          3.5560    1.3250    2.4340 O.2     1  UNL1       -0.3000
      5  C          6.8170    0.2220    1.6000 C.3     1  UNL1        0.0430
      6  C          7.2750   -0.7290    0.5830 C.2     1  UNL1       -0.0440
      7  C          7.1210   -0.4430   -0.7580 C.2     1  UNL1        0.0080
      8  C          7.8680   -1.9330    0.9200 C.2     1  UNL1        0.0540
      9  C          7.5410   -1.3190   -1.7550 C.2     1  UNL1        0.0510
     10  C          8.2980   -2.8300   -0.0550 C.2     1  UNL1        0.1660
     11  C          8.1310   -2.5140   -1.3870 C.2     1  UNL1        0.1650
     12  O          8.9130   -4.0810   -0.0190 O.2     1  UNL1       -0.4540
     13  O          8.6380   -3.5650   -2.1370 O.2     1  UNL1       -0.4540
     14  C          8.8900   -4.6820   -1.2880 C.3     1  UNL1        0.4680
@<TRIPOS>BOND
     1    13    11    1
     2    13    14    1
     3     9    11    2
     4     9     7    1
     5    11    10    1
     6    14    12    1
     7     7     6    2
     8    10    12    1
     9    10     8    2
    10     6     8    1
    11     6     5    1
    12     3     2    1
    13     5     1    1
    14     2     1    1
    15     2     4    2
