@<TRIPOS>MOLECULE
/home/cewinharhar/GITHUB/reincatalyze/data/processed/docking_pred/2023-May-31-1603_sub9_nm5_bs15_s42_ex16_mel10_mts1000_k50_ec05_g099_lra3e-4_lrc9e-3/82066193004a6cdbe54a2a950d109d8cafa96b54_ligand_9.pdbqt
 14 15 0 0 0
SMALL
GASTEIGER

@<TRIPOS>ATOM
      1  C          8.2760    0.2010   -2.5860 C.3     1  UNL1        0.0800
      2  C          7.9700   -1.2380   -2.7120 C.2     1  UNL1        0.1300
      3  C          9.0640   -2.1840   -3.0120 C.3     1  UNL1        0.0870
      4  O          6.8320   -1.6120   -2.5680 O.2     1  UNL1       -0.3000
      5  C          8.8300    0.5270   -1.2150 C.3     1  UNL1        0.0430
      6  C          7.7750    0.4410   -0.2000 C.2     1  UNL1       -0.0440
      7  C          7.7940   -0.5680    0.7410 C.2     1  UNL1        0.0080
      8  C          6.7350    1.3520   -0.1460 C.2     1  UNL1        0.0540
      9  C          6.8120   -0.6850    1.7200 C.2     1  UNL1        0.0510
     10  C          5.7380    1.2610    0.8220 C.2     1  UNL1        0.1660
     11  C          5.7850    0.2400    1.7490 C.2     1  UNL1        0.1650
     12  O          4.5990    2.0100    1.1170 O.2     1  UNL1       -0.4540
     13  O          4.6880    0.3790    2.5860 O.2     1  UNL1       -0.4540
     14  C          3.7820    1.3310    2.0350 C.3     1  UNL1        0.4680
@<TRIPOS>BOND
     1     3     2    1
     2     2     1    1
     3     2     4    2
     4     1     5    1
     5     5     6    1
     6     6     8    2
     7     6     7    1
     8     8    10    1
     9     7     9    2
    10    10    12    1
    11    10    11    2
    12    12    14    1
    13     9    11    1
    14    11    13    1
    15    14    13    1
