@<TRIPOS>MOLECULE
/home/cewinharhar/GITHUB/reincatalyze/data/processed/docking_pred/2023-May-31-1603_sub9_nm5_bs15_s42_ex16_mel10_mts1000_k50_ec05_g099_lra3e-4_lrc9e-3/82066193004a6cdbe54a2a950d109d8cafa96b54_ligand_9.pdbqt
 14 15 0 0 0
SMALL
GASTEIGER

@<TRIPOS>ATOM
      1  C          5.6090    1.2510   -0.2480 C.3     1  UNL1        0.0800
      2  C          5.0830    1.2300    1.1320 C.2     1  UNL1        0.1300
      3  C          5.4030    0.0850    2.0070 C.3     1  UNL1        0.0870
      4  O          4.4040    2.1500    1.5160 O.2     1  UNL1       -0.3000
      5  C          7.1200    1.1610   -0.2610 C.3     1  UNL1        0.0430
      6  C          7.5560   -0.1100   -0.8470 C.2     1  UNL1       -0.0440
      7  C          7.5900   -0.2700   -2.2170 C.2     1  UNL1        0.0080
      8  C          7.9430   -1.1830   -0.0640 C.2     1  UNL1        0.0540
      9  C          7.9960   -1.4610   -2.8130 C.2     1  UNL1        0.0510
     10  C          8.3540   -2.3870   -0.6310 C.2     1  UNL1        0.1660
     11  C          8.3770   -2.5150   -2.0040 C.2     1  UNL1        0.1650
     12  O          8.7890   -3.6060   -0.1130 O.2     1  UNL1       -0.4540
     13  O          8.8190   -3.7970   -2.3010 O.2     1  UNL1       -0.4540
     14  C          8.8250   -4.5880   -1.1160 C.3     1  UNL1        0.4680
@<TRIPOS>BOND
     1     9     7    1
     2     9    11    2
     3    13    11    1
     4    13    14    1
     5     7     6    2
     6    11    10    1
     7    14    12    1
     8     6     5    1
     9     6     8    1
    10    10    12    1
    11    10     8    2
    12     5     1    1
    13     1     2    1
    14     2     4    2
    15     2     3    1
