MODEL 1
REMARK VINA RESULT:      -7.6      0.000      0.000
REMARK SMILES CC(=O)CCc1ccc2c(c1)OCO2
REMARK SMILES IDX 4 1 2 2 1 3 3 4 5 5 6 6 7 7 11 8 8 9 10 10 9 11 12 12 14 13
REMARK SMILES IDX 13 14
REMARK H PARENT
REMARK Flexibility Score: inf
ROOT
ATOM      1  C   UNL     1       5.635   1.807   1.349  1.00  0.00     0.080 C 
ENDROOT
BRANCH   1   2
ATOM      2  C   UNL     1       5.144   0.616   2.072  1.00  0.00     0.130 C 
ATOM      3  C   UNL     1       6.049  -0.536   2.262  1.00  0.00     0.087 C 
ATOM      4  O   UNL     1       4.014   0.609   2.494  1.00  0.00    -0.300 OA
ENDBRANCH   1   2
BRANCH   1   5
ATOM      5  C   UNL     1       5.440   1.659  -0.146  1.00  0.00     0.043 C 
BRANCH   5   6
ATOM      6  C   UNL     1       6.567   0.938  -0.744  1.00  0.00    -0.044 A 
ATOM      7  C   UNL     1       7.857   1.399  -0.576  1.00  0.00     0.008 A 
ATOM      8  C   UNL     1       6.387  -0.214  -1.489  1.00  0.00     0.054 A 
ATOM      9  C   UNL     1       8.954   0.744  -1.127  1.00  0.00     0.051 A 
ATOM     10  C   UNL     1       7.466  -0.891  -2.053  1.00  0.00     0.166 A 
ATOM     11  C   UNL     1       8.743  -0.405  -1.867  1.00  0.00     0.165 A 
ATOM     12  O   UNL     1       7.590  -2.042  -2.830  1.00  0.00    -0.454 OA
ATOM     13  O   UNL     1       9.619  -1.256  -2.525  1.00  0.00    -0.454 OA
ATOM     14  C   UNL     1       8.885  -2.143  -3.365  1.00  0.00     0.468 C 
ENDBRANCH   5   6
ENDBRANCH   1   5
TORSDOF 3
ENDMDL
MODEL 2
REMARK VINA RESULT:      -7.4      1.841      2.273
REMARK SMILES CC(=O)CCc1ccc2c(c1)OCO2
REMARK SMILES IDX 4 1 2 2 1 3 3 4 5 5 6 6 7 7 11 8 8 9 10 10 9 11 12 12 14 13
REMARK SMILES IDX 13 14
REMARK H PARENT
REMARK Flexibility Score: inf
ROOT
ATOM      1  C   UNL     1       5.609   1.251  -0.248  1.00  0.00     0.080 C 
ENDROOT
BRANCH   1   2
ATOM      2  C   UNL     1       5.083   1.230   1.132  1.00  0.00     0.130 C 
ATOM      3  C   UNL     1       5.403   0.085   2.007  1.00  0.00     0.087 C 
ATOM      4  O   UNL     1       4.404   2.150   1.516  1.00  0.00    -0.300 OA
ENDBRANCH   1   2
BRANCH   1   5
ATOM      5  C   UNL     1       7.120   1.161  -0.261  1.00  0.00     0.043 C 
BRANCH   5   6
ATOM      6  C   UNL     1       7.556  -0.110  -0.847  1.00  0.00    -0.044 A 
ATOM      7  C   UNL     1       7.590  -0.270  -2.217  1.00  0.00     0.008 A 
ATOM      8  C   UNL     1       7.943  -1.183  -0.064  1.00  0.00     0.054 A 
ATOM      9  C   UNL     1       7.996  -1.461  -2.813  1.00  0.00     0.051 A 
ATOM     10  C   UNL     1       8.354  -2.387  -0.631  1.00  0.00     0.166 A 
ATOM     11  C   UNL     1       8.377  -2.515  -2.004  1.00  0.00     0.165 A 
ATOM     12  O   UNL     1       8.789  -3.606  -0.113  1.00  0.00    -0.454 OA
ATOM     13  O   UNL     1       8.819  -3.797  -2.301  1.00  0.00    -0.454 OA
ATOM     14  C   UNL     1       8.825  -4.588  -1.116  1.00  0.00     0.468 C 
ENDBRANCH   5   6
ENDBRANCH   1   5
TORSDOF 3
ENDMDL
MODEL 3
REMARK VINA RESULT:      -7.4      2.032      2.595
REMARK SMILES CC(=O)CCc1ccc2c(c1)OCO2
REMARK SMILES IDX 4 1 2 2 1 3 3 4 5 5 6 6 7 7 11 8 8 9 10 10 9 11 12 12 14 13
REMARK SMILES IDX 13 14
REMARK H PARENT
REMARK Flexibility Score: inf
ROOT
ATOM      1  C   UNL     1       5.369  -0.038   1.960  1.00  0.00     0.080 C 
ENDROOT
BRANCH   1   2
ATOM      2  C   UNL     1       4.542   1.167   1.756  1.00  0.00     0.130 C 
ATOM      3  C   UNL     1       4.940   2.150   0.728  1.00  0.00     0.087 C 
ATOM      4  O   UNL     1       3.556   1.325   2.434  1.00  0.00    -0.300 OA
ENDBRANCH   1   2
BRANCH   1   5
ATOM      5  C   UNL     1       6.817   0.222   1.600  1.00  0.00     0.043 C 
BRANCH   5   6
ATOM      6  C   UNL     1       7.275  -0.729   0.583  1.00  0.00    -0.044 A 
ATOM      7  C   UNL     1       7.121  -0.443  -0.758  1.00  0.00     0.008 A 
ATOM      8  C   UNL     1       7.868  -1.933   0.920  1.00  0.00     0.054 A 
ATOM      9  C   UNL     1       7.541  -1.319  -1.755  1.00  0.00     0.051 A 
ATOM     10  C   UNL     1       8.298  -2.830  -0.055  1.00  0.00     0.166 A 
ATOM     11  C   UNL     1       8.131  -2.514  -1.387  1.00  0.00     0.165 A 
ATOM     12  O   UNL     1       8.913  -4.081  -0.019  1.00  0.00    -0.454 OA
ATOM     13  O   UNL     1       8.638  -3.565  -2.137  1.00  0.00    -0.454 OA
ATOM     14  C   UNL     1       8.890  -4.682  -1.288  1.00  0.00     0.468 C 
ENDBRANCH   5   6
ENDBRANCH   1   5
TORSDOF 3
ENDMDL
MODEL 4
REMARK VINA RESULT:      -7.2      1.948      2.524
REMARK SMILES CC(=O)CCc1ccc2c(c1)OCO2
REMARK SMILES IDX 4 1 2 2 1 3 3 4 5 5 6 6 7 7 11 8 8 9 10 10 9 11 12 12 14 13
REMARK SMILES IDX 13 14
REMARK H PARENT
REMARK Flexibility Score: inf
ROOT
ATOM      1  C   UNL     1       6.850   0.922   1.066  1.00  0.00     0.080 C 
ENDROOT
BRANCH   1   2
ATOM      2  C   UNL     1       5.421   1.168   1.344  1.00  0.00     0.130 C 
ATOM      3  C   UNL     1       4.685   2.150   0.522  1.00  0.00     0.087 C 
ATOM      4  O   UNL     1       4.883   0.561   2.237  1.00  0.00    -0.300 OA
ENDBRANCH   1   2
BRANCH   1   5
ATOM      5  C   UNL     1       7.142   0.998  -0.418  1.00  0.00     0.043 C 
BRANCH   5   6
ATOM      6  C   UNL     1       7.614  -0.296  -0.917  1.00  0.00    -0.044 A 
ATOM      7  C   UNL     1       7.766  -0.507  -2.272  1.00  0.00     0.008 A 
ATOM      8  C   UNL     1       7.921  -1.342  -0.065  1.00  0.00     0.054 A 
ATOM      9  C   UNL     1       8.212  -1.721  -2.787  1.00  0.00     0.051 A 
ATOM     10  C   UNL     1       8.369  -2.568  -0.550  1.00  0.00     0.166 A 
ATOM     11  C   UNL     1       8.510  -2.748  -1.911  1.00  0.00     0.165 A 
ATOM     12  O   UNL     1       8.744  -3.771   0.048  1.00  0.00    -0.454 OA
ATOM     13  O   UNL     1       8.965  -4.042  -2.121  1.00  0.00    -0.454 OA
ATOM     14  C   UNL     1       8.859  -4.789  -0.913  1.00  0.00     0.468 C 
ENDBRANCH   5   6
ENDBRANCH   1   5
TORSDOF 3
ENDMDL
MODEL 5
REMARK VINA RESULT:      -7.0      1.205      5.193
REMARK SMILES CC(=O)CCc1ccc2c(c1)OCO2
REMARK SMILES IDX 4 1 2 2 1 3 3 4 5 5 6 6 7 7 11 8 8 9 10 10 9 11 12 12 14 13
REMARK SMILES IDX 13 14
REMARK H PARENT
REMARK Flexibility Score: inf
ROOT
ATOM      1  C   UNL     1       8.276   0.201  -2.586  1.00  0.00     0.080 C 
ENDROOT
BRANCH   1   2
ATOM      2  C   UNL     1       7.970  -1.238  -2.712  1.00  0.00     0.130 C 
ATOM      3  C   UNL     1       9.064  -2.184  -3.012  1.00  0.00     0.087 C 
ATOM      4  O   UNL     1       6.832  -1.612  -2.568  1.00  0.00    -0.300 OA
ENDBRANCH   1   2
BRANCH   1   5
ATOM      5  C   UNL     1       8.830   0.527  -1.215  1.00  0.00     0.043 C 
BRANCH   5   6
ATOM      6  C   UNL     1       7.775   0.441  -0.200  1.00  0.00    -0.044 A 
ATOM      7  C   UNL     1       7.794  -0.568   0.741  1.00  0.00     0.008 A 
ATOM      8  C   UNL     1       6.735   1.352  -0.146  1.00  0.00     0.054 A 
ATOM      9  C   UNL     1       6.812  -0.685   1.720  1.00  0.00     0.051 A 
ATOM     10  C   UNL     1       5.738   1.261   0.822  1.00  0.00     0.166 A 
ATOM     11  C   UNL     1       5.785   0.240   1.749  1.00  0.00     0.165 A 
ATOM     12  O   UNL     1       4.599   2.010   1.117  1.00  0.00    -0.454 OA
ATOM     13  O   UNL     1       4.688   0.379   2.586  1.00  0.00    -0.454 OA
ATOM     14  C   UNL     1       3.782   1.331   2.035  1.00  0.00     0.468 C 
ENDBRANCH   5   6
ENDBRANCH   1   5
TORSDOF 3
ENDMDL
