@<TRIPOS>MOLECULE
/home/cewinharhar/GITHUB/reincatalyze/data/processed/docking_pred/2023-May-31-1603_sub9_nm5_bs15_s42_ex16_mel10_mts1000_k50_ec05_g099_lra3e-4_lrc9e-3/84f6a015bafc2578e701aafee66be27aa4cb1192_ligand_9.pdbqt
 14 15 0 0 0
SMALL
GASTEIGER

@<TRIPOS>ATOM
      1  C          5.3130   -0.1010    1.9700 C.3     1  UNL1        0.0800
      2  C          4.5130    1.1260    1.7780 C.2     1  UNL1        0.1300
      3  C          4.9140    2.0910    0.7340 C.3     1  UNL1        0.0870
      4  O          3.5490    1.3140    2.4770 O.2     1  UNL1       -0.3000
      5  C          6.7750    0.1420    1.6570 C.3     1  UNL1        0.0430
      6  C          7.2470   -0.8020    0.6400 C.2     1  UNL1       -0.0440
      7  C          7.0720   -0.5270   -0.7000 C.2     1  UNL1        0.0080
      8  C          7.8770   -1.9870    0.9770 C.2     1  UNL1        0.0540
      9  C          7.5050   -1.3970   -1.6970 C.2     1  UNL1        0.0510
     10  C          8.3210   -2.8770    0.0020 C.2     1  UNL1        0.1660
     11  C          8.1310   -2.5730   -1.3300 C.2     1  UNL1        0.1650
     12  O          8.9700   -4.1110    0.0370 O.2     1  UNL1       -0.4540
     13  O          8.6590   -3.6140   -2.0800 O.2     1  UNL1       -0.4540
     14  C          8.9500   -4.7190   -1.2290 C.3     1  UNL1        0.4680
@<TRIPOS>BOND
     1    13    11    1
     2    13    14    1
     3     9    11    2
     4     9     7    1
     5    11    10    1
     6    14    12    1
     7     7     6    2
     8    10    12    1
     9    10     8    2
    10     6     8    1
    11     6     5    1
    12     3     2    1
    13     5     1    1
    14     2     1    1
    15     2     4    2
