MODEL 1
REMARK VINA RESULT:      -7.5      0.000      0.000
REMARK SMILES CC(=O)CCc1ccc2c(c1)OCO2
REMARK SMILES IDX 4 1 2 2 1 3 3 4 5 5 6 6 7 7 11 8 8 9 10 10 9 11 12 12 14 13
REMARK SMILES IDX 13 14
REMARK H PARENT
REMARK Flexibility Score: inf
ROOT
ATOM      1  C   UNL     1       5.614   1.839   1.331  1.00  0.00     0.080 C 
ENDROOT
BRANCH   1   2
ATOM      2  C   UNL     1       5.137   0.645   2.056  1.00  0.00     0.130 C 
ATOM      3  C   UNL     1       6.054  -0.498   2.244  1.00  0.00     0.087 C 
ATOM      4  O   UNL     1       4.009   0.627   2.482  1.00  0.00    -0.300 OA
ENDBRANCH   1   2
BRANCH   1   5
ATOM      5  C   UNL     1       5.429   1.683  -0.165  1.00  0.00     0.043 C 
BRANCH   5   6
ATOM      6  C   UNL     1       6.559   0.957  -0.751  1.00  0.00    -0.044 A 
ATOM      7  C   UNL     1       7.848   1.415  -0.574  1.00  0.00     0.008 A 
ATOM      8  C   UNL     1       6.382  -0.197  -1.493  1.00  0.00     0.054 A 
ATOM      9  C   UNL     1       8.949   0.755  -1.114  1.00  0.00     0.051 A 
ATOM     10  C   UNL     1       7.463  -0.879  -2.046  1.00  0.00     0.166 A 
ATOM     11  C   UNL     1       8.740  -0.396  -1.851  1.00  0.00     0.165 A 
ATOM     12  O   UNL     1       7.591  -2.034  -2.818  1.00  0.00    -0.454 OA
ATOM     13  O   UNL     1       9.619  -1.251  -2.499  1.00  0.00    -0.454 OA
ATOM     14  C   UNL     1       8.890  -2.140  -3.342  1.00  0.00     0.468 C 
ENDBRANCH   5   6
ENDBRANCH   1   5
TORSDOF 3
ENDMDL
MODEL 2
REMARK VINA RESULT:      -7.3      1.806      2.229
REMARK SMILES CC(=O)CCc1ccc2c(c1)OCO2
REMARK SMILES IDX 4 1 2 2 1 3 3 4 5 5 6 6 7 7 11 8 8 9 10 10 9 11 12 12 14 13
REMARK SMILES IDX 13 14
REMARK H PARENT
REMARK Flexibility Score: inf
ROOT
ATOM      1  C   UNL     1       5.665   1.362  -0.227  1.00  0.00     0.080 C 
ENDROOT
BRANCH   1   2
ATOM      2  C   UNL     1       5.075   1.229   1.120  1.00  0.00     0.130 C 
ATOM      3  C   UNL     1       5.420   0.055   1.945  1.00  0.00     0.087 C 
ATOM      4  O   UNL     1       4.322   2.084   1.518  1.00  0.00    -0.300 OA
ENDBRANCH   1   2
BRANCH   1   5
ATOM      5  C   UNL     1       7.172   1.211  -0.183  1.00  0.00     0.043 C 
BRANCH   5   6
ATOM      6  C   UNL     1       7.581  -0.052  -0.804  1.00  0.00    -0.044 A 
ATOM      7  C   UNL     1       7.578  -0.187  -2.176  1.00  0.00     0.008 A 
ATOM      8  C   UNL     1       7.980  -1.142  -0.050  1.00  0.00     0.054 A 
ATOM      9  C   UNL     1       7.959  -1.370  -2.805  1.00  0.00     0.051 A 
ATOM     10  C   UNL     1       8.366  -2.338  -0.651  1.00  0.00     0.166 A 
ATOM     11  C   UNL     1       8.352  -2.442  -2.026  1.00  0.00     0.165 A 
ATOM     12  O   UNL     1       8.804  -3.571  -0.166  1.00  0.00    -0.454 OA
ATOM     13  O   UNL     1       8.776  -3.720  -2.358  1.00  0.00    -0.454 OA
ATOM     14  C   UNL     1       8.807  -4.534  -1.188  1.00  0.00     0.468 C 
ENDBRANCH   5   6
ENDBRANCH   1   5
TORSDOF 3
ENDMDL
MODEL 3
REMARK VINA RESULT:      -7.2      2.088      2.652
REMARK SMILES CC(=O)CCc1ccc2c(c1)OCO2
REMARK SMILES IDX 4 1 2 2 1 3 3 4 5 5 6 6 7 7 11 8 8 9 10 10 9 11 12 12 14 13
REMARK SMILES IDX 13 14
REMARK H PARENT
REMARK Flexibility Score: inf
ROOT
ATOM      1  C   UNL     1       5.349  -0.083   1.899  1.00  0.00     0.080 C 
ENDROOT
BRANCH   1   2
ATOM      2  C   UNL     1       4.603   1.174   1.690  1.00  0.00     0.130 C 
ATOM      3  C   UNL     1       5.084   2.138   0.680  1.00  0.00     0.087 C 
ATOM      4  O   UNL     1       3.616   1.388   2.350  1.00  0.00    -0.300 OA
ENDBRANCH   1   2
BRANCH   1   5
ATOM      5  C   UNL     1       6.832   0.112   1.660  1.00  0.00     0.043 C 
BRANCH   5   6
ATOM      6  C   UNL     1       7.318  -0.824   0.643  1.00  0.00    -0.044 A 
ATOM      7  C   UNL     1       7.232  -0.504  -0.697  1.00  0.00     0.008 A 
ATOM      8  C   UNL     1       7.871  -2.048   0.978  1.00  0.00     0.054 A 
ATOM      9  C   UNL     1       7.681  -1.366  -1.694  1.00  0.00     0.051 A 
ATOM     10  C   UNL     1       8.329  -2.930   0.003  1.00  0.00     0.166 A 
ATOM     11  C   UNL     1       8.230  -2.581  -1.328  1.00  0.00     0.165 A 
ATOM     12  O   UNL     1       8.917  -4.195   0.036  1.00  0.00    -0.454 OA
ATOM     13  O   UNL     1       8.752  -3.624  -2.079  1.00  0.00    -0.454 OA
ATOM     14  C   UNL     1       8.942  -4.765  -1.247  1.00  0.00     0.468 C 
ENDBRANCH   5   6
ENDBRANCH   1   5
TORSDOF 3
ENDMDL
MODEL 4
REMARK VINA RESULT:      -7.1      1.318      1.536
REMARK SMILES CC(=O)CCc1ccc2c(c1)OCO2
REMARK SMILES IDX 4 1 2 2 1 3 3 4 5 5 6 6 7 7 11 8 8 9 10 10 9 11 12 12 14 13
REMARK SMILES IDX 13 14
REMARK H PARENT
REMARK Flexibility Score: inf
ROOT
ATOM      1  C   UNL     1       6.354   1.197   0.984  1.00  0.00     0.080 C 
ENDROOT
BRANCH   1   2
ATOM      2  C   UNL     1       5.617   0.394   1.980  1.00  0.00     0.130 C 
ATOM      3  C   UNL     1       6.251  -0.816   2.542  1.00  0.00     0.087 C 
ATOM      4  O   UNL     1       4.512   0.742   2.314  1.00  0.00    -0.300 OA
ENDBRANCH   1   2
BRANCH   1   5
ATOM      5  C   UNL     1       5.854   0.925  -0.420  1.00  0.00     0.043 C 
BRANCH   5   6
ATOM      6  C   UNL     1       6.765   0.019  -1.125  1.00  0.00    -0.044 A 
ATOM      7  C   UNL     1       7.324   0.392  -2.330  1.00  0.00     0.008 A 
ATOM      8  C   UNL     1       7.095  -1.226  -0.620  1.00  0.00     0.054 A 
ATOM      9  C   UNL     1       8.193  -0.440  -3.031  1.00  0.00     0.051 A 
ATOM     10  C   UNL     1       7.962  -2.080  -1.299  1.00  0.00     0.166 A 
ATOM     11  C   UNL     1       8.505  -1.678  -2.501  1.00  0.00     0.165 A 
ATOM     12  O   UNL     1       8.465  -3.355  -1.045  1.00  0.00    -0.454 OA
ATOM     13  O   UNL     1       9.321  -2.701  -2.959  1.00  0.00    -0.454 OA
ATOM     14  C   UNL     1       9.096  -3.877  -2.186  1.00  0.00     0.468 C 
ENDBRANCH   5   6
ENDBRANCH   1   5
TORSDOF 3
ENDMDL
MODEL 5
REMARK VINA RESULT:      -7.0      1.910      2.466
REMARK SMILES CC(=O)CCc1ccc2c(c1)OCO2
REMARK SMILES IDX 4 1 2 2 1 3 3 4 5 5 6 6 7 7 11 8 8 9 10 10 9 11 12 12 14 13
REMARK SMILES IDX 13 14
REMARK H PARENT
REMARK Flexibility Score: inf
ROOT
ATOM      1  C   UNL     1       6.857   1.005   1.101  1.00  0.00     0.080 C 
ENDROOT
BRANCH   1   2
ATOM      2  C   UNL     1       5.428   1.198   1.419  1.00  0.00     0.130 C 
ATOM      3  C   UNL     1       4.634   2.150   0.616  1.00  0.00     0.087 C 
ATOM      4  O   UNL     1       4.938   0.575   2.328  1.00  0.00    -0.300 OA
ENDBRANCH   1   2
BRANCH   1   5
ATOM      5  C   UNL     1       7.103   1.084  -0.391  1.00  0.00     0.043 C 
BRANCH   5   6
ATOM      6  C   UNL     1       7.561  -0.209  -0.907  1.00  0.00    -0.044 A 
ATOM      7  C   UNL     1       7.680  -0.414  -2.266  1.00  0.00     0.008 A 
ATOM      8  C   UNL     1       7.886  -1.259  -0.067  1.00  0.00     0.054 A 
ATOM      9  C   UNL     1       8.111  -1.628  -2.796  1.00  0.00     0.051 A 
ATOM     10  C   UNL     1       8.320  -2.484  -0.568  1.00  0.00     0.166 A 
ATOM     11  C   UNL     1       8.428  -2.658  -1.932  1.00  0.00     0.165 A 
ATOM     12  O   UNL     1       8.707  -3.690   0.016  1.00  0.00    -0.454 OA
ATOM     13  O   UNL     1       8.875  -3.952  -2.158  1.00  0.00    -0.454 OA
ATOM     14  C   UNL     1       8.797  -4.704  -0.951  1.00  0.00     0.468 C 
ENDBRANCH   5   6
ENDBRANCH   1   5
TORSDOF 3
ENDMDL
