@<TRIPOS>MOLECULE
/home/cewinharhar/GITHUB/reincatalyze/data/processed/docking_pred/2023-May-31-1603_sub9_nm5_bs15_s42_ex16_mel10_mts1000_k50_ec05_g099_lra3e-4_lrc9e-3/87c24324279ed01ab1d4888e5c128f335f215516_ligand_9.pdbqt
 14 15 0 0 0
SMALL
GASTEIGER

@<TRIPOS>ATOM
      1  C          6.5470    1.3330    0.4010 C.3     1  UNL1        0.0800
      2  C          5.4230    1.1740    1.3450 C.2     1  UNL1        0.1300
      3  C          5.3390   -0.0510    2.1660 C.3     1  UNL1        0.0870
      4  O          4.5960    2.0490    1.4270 O.2     1  UNL1       -0.3000
      5  C          6.1640    0.8740   -0.9910 C.3     1  UNL1        0.0430
      6  C          6.9610   -0.2910   -1.3860 C.2     1  UNL1       -0.0440
      7  C          7.4090   -0.4200   -2.6840 C.2     1  UNL1        0.0080
      8  C          7.2890   -1.2920   -0.4890 C.2     1  UNL1        0.0540
      9  C          8.1670   -1.5120   -3.1000 C.2     1  UNL1        0.0510
     10  C          8.0460   -2.3960   -0.8750 C.2     1  UNL1        0.1660
     11  C          8.4790   -2.4960   -2.1810 C.2     1  UNL1        0.1650
     12  O          8.5190   -3.5280   -0.2140 O.2     1  UNL1       -0.4540
     13  O          9.2020   -3.6740   -2.2970 O.2     1  UNL1       -0.4540
     14  C          9.0080   -4.4720   -1.1320 C.3     1  UNL1        0.4680
@<TRIPOS>BOND
     1     9     7    1
     2     9    11    2
     3     7     6    2
     4    13    11    1
     5    13    14    1
     6    11    10    1
     7     6     5    1
     8     6     8    1
     9    14    12    1
    10     5     1    1
    11    10     8    2
    12    10    12    1
    13     1     2    1
    14     2     4    2
    15     2     3    1
