@<TRIPOS>MOLECULE
/home/cewinharhar/GITHUB/reincatalyze/data/processed/docking_pred/2023-May-31-1603_sub9_nm5_bs15_s42_ex16_mel10_mts1000_k50_ec05_g099_lra3e-4_lrc9e-3/87c24324279ed01ab1d4888e5c128f335f215516_ligand_9.pdbqt
 14 15 0 0 0
SMALL
GASTEIGER

@<TRIPOS>ATOM
      1  C          5.6250    1.8120    1.3430 C.3     1  UNL1        0.0800
      2  C          5.1260    0.6250    2.0670 C.2     1  UNL1        0.1300
      3  C          6.0280   -0.5270    2.2700 C.3     1  UNL1        0.0870
      4  O          3.9920    0.6220    2.4780 O.2     1  UNL1       -0.3000
      5  C          5.4360    1.6620   -0.1520 C.3     1  UNL1        0.0430
      6  C          6.5660    0.9400   -0.7450 C.2     1  UNL1       -0.0440
      7  C          7.8540    1.4100   -0.5850 C.2     1  UNL1        0.0080
      8  C          6.3910   -0.2210   -1.4760 C.2     1  UNL1        0.0540
      9  C          8.9540    0.7550   -1.1320 C.2     1  UNL1        0.0510
     10  C          7.4730   -0.8980   -2.0350 C.2     1  UNL1        0.1660
     11  C          8.7470   -0.4030   -1.8570 C.2     1  UNL1        0.1650
     12  O          7.6020   -2.0580   -2.7990 O.2     1  UNL1       -0.4540
     13  O          9.6270   -1.2560   -2.5080 O.2     1  UNL1       -0.4540
     14  C          8.8960   -2.1570   -3.3360 C.3     1  UNL1        0.4680
@<TRIPOS>BOND
     1    14    12    1
     2    14    13    1
     3    12    10    1
     4    13    11    1
     5    10    11    2
     6    10     8    1
     7    11     9    1
     8     8     6    2
     9     9     7    2
    10     6     7    1
    11     6     5    1
    12     5     1    1
    13     1     2    1
    14     2     3    1
    15     2     4    2
