@<TRIPOS>MOLECULE
/home/cewinharhar/GITHUB/reincatalyze/data/processed/docking_pred/2023-May-31-1603_sub9_nm5_bs15_s42_ex16_mel10_mts1000_k50_ec05_g099_lra3e-4_lrc9e-3/87c24324279ed01ab1d4888e5c128f335f215516_ligand_9.pdbqt
 14 15 0 0 0
SMALL
GASTEIGER

@<TRIPOS>ATOM
      1  C          8.2880    0.1890   -2.5680 C.3     1  UNL1        0.0800
      2  C          7.9880   -1.2490   -2.7200 C.2     1  UNL1        0.1300
      3  C          9.0910   -2.1910   -2.9950 C.3     1  UNL1        0.0870
      4  O          6.8460   -1.6250   -2.6160 O.2     1  UNL1       -0.3000
      5  C          8.8340    0.4930   -1.1890 C.3     1  UNL1        0.0430
      6  C          7.7690    0.4140   -0.1850 C.2     1  UNL1       -0.0440
      7  C          7.7570   -0.6100    0.7390 C.2     1  UNL1        0.0080
      8  C          6.7490    1.3480   -0.1240 C.2     1  UNL1        0.0540
      9  C          6.7640   -0.7210    1.7080 C.2     1  UNL1        0.0510
     10  C          5.7420    1.2630    0.8340 C.2     1  UNL1        0.1660
     11  C          5.7580    0.2260    1.7440 C.2     1  UNL1        0.1650
     12  O          4.6180    2.0330    1.1320 O.2     1  UNL1       -0.4540
     13  O          4.6560    0.3760    2.5740 O.2     1  UNL1       -0.4540
     14  C          3.7770    1.3570    2.0320 C.3     1  UNL1        0.4680
@<TRIPOS>BOND
     1     3     2    1
     2     2     4    2
     3     2     1    1
     4     1     5    1
     5     5     6    1
     6     6     8    2
     7     6     7    1
     8     8    10    1
     9     7     9    2
    10    10    12    1
    11    10    11    2
    12    12    14    1
    13     9    11    1
    14    11    13    1
    15    14    13    1
