@<TRIPOS>MOLECULE
/home/cewinharhar/GITHUB/reincatalyze/data/processed/docking_pred/2023-May-31-1603_sub9_nm5_bs15_s42_ex16_mel10_mts1000_k50_ec05_g099_lra3e-4_lrc9e-3/87c24324279ed01ab1d4888e5c128f335f215516_ligand_9.pdbqt
 14 15 0 0 0
SMALL
GASTEIGER

@<TRIPOS>ATOM
      1  C          6.7680    0.7070    1.0240 C.3     1  UNL1        0.0800
      2  C          5.3960    1.1330    1.3670 C.2     1  UNL1        0.1300
      3  C          4.7230    2.1420    0.5250 C.3     1  UNL1        0.0870
      4  O          4.8530    0.6470    2.3280 O.2     1  UNL1       -0.3000
      5  C          7.0140    0.7970   -0.4680 C.3     1  UNL1        0.0430
      6  C          7.5610   -0.4640   -0.9770 C.2     1  UNL1       -0.0440
      7  C          7.8240   -0.6160   -2.3230 C.2     1  UNL1        0.0080
      8  C          7.8300   -1.5350   -0.1440 C.2     1  UNL1        0.0540
      9  C          8.3430   -1.7970   -2.8460 C.2     1  UNL1        0.0510
     10  C          8.3490   -2.7290   -0.6380 C.2     1  UNL1        0.1660
     11  C          8.6020   -2.8490   -1.9890 C.2     1  UNL1        0.1650
     12  O          8.7110   -3.9440   -0.0580 O.2     1  UNL1       -0.4540
     13  O          9.1080   -4.1220   -2.2120 O.2     1  UNL1       -0.4540
     14  C          8.9300   -4.9200   -1.0450 C.3     1  UNL1        0.4680
@<TRIPOS>BOND
     1     9     7    1
     2     9    11    2
     3     7     6    2
     4    13    11    1
     5    13    14    1
     6    11    10    1
     7    14    12    1
     8     6     5    1
     9     6     8    1
    10    10     8    2
    11    10    12    1
    12     5     1    1
    13     3     2    1
    14     1     2    1
    15     2     4    2
