@<TRIPOS>MOLECULE
/home/cewinharhar/GITHUB/reincatalyze/data/processed/docking_pred/2023-May-31-1603_sub9_nm5_bs15_s42_ex16_mel10_mts1000_k50_ec05_g099_lra3e-4_lrc9e-3/88c4e0f8a026884e113c16f062f94e0c253125d7_ligand_9.pdbqt
 14 15 0 0 0
SMALL
GASTEIGER

@<TRIPOS>ATOM
      1  C          5.6900    1.2040   -0.2540 C.3     1  UNL1        0.0800
      2  C          5.1030    1.2080    1.1000 C.2     1  UNL1        0.1300
      3  C          5.3480    0.0600    1.9960 C.3     1  UNL1        0.0870
      4  O          4.4340    2.1500    1.4480 O.2     1  UNL1       -0.3000
      5  C          7.1980    1.0790   -0.1990 C.3     1  UNL1        0.0430
      6  C          7.6290   -0.2050   -0.7600 C.2     1  UNL1       -0.0440
      7  C          7.7240   -0.3710   -2.1260 C.2     1  UNL1        0.0080
      8  C          7.9530   -1.2840    0.0440 C.2     1  UNL1        0.0540
      9  C          8.1290   -1.5740   -2.6980 C.2     1  UNL1        0.0510
     10  C          8.3610   -2.4990   -0.5000 C.2     1  UNL1        0.1660
     11  C          8.4460   -2.6340   -1.8700 C.2     1  UNL1        0.1650
     12  O          8.7400   -3.7270    0.0420 O.2     1  UNL1       -0.4540
     13  O          8.8700   -3.9270   -2.1410 O.2     1  UNL1       -0.4540
     14  C          8.8000   -4.7140   -0.9550 C.3     1  UNL1        0.4680
@<TRIPOS>BOND
     1     9     7    1
     2     9    11    2
     3    13    11    1
     4    13    14    1
     5     7     6    2
     6    11    10    1
     7    14    12    1
     8     6     5    1
     9     6     8    1
    10    10    12    1
    11    10     8    2
    12     1     5    1
    13     1     2    1
    14     2     4    2
    15     2     3    1
