@<TRIPOS>MOLECULE
/home/cewinharhar/GITHUB/reincatalyze/data/processed/docking_pred/2023-May-31-1603_sub9_nm5_bs15_s42_ex16_mel10_mts1000_k50_ec05_g099_lra3e-4_lrc9e-3/895ea28dab147140afd805a2e235fc395d2e1c3a_ligand_9.pdbqt
 14 15 0 0 0
SMALL
GASTEIGER

@<TRIPOS>ATOM
      1  C          5.7010    1.2660   -0.2680 C.3     1  UNL1        0.0800
      2  C          5.1090    1.2410    1.0840 C.2     1  UNL1        0.1300
      3  C          5.4180    0.1130    1.9860 C.3     1  UNL1        0.0870
      4  O          4.3840    2.1430    1.4250 O.2     1  UNL1       -0.3000
      5  C          7.2090    1.1350   -0.2100 C.3     1  UNL1        0.0430
      6  C          7.6350   -0.1520   -0.7690 C.2     1  UNL1       -0.0440
      7  C          7.7290   -0.3210   -2.1340 C.2     1  UNL1        0.0080
      8  C          7.9560   -1.2300    0.0370 C.2     1  UNL1        0.0540
      9  C          8.1290   -1.5270   -2.7050 C.2     1  UNL1        0.0510
     10  C          8.3590   -2.4480   -0.5040 C.2     1  UNL1        0.1660
     11  C          8.4430   -2.5860   -1.8740 C.2     1  UNL1        0.1650
     12  O          8.7350   -3.6760    0.0400 O.2     1  UNL1       -0.4540
     13  O          8.8630   -3.8810   -2.1440 O.2     1  UNL1       -0.4540
     14  C          8.7920   -4.6650   -0.9560 C.3     1  UNL1        0.4680
@<TRIPOS>BOND
     1     9     7    1
     2     9    11    2
     3    13    11    1
     4    13    14    1
     5     7     6    2
     6    11    10    1
     7    14    12    1
     8     6     5    1
     9     6     8    1
    10    10     8    2
    11    10    12    1
    12     1     5    1
    13     1     2    1
    14     2     4    2
    15     2     3    1
