MODEL 1
REMARK VINA RESULT:      -7.6      0.000      0.000
REMARK SMILES CC(=O)CCc1ccc2c(c1)OCO2
REMARK SMILES IDX 4 1 2 2 1 3 3 4 5 5 6 6 7 7 11 8 8 9 10 10 9 11 12 12 14 13
REMARK SMILES IDX 13 14
REMARK H PARENT
REMARK Flexibility Score: inf
ROOT
ATOM      1  C   UNL     1       5.593   1.858   1.309  1.00  0.00     0.080 C 
ENDROOT
BRANCH   1   2
ATOM      2  C   UNL     1       5.127   0.666   2.044  1.00  0.00     0.130 C 
ATOM      3  C   UNL     1       6.044  -0.478   2.218  1.00  0.00     0.087 C 
ATOM      4  O   UNL     1       4.005   0.650   2.487  1.00  0.00    -0.300 OA
ENDBRANCH   1   2
BRANCH   1   5
ATOM      5  C   UNL     1       5.412   1.689  -0.185  1.00  0.00     0.043 C 
BRANCH   5   6
ATOM      6  C   UNL     1       6.546   0.961  -0.762  1.00  0.00    -0.044 A 
ATOM      7  C   UNL     1       7.835   1.411  -0.565  1.00  0.00     0.008 A 
ATOM      8  C   UNL     1       6.373  -0.187  -1.515  1.00  0.00     0.054 A 
ATOM      9  C   UNL     1       8.939   0.750  -1.096  1.00  0.00     0.051 A 
ATOM     10  C   UNL     1       7.458  -0.870  -2.059  1.00  0.00     0.166 A 
ATOM     11  C   UNL     1       8.735  -0.394  -1.844  1.00  0.00     0.165 A 
ATOM     12  O   UNL     1       7.590  -2.019  -2.838  1.00  0.00    -0.454 OA
ATOM     13  O   UNL     1       9.618  -1.250  -2.488  1.00  0.00    -0.454 OA
ATOM     14  C   UNL     1       8.895  -2.128  -3.346  1.00  0.00     0.468 C 
ENDBRANCH   5   6
ENDBRANCH   1   5
TORSDOF 3
ENDMDL
MODEL 2
REMARK VINA RESULT:      -7.4      1.934      2.345
REMARK SMILES CC(=O)CCc1ccc2c(c1)OCO2
REMARK SMILES IDX 4 1 2 2 1 3 3 4 5 5 6 6 7 7 11 8 8 9 10 10 9 11 12 12 14 13
REMARK SMILES IDX 13 14
REMARK H PARENT
REMARK Flexibility Score: inf
ROOT
ATOM      1  C   UNL     1       5.701   1.266  -0.268  1.00  0.00     0.080 C 
ENDROOT
BRANCH   1   2
ATOM      2  C   UNL     1       5.109   1.241   1.084  1.00  0.00     0.130 C 
ATOM      3  C   UNL     1       5.418   0.113   1.986  1.00  0.00     0.087 C 
ATOM      4  O   UNL     1       4.384   2.143   1.425  1.00  0.00    -0.300 OA
ENDBRANCH   1   2
BRANCH   1   5
ATOM      5  C   UNL     1       7.209   1.135  -0.210  1.00  0.00     0.043 C 
BRANCH   5   6
ATOM      6  C   UNL     1       7.635  -0.152  -0.769  1.00  0.00    -0.044 A 
ATOM      7  C   UNL     1       7.729  -0.321  -2.134  1.00  0.00     0.008 A 
ATOM      8  C   UNL     1       7.956  -1.230   0.037  1.00  0.00     0.054 A 
ATOM      9  C   UNL     1       8.129  -1.527  -2.705  1.00  0.00     0.051 A 
ATOM     10  C   UNL     1       8.359  -2.448  -0.504  1.00  0.00     0.166 A 
ATOM     11  C   UNL     1       8.443  -2.586  -1.874  1.00  0.00     0.165 A 
ATOM     12  O   UNL     1       8.735  -3.676   0.040  1.00  0.00    -0.454 OA
ATOM     13  O   UNL     1       8.863  -3.881  -2.144  1.00  0.00    -0.454 OA
ATOM     14  C   UNL     1       8.792  -4.665  -0.956  1.00  0.00     0.468 C 
ENDBRANCH   5   6
ENDBRANCH   1   5
TORSDOF 3
ENDMDL
MODEL 3
REMARK VINA RESULT:      -7.3      2.084      2.643
REMARK SMILES CC(=O)CCc1ccc2c(c1)OCO2
REMARK SMILES IDX 4 1 2 2 1 3 3 4 5 5 6 6 7 7 11 8 8 9 10 10 9 11 12 12 14 13
REMARK SMILES IDX 13 14
REMARK H PARENT
REMARK Flexibility Score: inf
ROOT
ATOM      1  C   UNL     1       5.418  -0.022   1.944  1.00  0.00     0.080 C 
ENDROOT
BRANCH   1   2
ATOM      2  C   UNL     1       4.580   1.173   1.723  1.00  0.00     0.130 C 
ATOM      3  C   UNL     1       4.957   2.133   0.666  1.00  0.00     0.087 C 
ATOM      4  O   UNL     1       3.603   1.342   2.411  1.00  0.00    -0.300 OA
ENDBRANCH   1   2
BRANCH   1   5
ATOM      5  C   UNL     1       6.859   0.240   1.558  1.00  0.00     0.043 C 
BRANCH   5   6
ATOM      6  C   UNL     1       7.312  -0.740   0.565  1.00  0.00    -0.044 A 
ATOM      7  C   UNL     1       7.134  -0.500  -0.781  1.00  0.00     0.008 A 
ATOM      8  C   UNL     1       7.925  -1.924   0.933  1.00  0.00     0.054 A 
ATOM      9  C   UNL     1       7.548  -1.405  -1.755  1.00  0.00     0.051 A 
ATOM     10  C   UNL     1       8.351  -2.848  -0.019  1.00  0.00     0.166 A 
ATOM     11  C   UNL     1       8.158  -2.579  -1.358  1.00  0.00     0.165 A 
ATOM     12  O   UNL     1       8.981  -4.091   0.048  1.00  0.00    -0.454 OA
ATOM     13  O   UNL     1       8.667  -3.649  -2.081  1.00  0.00    -0.454 OA
ATOM     14  C   UNL     1       8.945  -4.734  -1.200  1.00  0.00     0.468 C 
ENDBRANCH   5   6
ENDBRANCH   1   5
TORSDOF 3
ENDMDL
MODEL 4
REMARK VINA RESULT:      -7.1      1.288      1.488
REMARK SMILES CC(=O)CCc1ccc2c(c1)OCO2
REMARK SMILES IDX 4 1 2 2 1 3 3 4 5 5 6 6 7 7 11 8 8 9 10 10 9 11 12 12 14 13
REMARK SMILES IDX 13 14
REMARK H PARENT
REMARK Flexibility Score: inf
ROOT
ATOM      1  C   UNL     1       6.326   1.228   0.966  1.00  0.00     0.080 C 
ENDROOT
BRANCH   1   2
ATOM      2  C   UNL     1       5.618   0.400   1.964  1.00  0.00     0.130 C 
ATOM      3  C   UNL     1       6.301  -0.776   2.539  1.00  0.00     0.087 C 
ATOM      4  O   UNL     1       4.497   0.703   2.290  1.00  0.00    -0.300 OA
ENDBRANCH   1   2
BRANCH   1   5
ATOM      5  C   UNL     1       5.824   0.946  -0.435  1.00  0.00     0.043 C 
BRANCH   5   6
ATOM      6  C   UNL     1       6.752   0.063  -1.147  1.00  0.00    -0.044 A 
ATOM      7  C   UNL     1       7.342   0.476  -2.323  1.00  0.00     0.008 A 
ATOM      8  C   UNL     1       7.068  -1.199  -0.676  1.00  0.00     0.054 A 
ATOM      9  C   UNL     1       8.229  -0.333  -3.030  1.00  0.00     0.051 A 
ATOM     10  C   UNL     1       7.952  -2.031  -1.361  1.00  0.00     0.166 A 
ATOM     11  C   UNL     1       8.525  -1.589  -2.535  1.00  0.00     0.165 A 
ATOM     12  O   UNL     1       8.447  -3.315  -1.138  1.00  0.00    -0.454 OA
ATOM     13  O   UNL     1       9.353  -2.598  -3.007  1.00  0.00    -0.454 OA
ATOM     14  C   UNL     1       9.107  -3.798  -2.280  1.00  0.00     0.468 C 
ENDBRANCH   5   6
ENDBRANCH   1   5
TORSDOF 3
ENDMDL
MODEL 5
REMARK VINA RESULT:      -7.0      1.210      5.201
REMARK SMILES CC(=O)CCc1ccc2c(c1)OCO2
REMARK SMILES IDX 4 1 2 2 1 3 3 4 5 5 6 6 7 7 11 8 8 9 10 10 9 11 12 12 14 13
REMARK SMILES IDX 13 14
REMARK H PARENT
REMARK Flexibility Score: inf
ROOT
ATOM      1  C   UNL     1       8.259   0.200  -2.553  1.00  0.00     0.080 C 
ENDROOT
BRANCH   1   2
ATOM      2  C   UNL     1       7.964  -1.239  -2.707  1.00  0.00     0.130 C 
ATOM      3  C   UNL     1       9.065  -2.171  -3.023  1.00  0.00     0.087 C 
ATOM      4  O   UNL     1       6.828  -1.623  -2.572  1.00  0.00    -0.300 OA
ENDBRANCH   1   2
BRANCH   1   5
ATOM      5  C   UNL     1       8.810   0.503  -1.175  1.00  0.00     0.043 C 
BRANCH   5   6
ATOM      6  C   UNL     1       7.748   0.424  -0.168  1.00  0.00    -0.044 A 
ATOM      7  C   UNL     1       7.752  -0.585   0.772  1.00  0.00     0.008 A 
ATOM      8  C   UNL     1       6.715   1.344  -0.120  1.00  0.00     0.054 A 
ATOM      9  C   UNL     1       6.762  -0.696   1.745  1.00  0.00     0.051 A 
ATOM     10  C   UNL     1       5.710   1.259   0.842  1.00  0.00     0.166 A 
ATOM     11  C   UNL     1       5.743   0.238   1.768  1.00  0.00     0.165 A 
ATOM     12  O   UNL     1       4.576   2.018   1.130  1.00  0.00    -0.454 OA
ATOM     13  O   UNL     1       4.641   0.385   2.598  1.00  0.00    -0.454 OA
ATOM     14  C   UNL     1       3.747   1.345   2.042  1.00  0.00     0.468 C 
ENDBRANCH   5   6
ENDBRANCH   1   5
TORSDOF 3
ENDMDL
