@<TRIPOS>MOLECULE
/home/cewinharhar/GITHUB/reincatalyze/data/processed/docking_pred/2023-May-31-1603_sub9_nm5_bs15_s42_ex16_mel10_mts1000_k50_ec05_g099_lra3e-4_lrc9e-3/895ea28dab147140afd805a2e235fc395d2e1c3a_ligand_9.pdbqt
 14 15 0 0 0
SMALL
GASTEIGER

@<TRIPOS>ATOM
      1  C          5.4180   -0.0220    1.9440 C.3     1  UNL1        0.0800
      2  C          4.5800    1.1730    1.7230 C.2     1  UNL1        0.1300
      3  C          4.9570    2.1330    0.6660 C.3     1  UNL1        0.0870
      4  O          3.6030    1.3420    2.4110 O.2     1  UNL1       -0.3000
      5  C          6.8590    0.2400    1.5580 C.3     1  UNL1        0.0430
      6  C          7.3120   -0.7400    0.5650 C.2     1  UNL1       -0.0440
      7  C          7.1340   -0.5000   -0.7810 C.2     1  UNL1        0.0080
      8  C          7.9250   -1.9240    0.9330 C.2     1  UNL1        0.0540
      9  C          7.5480   -1.4050   -1.7550 C.2     1  UNL1        0.0510
     10  C          8.3510   -2.8480   -0.0190 C.2     1  UNL1        0.1660
     11  C          8.1580   -2.5790   -1.3580 C.2     1  UNL1        0.1650
     12  O          8.9810   -4.0910    0.0480 O.2     1  UNL1       -0.4540
     13  O          8.6670   -3.6490   -2.0810 O.2     1  UNL1       -0.4540
     14  C          8.9450   -4.7340   -1.2000 C.3     1  UNL1        0.4680
@<TRIPOS>BOND
     1    13    11    1
     2    13    14    1
     3     9    11    2
     4     9     7    1
     5    11    10    1
     6    14    12    1
     7     7     6    2
     8    10    12    1
     9    10     8    2
    10     6     8    1
    11     6     5    1
    12     3     2    1
    13     5     1    1
    14     2     1    1
    15     2     4    2
