@<TRIPOS>MOLECULE
/home/cewinharhar/GITHUB/reincatalyze/data/processed/docking_pred/2023-May-31-1603_sub9_nm5_bs15_s42_ex16_mel10_mts1000_k50_ec05_g099_lra3e-4_lrc9e-3/895ea28dab147140afd805a2e235fc395d2e1c3a_ligand_9.pdbqt
 14 15 0 0 0
SMALL
GASTEIGER

@<TRIPOS>ATOM
      1  C          8.2590    0.2000   -2.5530 C.3     1  UNL1        0.0800
      2  C          7.9640   -1.2390   -2.7070 C.2     1  UNL1        0.1300
      3  C          9.0650   -2.1710   -3.0230 C.3     1  UNL1        0.0870
      4  O          6.8280   -1.6230   -2.5720 O.2     1  UNL1       -0.3000
      5  C          8.8100    0.5030   -1.1750 C.3     1  UNL1        0.0430
      6  C          7.7480    0.4240   -0.1680 C.2     1  UNL1       -0.0440
      7  C          7.7520   -0.5850    0.7720 C.2     1  UNL1        0.0080
      8  C          6.7150    1.3440   -0.1200 C.2     1  UNL1        0.0540
      9  C          6.7620   -0.6960    1.7450 C.2     1  UNL1        0.0510
     10  C          5.7100    1.2590    0.8420 C.2     1  UNL1        0.1660
     11  C          5.7430    0.2380    1.7680 C.2     1  UNL1        0.1650
     12  O          4.5760    2.0180    1.1300 O.2     1  UNL1       -0.4540
     13  O          4.6410    0.3850    2.5980 O.2     1  UNL1       -0.4540
     14  C          3.7470    1.3450    2.0420 C.3     1  UNL1        0.4680
@<TRIPOS>BOND
     1     3     2    1
     2     2     4    2
     3     2     1    1
     4     1     5    1
     5     5     6    1
     6     6     8    2
     7     6     7    1
     8     8    10    1
     9     7     9    2
    10    10    12    1
    11    10    11    2
    12    12    14    1
    13     9    11    1
    14    11    13    1
    15    14    13    1
