@<TRIPOS>MOLECULE
/home/cewinharhar/GITHUB/reincatalyze/data/processed/docking_pred/2023-May-31-1603_sub9_nm5_bs15_s42_ex16_mel10_mts1000_k50_ec05_g099_lra3e-4_lrc9e-3/8a11bcf53d23875e79cb17a52aa7b3de0dc85e7d_ligand_9.pdbqt
 14 15 0 0 0
SMALL
GASTEIGER

@<TRIPOS>ATOM
      1  C          6.7320    0.5800    0.9190 C.3     1  UNL1        0.0800
      2  C          5.4080    1.0210    1.4040 C.2     1  UNL1        0.1300
      3  C          4.7330    2.1480    0.7310 C.3     1  UNL1        0.0870
      4  O          4.9060    0.4500    2.3400 O.2     1  UNL1       -0.3000
      5  C          6.8090    0.6370   -0.5920 C.3     1  UNL1        0.0430
      6  C          7.4680   -0.5620   -1.1190 C.2     1  UNL1       -0.0440
      7  C          7.8330   -0.6300   -2.4480 C.2     1  UNL1        0.0080
      8  C          7.7450   -1.6570   -0.3190 C.2     1  UNL1        0.0540
      9  C          8.4590   -1.7500   -2.9870 C.2     1  UNL1        0.0510
     10  C          8.3700   -2.7920   -0.8310 C.2     1  UNL1        0.1660
     11  C          8.7230   -2.8280   -2.1640 C.2     1  UNL1        0.1650
     12  O          8.7660   -4.0120   -0.2840 O.2     1  UNL1       -0.4540
     13  O          9.3210   -4.0560   -2.4090 O.2     1  UNL1       -0.4540
     14  C          9.1130   -4.9210   -1.2960 C.3     1  UNL1        0.4680
@<TRIPOS>BOND
     1     9     7    1
     2     9    11    2
     3     7     6    2
     4    13    11    1
     5    13    14    1
     6    11    10    1
     7    14    12    1
     8     6     5    1
     9     6     8    1
    10    10     8    2
    11    10    12    1
    12     5     1    1
    13     3     2    1
    14     1     2    1
    15     2     4    2
