@<TRIPOS>MOLECULE
/home/cewinharhar/GITHUB/reincatalyze/data/processed/docking_pred/2023-May-31-1603_sub9_nm5_bs15_s42_ex16_mel10_mts1000_k50_ec05_g099_lra3e-4_lrc9e-3/8a11bcf53d23875e79cb17a52aa7b3de0dc85e7d_ligand_9.pdbqt
 14 15 0 0 0
SMALL
GASTEIGER

@<TRIPOS>ATOM
      1  C          5.3610   -0.0410    1.9690 C.3     1  UNL1        0.0800
      2  C          4.5360    1.1660    1.7620 C.2     1  UNL1        0.1300
      3  C          4.9200    2.1290    0.7100 C.3     1  UNL1        0.0870
      4  O          3.5650    1.3400    2.4550 O.2     1  UNL1       -0.3000
      5  C          6.8110    0.2170    1.6120 C.3     1  UNL1        0.0430
      6  C          7.2740   -0.7480    0.6100 C.2     1  UNL1       -0.0440
      7  C          7.1000   -0.4930   -0.7340 C.2     1  UNL1        0.0080
      8  C          7.8920   -1.9330    0.9660 C.2     1  UNL1        0.0540
      9  C          7.5240   -1.3830   -1.7170 C.2     1  UNL1        0.0510
     10  C          8.3280   -2.8430    0.0050 C.2     1  UNL1        0.1660
     11  C          8.1390   -2.5590   -1.3310 C.2     1  UNL1        0.1650
     12  O          8.9650   -4.0820    0.0600 O.2     1  UNL1       -0.4540
     13  O          8.6580   -3.6170   -2.0650 O.2     1  UNL1       -0.4540
     14  C          8.9390   -4.7100   -1.1960 C.3     1  UNL1        0.4680
@<TRIPOS>BOND
     1    13    11    1
     2    13    14    1
     3     9    11    2
     4     9     7    1
     5    11    10    1
     6    14    12    1
     7     7     6    2
     8    10    12    1
     9    10     8    2
    10     6     8    1
    11     6     5    1
    12     3     2    1
    13     5     1    1
    14     2     1    1
    15     2     4    2
