MODEL 1
REMARK VINA RESULT:      -7.5      0.000      0.000
REMARK SMILES CC(=O)CCc1ccc2c(c1)OCO2
REMARK SMILES IDX 4 1 2 2 1 3 3 4 5 5 6 6 7 7 11 8 8 9 10 10 9 11 12 12 14 13
REMARK SMILES IDX 13 14
REMARK H PARENT
REMARK Flexibility Score: inf
ROOT
ATOM      1  C   UNL     1       5.603   1.820   1.336  1.00  0.00     0.080 C 
ENDROOT
BRANCH   1   2
ATOM      2  C   UNL     1       5.116   0.631   2.064  1.00  0.00     0.130 C 
ATOM      3  C   UNL     1       6.019  -0.522   2.247  1.00  0.00     0.087 C 
ATOM      4  O   UNL     1       3.989   0.627   2.495  1.00  0.00    -0.300 OA
ENDBRANCH   1   2
BRANCH   1   5
ATOM      5  C   UNL     1       5.418   1.662  -0.159  1.00  0.00     0.043 C 
BRANCH   5   6
ATOM      6  C   UNL     1       6.552   0.942  -0.745  1.00  0.00    -0.044 A 
ATOM      7  C   UNL     1       7.839   1.406  -0.566  1.00  0.00     0.008 A 
ATOM      8  C   UNL     1       6.382  -0.211  -1.491  1.00  0.00     0.054 A 
ATOM      9  C   UNL     1       8.943   0.753  -1.107  1.00  0.00     0.051 A 
ATOM     10  C   UNL     1       7.468  -0.886  -2.044  1.00  0.00     0.166 A 
ATOM     11  C   UNL     1       8.742  -0.397  -1.846  1.00  0.00     0.165 A 
ATOM     12  O   UNL     1       7.602  -2.038  -2.818  1.00  0.00    -0.454 OA
ATOM     13  O   UNL     1       9.626  -1.247  -2.495  1.00  0.00    -0.454 OA
ATOM     14  C   UNL     1       8.902  -2.137  -3.340  1.00  0.00     0.468 C 
ENDBRANCH   5   6
ENDBRANCH   1   5
TORSDOF 3
ENDMDL
MODEL 2
REMARK VINA RESULT:      -7.4      1.862      2.309
REMARK SMILES CC(=O)CCc1ccc2c(c1)OCO2
REMARK SMILES IDX 4 1 2 2 1 3 3 4 5 5 6 6 7 7 11 8 8 9 10 10 9 11 12 12 14 13
REMARK SMILES IDX 13 14
REMARK H PARENT
REMARK Flexibility Score: inf
ROOT
ATOM      1  C   UNL     1       5.622   1.180  -0.283  1.00  0.00     0.080 C 
ENDROOT
BRANCH   1   2
ATOM      2  C   UNL     1       5.111   1.200   1.102  1.00  0.00     0.130 C 
ATOM      3  C   UNL     1       5.399   0.057   1.993  1.00  0.00     0.087 C 
ATOM      4  O   UNL     1       4.468   2.149   1.478  1.00  0.00    -0.300 OA
ENDBRANCH   1   2
BRANCH   1   5
ATOM      5  C   UNL     1       7.135   1.110  -0.309  1.00  0.00     0.043 C 
BRANCH   5   6
ATOM      6  C   UNL     1       7.581  -0.164  -0.880  1.00  0.00    -0.044 A 
ATOM      7  C   UNL     1       7.652  -0.328  -2.248  1.00  0.00     0.008 A 
ATOM      8  C   UNL     1       7.943  -1.237  -0.084  1.00  0.00     0.054 A 
ATOM      9  C   UNL     1       8.070  -1.521  -2.830  1.00  0.00     0.051 A 
ATOM     10  C   UNL     1       8.365  -2.443  -0.638  1.00  0.00     0.166 A 
ATOM     11  C   UNL     1       8.425  -2.575  -2.009  1.00  0.00     0.165 A 
ATOM     12  O   UNL     1       8.781  -3.664  -0.105  1.00  0.00    -0.454 OA
ATOM     13  O   UNL     1       8.871  -3.859  -2.291  1.00  0.00    -0.454 OA
ATOM     14  C   UNL     1       8.841  -4.648  -1.105  1.00  0.00     0.468 C 
ENDBRANCH   5   6
ENDBRANCH   1   5
TORSDOF 3
ENDMDL
MODEL 3
REMARK VINA RESULT:      -7.3      2.063      2.635
REMARK SMILES CC(=O)CCc1ccc2c(c1)OCO2
REMARK SMILES IDX 4 1 2 2 1 3 3 4 5 5 6 6 7 7 11 8 8 9 10 10 9 11 12 12 14 13
REMARK SMILES IDX 13 14
REMARK H PARENT
REMARK Flexibility Score: inf
ROOT
ATOM      1  C   UNL     1       5.369  -0.074   1.948  1.00  0.00     0.080 C 
ENDROOT
BRANCH   1   2
ATOM      2  C   UNL     1       4.544   1.133   1.744  1.00  0.00     0.130 C 
ATOM      3  C   UNL     1       4.921   2.094   0.688  1.00  0.00     0.087 C 
ATOM      4  O   UNL     1       3.578   1.310   2.444  1.00  0.00    -0.300 OA
ENDBRANCH   1   2
BRANCH   1   5
ATOM      5  C   UNL     1       6.817   0.184   1.586  1.00  0.00     0.043 C 
BRANCH   5   6
ATOM      6  C   UNL     1       7.275  -0.778   0.578  1.00  0.00    -0.044 A 
ATOM      7  C   UNL     1       7.080  -0.527  -0.764  1.00  0.00     0.008 A 
ATOM      8  C   UNL     1       7.909  -1.958   0.927  1.00  0.00     0.054 A 
ATOM      9  C   UNL     1       7.498  -1.415  -1.751  1.00  0.00     0.051 A 
ATOM     10  C   UNL     1       8.339  -2.865  -0.038  1.00  0.00     0.166 A 
ATOM     11  C   UNL     1       8.129  -2.585  -1.372  1.00  0.00     0.165 A 
ATOM     12  O   UNL     1       8.988  -4.098   0.009  1.00  0.00    -0.454 OA
ATOM     13  O   UNL     1       8.647  -3.639  -2.112  1.00  0.00    -0.454 OA
ATOM     14  C   UNL     1       8.950  -4.729  -1.245  1.00  0.00     0.468 C 
ENDBRANCH   5   6
ENDBRANCH   1   5
TORSDOF 3
ENDMDL
MODEL 4
REMARK VINA RESULT:      -7.1      1.207      1.361
REMARK SMILES CC(=O)CCc1ccc2c(c1)OCO2
REMARK SMILES IDX 4 1 2 2 1 3 3 4 5 5 6 6 7 7 11 8 8 9 10 10 9 11 12 12 14 13
REMARK SMILES IDX 13 14
REMARK H PARENT
REMARK Flexibility Score: inf
ROOT
ATOM      1  C   UNL     1       6.243   1.343   0.921  1.00  0.00     0.080 C 
ENDROOT
BRANCH   1   2
ATOM      2  C   UNL     1       5.581   0.508   1.943  1.00  0.00     0.130 C 
ATOM      3  C   UNL     1       6.302  -0.654   2.502  1.00  0.00     0.087 C 
ATOM      4  O   UNL     1       4.465   0.791   2.301  1.00  0.00    -0.300 OA
ENDBRANCH   1   2
BRANCH   1   5
ATOM      5  C   UNL     1       5.740   1.011  -0.468  1.00  0.00     0.043 C 
BRANCH   5   6
ATOM      6  C   UNL     1       6.700   0.155  -1.172  1.00  0.00    -0.044 A 
ATOM      7  C   UNL     1       7.374   0.629  -2.279  1.00  0.00     0.008 A 
ATOM      8  C   UNL     1       6.963  -1.140  -0.764  1.00  0.00     0.054 A 
ATOM      9  C   UNL     1       8.292  -0.152  -2.976  1.00  0.00     0.051 A 
ATOM     10  C   UNL     1       7.876  -1.945  -1.441  1.00  0.00     0.166 A 
ATOM     11  C   UNL     1       8.535  -1.443  -2.544  1.00  0.00     0.165 A 
ATOM     12  O   UNL     1       8.335  -3.251  -1.268  1.00  0.00    -0.454 OA
ATOM     13  O   UNL     1       9.375  -2.437  -3.023  1.00  0.00    -0.454 OA
ATOM     14  C   UNL     1       9.061  -3.675  -2.392  1.00  0.00     0.468 C 
ENDBRANCH   5   6
ENDBRANCH   1   5
TORSDOF 3
ENDMDL
MODEL 5
REMARK VINA RESULT:      -7.0      1.984      2.516
REMARK SMILES CC(=O)CCc1ccc2c(c1)OCO2
REMARK SMILES IDX 4 1 2 2 1 3 3 4 5 5 6 6 7 7 11 8 8 9 10 10 9 11 12 12 14 13
REMARK SMILES IDX 13 14
REMARK H PARENT
REMARK Flexibility Score: inf
ROOT
ATOM      1  C   UNL     1       6.714   0.827   1.333  1.00  0.00     0.080 C 
ENDROOT
BRANCH   1   2
ATOM      2  C   UNL     1       5.280   1.146   1.481  1.00  0.00     0.130 C 
ATOM      3  C   UNL     1       4.666   2.145   0.583  1.00  0.00     0.087 C 
ATOM      4  O   UNL     1       4.638   0.584   2.334  1.00  0.00    -0.300 OA
ENDBRANCH   1   2
BRANCH   1   5
ATOM      5  C   UNL     1       7.170   1.005  -0.101  1.00  0.00     0.043 C 
BRANCH   5   6
ATOM      6  C   UNL     1       7.586  -0.280  -0.671  1.00  0.00    -0.044 A 
ATOM      7  C   UNL     1       7.578  -0.470  -2.038  1.00  0.00     0.008 A 
ATOM      8  C   UNL     1       7.995  -1.336   0.124  1.00  0.00     0.054 A 
ATOM      9  C   UNL     1       7.965  -1.675  -2.619  1.00  0.00     0.051 A 
ATOM     10  C   UNL     1       8.388  -2.553  -0.429  1.00  0.00     0.166 A 
ATOM     11  C   UNL     1       8.369  -2.711  -1.799  1.00  0.00     0.165 A 
ATOM     12  O   UNL     1       8.836  -3.761   0.103  1.00  0.00    -0.454 OA
ATOM     13  O   UNL     1       8.801  -4.000  -2.081  1.00  0.00    -0.454 OA
ATOM     14  C   UNL     1       8.841  -4.765  -0.880  1.00  0.00     0.468 C 
ENDBRANCH   5   6
ENDBRANCH   1   5
TORSDOF 3
ENDMDL
