@<TRIPOS>MOLECULE
/home/cewinharhar/GITHUB/reincatalyze/data/processed/docking_pred/2023-May-31-1603_sub9_nm5_bs15_s42_ex16_mel10_mts1000_k50_ec05_g099_lra3e-4_lrc9e-3/8f3f3cc121b2e0b9b67c9595347d7d2b0dd21437_ligand_9.pdbqt
 14 15 0 0 0
SMALL
GASTEIGER

@<TRIPOS>ATOM
      1  C          5.6250    1.2920   -0.2600 C.3     1  UNL1        0.0800
      2  C          5.0480    1.2410    1.0990 C.2     1  UNL1        0.1300
      3  C          5.3670    0.0950    1.9750 C.3     1  UNL1        0.0870
      4  O          4.3270    2.1360    1.4650 O.2     1  UNL1       -0.3000
      5  C          7.1350    1.1810   -0.2190 C.3     1  UNL1        0.0430
      6  C          7.5760   -0.0760   -0.8290 C.2     1  UNL1       -0.0440
      7  C          7.6530   -0.1960   -2.2010 C.2     1  UNL1        0.0080
      8  C          7.9260   -1.1770   -0.0670 C.2     1  UNL1        0.0540
      9  C          8.0650   -1.3720   -2.8200 C.2     1  UNL1        0.0510
     10  C          8.3430   -2.3680   -0.6570 C.2     1  UNL1        0.1660
     11  C          8.4090   -2.4550   -2.0320 C.2     1  UNL1        0.1650
     12  O          8.7480   -3.6070   -0.1630 O.2     1  UNL1       -0.4540
     13  O          8.8480   -3.7320   -2.3540 O.2     1  UNL1       -0.4540
     14  C          8.8070   -4.5590   -1.1940 C.3     1  UNL1        0.4680
@<TRIPOS>BOND
     1     9     7    1
     2     9    11    2
     3    13    11    1
     4    13    14    1
     5     7     6    2
     6    11    10    1
     7    14    12    1
     8     6     5    1
     9     6     8    1
    10    10    12    1
    11    10     8    2
    12     1     5    1
    13     1     2    1
    14     2     4    2
    15     2     3    1
