@<TRIPOS>MOLECULE
/home/cewinharhar/GITHUB/reincatalyze/data/processed/docking_pred/2023-May-31-1603_sub9_nm5_bs15_s42_ex16_mel10_mts1000_k50_ec05_g099_lra3e-4_lrc9e-3/8f7c925e970cb887b69f6e81c5db99fda922d0ae_ligand_9.pdbqt
 14 15 0 0 0
SMALL
GASTEIGER

@<TRIPOS>ATOM
      1  C          6.5520    1.2940    0.3690 C.3     1  UNL1        0.0800
      2  C          5.3600    1.1790    1.2330 C.2     1  UNL1        0.1300
      3  C          5.1970   -0.0200    2.0800 C.3     1  UNL1        0.0870
      4  O          4.5440    2.0670    1.2310 O.2     1  UNL1       -0.3000
      5  C          6.2390    0.8810   -1.0550 C.3     1  UNL1        0.0430
      6  C          7.0130   -0.3070   -1.4280 C.2     1  UNL1       -0.0440
      7  C          7.4500   -0.4740   -2.7260 C.2     1  UNL1        0.0080
      8  C          7.3300   -1.2930   -0.5100 C.2     1  UNL1        0.0540
      9  C          8.1870   -1.5870   -3.1210 C.2     1  UNL1        0.0510
     10  C          8.0660   -2.4170   -0.8760 C.2     1  UNL1        0.1660
     11  C          8.4890   -2.5550   -2.1820 C.2     1  UNL1        0.1650
     12  O          8.5240   -3.5420   -0.1920 O.2     1  UNL1       -0.4540
     13  O          9.1910   -3.7480   -2.2750 O.2     1  UNL1       -0.4540
     14  C          8.9910   -4.5150   -1.0910 C.3     1  UNL1        0.4680
@<TRIPOS>BOND
     1     9     7    1
     2     9    11    2
     3     7     6    2
     4    13    11    1
     5    13    14    1
     6    11    10    1
     7     6     5    1
     8     6     8    1
     9    14    12    1
    10     5     1    1
    11    10     8    2
    12    10    12    1
    13     1     2    1
    14     4     2    2
    15     2     3    1
