@<TRIPOS>MOLECULE
/home/cewinharhar/GITHUB/reincatalyze/data/processed/docking_pred/2023-May-31-1603_sub9_nm5_bs15_s42_ex16_mel10_mts1000_k50_ec05_g099_lra3e-4_lrc9e-3/8f7c925e970cb887b69f6e81c5db99fda922d0ae_ligand_9.pdbqt
 14 15 0 0 0
SMALL
GASTEIGER

@<TRIPOS>ATOM
      1  C          6.3150    1.2210    1.0090 C.3     1  UNL1        0.0800
      2  C          5.6250    0.3820    2.0090 C.2     1  UNL1        0.1300
      3  C          6.3210   -0.7970    2.5640 C.3     1  UNL1        0.0870
      4  O          4.5070    0.6760    2.3530 O.2     1  UNL1       -0.3000
      5  C          5.8030    0.9410   -0.3890 C.3     1  UNL1        0.0430
      6  C          6.7230    0.0520   -1.1050 C.2     1  UNL1       -0.0440
      7  C          7.2820    0.4470   -2.3030 C.2     1  UNL1        0.0080
      8  C          7.0610   -1.1980   -0.6180 C.2     1  UNL1        0.0540
      9  C          8.1580   -0.3680   -3.0140 C.2     1  UNL1        0.0510
     10  C          7.9360   -2.0350   -1.3070 C.2     1  UNL1        0.1660
     11  C          8.4780   -1.6110   -2.5020 C.2     1  UNL1        0.1650
     12  O          8.4480   -3.3100   -1.0700 O.2     1  UNL1       -0.4540
     13  O          9.3030   -2.6220   -2.9730 O.2     1  UNL1       -0.4540
     14  C          9.0850   -3.8110   -2.2180 C.3     1  UNL1        0.4680
@<TRIPOS>BOND
     1     9    11    2
     2     9     7    1
     3    13    11    1
     4    13    14    1
     5    11    10    1
     6     7     6    2
     7    14    12    1
     8    10    12    1
     9    10     8    2
    10     6     8    1
    11     6     5    1
    12     5     1    1
    13     1     2    1
    14     2     4    2
    15     2     3    1
