@<TRIPOS>MOLECULE
/home/cewinharhar/GITHUB/reincatalyze/data/processed/docking_pred/2023-May-31-1603_sub9_nm5_bs15_s42_ex16_mel10_mts1000_k50_ec05_g099_lra3e-4_lrc9e-3/8f7e92428ebbeefdf44ae8ea1c0956f20f305f25_ligand_9.pdbqt
 14 15 0 0 0
SMALL
GASTEIGER

@<TRIPOS>ATOM
      1  C          5.6210    1.8410    1.3590 C.3     1  UNL1        0.0800
      2  C          5.1330    0.6380    2.0630 C.2     1  UNL1        0.1300
      3  C          6.0440   -0.5080    2.2480 C.3     1  UNL1        0.0870
      4  O          3.9980    0.6180    2.4730 O.2     1  UNL1       -0.3000
      5  C          5.4330    1.7140   -0.1390 C.3     1  UNL1        0.0430
      6  C          6.5520    0.9810   -0.7380 C.2     1  UNL1       -0.0440
      7  C          7.8470    1.4270   -0.5700 C.2     1  UNL1        0.0080
      8  C          6.3590   -0.1690   -1.4840 C.2     1  UNL1        0.0540
      9  C          8.9370    0.7600   -1.1240 C.2     1  UNL1        0.0510
     10  C          7.4300   -0.8570   -2.0490 C.2     1  UNL1        0.1660
     11  C          8.7120   -0.3850   -1.8640 C.2     1  UNL1        0.1650
     12  O          7.5410   -2.0090   -2.8270 O.2     1  UNL1       -0.4540
     13  O          9.5780   -1.2450   -2.5230 O.2     1  UNL1       -0.4540
     14  C          8.8340   -2.1240   -3.3630 C.3     1  UNL1        0.4680
@<TRIPOS>BOND
     1    14    12    1
     2    14    13    1
     3    12    10    1
     4    13    11    1
     5    10    11    2
     6    10     8    1
     7    11     9    1
     8     8     6    2
     9     9     7    2
    10     6     7    1
    11     6     5    1
    12     5     1    1
    13     1     2    1
    14     2     3    1
    15     2     4    2
