@<TRIPOS>MOLECULE
/home/cewinharhar/GITHUB/reincatalyze/data/processed/docking_pred/2023-May-31-1603_sub9_nm5_bs15_s42_ex16_mel10_mts1000_k50_ec05_g099_lra3e-4_lrc9e-3/8f7e92428ebbeefdf44ae8ea1c0956f20f305f25_ligand_9.pdbqt
 14 15 0 0 0
SMALL
GASTEIGER

@<TRIPOS>ATOM
      1  C          5.6650    1.2100   -0.2710 C.3     1  UNL1        0.0800
      2  C          5.0360    1.2020    1.0650 C.2     1  UNL1        0.1300
      3  C          5.2360    0.0360    1.9480 C.3     1  UNL1        0.0870
      4  O          4.3720    2.1490    1.4070 O.2     1  UNL1       -0.3000
      5  C          7.1700    1.0680   -0.1710 C.3     1  UNL1        0.0430
      6  C          7.6060   -0.2090   -0.7440 C.2     1  UNL1       -0.0440
      7  C          7.6880   -0.3670   -2.1120 C.2     1  UNL1        0.0080
      8  C          7.9470   -1.2900    0.0510 C.2     1  UNL1        0.0540
      9  C          8.0970   -1.5630   -2.6950 C.2     1  UNL1        0.0510
     10  C          8.3590   -2.4990   -0.5040 C.2     1  UNL1        0.1660
     11  C          8.4310   -2.6250   -1.8760 C.2     1  UNL1        0.1650
     12  O          8.7550   -3.7260    0.0270 O.2     1  UNL1       -0.4540
     13  O          8.8630   -3.9120   -2.1590 O.2     1  UNL1       -0.4540
     14  C          8.8130   -4.7060   -0.9770 C.3     1  UNL1        0.4680
@<TRIPOS>BOND
     1     9     7    1
     2     9    11    2
     3    13    11    1
     4    13    14    1
     5     7     6    2
     6    11    10    1
     7    14    12    1
     8     6     5    1
     9     6     8    1
    10    10    12    1
    11    10     8    2
    12     1     5    1
    13     1     2    1
    14     2     4    2
    15     2     3    1
