@<TRIPOS>MOLECULE
/home/cewinharhar/GITHUB/reincatalyze/data/processed/docking_pred/2023-May-31-1603_sub9_nm5_bs15_s42_ex16_mel10_mts1000_k50_ec05_g099_lra3e-4_lrc9e-3/91438d65c636cbfd2c8442c68b92b155f88758ee_ligand_9.pdbqt
 14 15 0 0 0
SMALL
GASTEIGER

@<TRIPOS>ATOM
      1  C          5.9680    1.5920    1.5070 C.3     1  UNL1        0.0800
      2  C          5.3620    0.4010    2.1340 C.2     1  UNL1        0.1300
      3  C          6.1820   -0.8140    2.3150 C.3     1  UNL1        0.0870
      4  O          4.2090    0.4440    2.4850 O.2     1  UNL1       -0.3000
      5  C          5.7390    1.6010    0.0100 C.3     1  UNL1        0.0430
      6  C          6.7990    0.8580   -0.6770 C.2     1  UNL1       -0.0440
      7  C          8.0980    1.3230   -0.6620 C.2     1  UNL1        0.0080
      8  C          6.5450   -0.3200   -1.3580 C.2     1  UNL1        0.0540
      9  C          9.1330    0.6470   -1.3030 C.2     1  UNL1        0.0510
     10  C          7.5600   -1.0170   -2.0090 C.2     1  UNL1        0.1660
     11  C          8.8490   -0.5270   -1.9750 C.2     1  UNL1        0.1650
     12  O          7.6050   -2.1960   -2.7530 O.2     1  UNL1       -0.4540
     13  O          9.6530   -1.4010   -2.6910 O.2     1  UNL1       -0.4540
     14  C          8.8370   -2.3170   -3.4170 C.3     1  UNL1        0.4680
@<TRIPOS>BOND
     1    14    12    1
     2    14    13    1
     3    12    10    1
     4    13    11    1
     5    10    11    2
     6    10     8    1
     7    11     9    1
     8     8     6    2
     9     9     7    2
    10     6     7    1
    11     6     5    1
    12     5     1    1
    13     1     2    1
    14     2     3    1
    15     2     4    2
