MODEL 1
REMARK VINA RESULT:      -7.2      0.000      0.000
REMARK SMILES CC(=O)CCc1ccc2c(c1)OCO2
REMARK SMILES IDX 4 1 2 2 1 3 3 4 5 5 6 6 7 7 11 8 8 9 10 10 9 11 12 12 14 13
REMARK SMILES IDX 13 14
REMARK H PARENT
REMARK Flexibility Score: inf
ROOT
ATOM      1  C   UNL     1       6.318   1.188   1.001  1.00  0.00     0.080 C 
ENDROOT
BRANCH   1   2
ATOM      2  C   UNL     1       5.587   0.369   1.989  1.00  0.00     0.130 C 
ATOM      3  C   UNL     1       6.222  -0.853   2.523  1.00  0.00     0.087 C 
ATOM      4  O   UNL     1       4.487   0.716   2.340  1.00  0.00    -0.300 OA
ENDBRANCH   1   2
BRANCH   1   5
ATOM      5  C   UNL     1       5.819   0.926  -0.405  1.00  0.00     0.043 C 
BRANCH   5   6
ATOM      6  C   UNL     1       6.744   0.046  -1.125  1.00  0.00    -0.044 A 
ATOM      7  C   UNL     1       7.317   0.457  -2.310  1.00  0.00     0.008 A 
ATOM      8  C   UNL     1       7.072  -1.213  -0.653  1.00  0.00     0.054 A 
ATOM      9  C   UNL     1       8.200  -0.349  -3.024  1.00  0.00     0.051 A 
ATOM     10  C   UNL     1       7.952  -2.042  -1.346  1.00  0.00     0.166 A 
ATOM     11  C   UNL     1       8.509  -1.601  -2.528  1.00  0.00     0.165 A 
ATOM     12  O   UNL     1       8.458  -3.323  -1.124  1.00  0.00    -0.454 OA
ATOM     13  O   UNL     1       9.337  -2.607  -3.006  1.00  0.00    -0.454 OA
ATOM     14  C   UNL     1       9.106  -3.807  -2.272  1.00  0.00     0.468 C 
ENDBRANCH   5   6
ENDBRANCH   1   5
TORSDOF 3
ENDMDL
MODEL 2
REMARK VINA RESULT:      -7.1      1.194      1.361
REMARK SMILES CC(=O)CCc1ccc2c(c1)OCO2
REMARK SMILES IDX 4 1 2 2 1 3 3 4 5 5 6 6 7 7 11 8 8 9 10 10 9 11 12 12 14 13
REMARK SMILES IDX 13 14
REMARK H PARENT
REMARK Flexibility Score: inf
ROOT
ATOM      1  C   UNL     1       5.968   1.592   1.507  1.00  0.00     0.080 C 
ENDROOT
BRANCH   1   2
ATOM      2  C   UNL     1       5.362   0.401   2.134  1.00  0.00     0.130 C 
ATOM      3  C   UNL     1       6.182  -0.814   2.315  1.00  0.00     0.087 C 
ATOM      4  O   UNL     1       4.209   0.444   2.485  1.00  0.00    -0.300 OA
ENDBRANCH   1   2
BRANCH   1   5
ATOM      5  C   UNL     1       5.739   1.601   0.010  1.00  0.00     0.043 C 
BRANCH   5   6
ATOM      6  C   UNL     1       6.799   0.858  -0.677  1.00  0.00    -0.044 A 
ATOM      7  C   UNL     1       8.098   1.323  -0.662  1.00  0.00     0.008 A 
ATOM      8  C   UNL     1       6.545  -0.320  -1.358  1.00  0.00     0.054 A 
ATOM      9  C   UNL     1       9.133   0.647  -1.303  1.00  0.00     0.051 A 
ATOM     10  C   UNL     1       7.560  -1.017  -2.009  1.00  0.00     0.166 A 
ATOM     11  C   UNL     1       8.849  -0.527  -1.975  1.00  0.00     0.165 A 
ATOM     12  O   UNL     1       7.605  -2.196  -2.753  1.00  0.00    -0.454 OA
ATOM     13  O   UNL     1       9.653  -1.401  -2.691  1.00  0.00    -0.454 OA
ATOM     14  C   UNL     1       8.837  -2.317  -3.417  1.00  0.00     0.468 C 
ENDBRANCH   5   6
ENDBRANCH   1   5
TORSDOF 3
ENDMDL
MODEL 3
REMARK VINA RESULT:      -7.1      1.094      1.360
REMARK SMILES CC(=O)CCc1ccc2c(c1)OCO2
REMARK SMILES IDX 4 1 2 2 1 3 3 4 5 5 6 6 7 7 11 8 8 9 10 10 9 11 12 12 14 13
REMARK SMILES IDX 13 14
REMARK H PARENT
REMARK Flexibility Score: inf
ROOT
ATOM      1  C   UNL     1       5.621   0.715   0.058  1.00  0.00     0.080 C 
ENDROOT
BRANCH   1   2
ATOM      2  C   UNL     1       5.829   1.020   1.488  1.00  0.00     0.130 C 
ATOM      3  C   UNL     1       7.092   1.659   1.912  1.00  0.00     0.087 C 
ATOM      4  O   UNL     1       4.964   0.742   2.281  1.00  0.00    -0.300 OA
ENDBRANCH   1   2
BRANCH   1   5
ATOM      5  C   UNL     1       6.892   0.925  -0.739  1.00  0.00     0.043 C 
BRANCH   5   6
ATOM      6  C   UNL     1       7.453  -0.362  -1.162  1.00  0.00    -0.044 A 
ATOM      7  C   UNL     1       7.702  -0.608  -2.496  1.00  0.00     0.008 A 
ATOM      8  C   UNL     1       7.749  -1.365  -0.256  1.00  0.00     0.054 A 
ATOM      9  C   UNL     1       8.233  -1.816  -2.939  1.00  0.00     0.051 A 
ATOM     10  C   UNL     1       8.281  -2.584  -0.669  1.00  0.00     0.166 A 
ATOM     11  C   UNL     1       8.519  -2.799  -2.011  1.00  0.00     0.165 A 
ATOM     12  O   UNL     1       8.669  -3.748  -0.007  1.00  0.00    -0.454 OA
ATOM     13  O   UNL     1       9.043  -4.077  -2.147  1.00  0.00    -0.454 OA
ATOM     14  C   UNL     1       8.891  -4.790  -0.923  1.00  0.00     0.468 C 
ENDBRANCH   5   6
ENDBRANCH   1   5
TORSDOF 3
ENDMDL
MODEL 4
REMARK VINA RESULT:      -6.7      1.140      1.221
REMARK SMILES CC(=O)CCc1ccc2c(c1)OCO2
REMARK SMILES IDX 4 1 2 2 1 3 3 4 5 5 6 6 7 7 11 8 8 9 10 10 9 11 12 12 14 13
REMARK SMILES IDX 13 14
REMARK H PARENT
REMARK Flexibility Score: inf
ROOT
ATOM      1  C   UNL     1       6.869   1.671   0.176  1.00  0.00     0.080 C 
ENDROOT
BRANCH   1   2
ATOM      2  C   UNL     1       6.668   1.069   1.509  1.00  0.00     0.130 C 
ATOM      3  C   UNL     1       5.334   0.549   1.872  1.00  0.00     0.087 C 
ATOM      4  O   UNL     1       7.598   1.013   2.275  1.00  0.00    -0.300 OA
ENDBRANCH   1   2
BRANCH   1   5
ATOM      5  C   UNL     1       6.132   0.892  -0.894  1.00  0.00     0.043 C 
BRANCH   5   6
ATOM      6  C   UNL     1       6.958  -0.215  -1.386  1.00  0.00    -0.044 A 
ATOM      7  C   UNL     1       7.463  -0.190  -2.669  1.00  0.00     0.008 A 
ATOM      8  C   UNL     1       7.259  -1.311  -0.596  1.00  0.00     0.054 A 
ATOM      9  C   UNL     1       8.251  -1.221  -3.175  1.00  0.00     0.051 A 
ATOM     10  C   UNL     1       8.044  -2.357  -1.074  1.00  0.00     0.166 A 
ATOM     11  C   UNL     1       8.534  -2.303  -2.362  1.00  0.00     0.165 A 
ATOM     12  O   UNL     1       8.502  -3.556  -0.527  1.00  0.00    -0.454 OA
ATOM     13  O   UNL     1       9.275  -3.456  -2.581  1.00  0.00    -0.454 OA
ATOM     14  C   UNL     1       9.040  -4.384  -1.525  1.00  0.00     0.468 C 
ENDBRANCH   5   6
ENDBRANCH   1   5
TORSDOF 3
ENDMDL
MODEL 5
REMARK VINA RESULT:      -6.7      1.343      1.954
REMARK SMILES CC(=O)CCc1ccc2c(c1)OCO2
REMARK SMILES IDX 4 1 2 2 1 3 3 4 5 5 6 6 7 7 11 8 8 9 10 10 9 11 12 12 14 13
REMARK SMILES IDX 13 14
REMARK H PARENT
REMARK Flexibility Score: inf
ROOT
ATOM      1  C   UNL     1       6.153  -0.349   2.148  1.00  0.00     0.080 C 
ENDROOT
BRANCH   1   2
ATOM      2  C   UNL     1       5.115   0.636   1.785  1.00  0.00     0.130 C 
ATOM      3  C   UNL     1       5.270   1.424   0.546  1.00  0.00     0.087 C 
ATOM      4  O   UNL     1       4.160   0.777   2.509  1.00  0.00    -0.300 OA
ENDBRANCH   1   2
BRANCH   1   5
ATOM      5  C   UNL     1       7.478  -0.017   1.493  1.00  0.00     0.043 C 
BRANCH   5   6
ATOM      6  C   UNL     1       7.826  -1.031   0.493  1.00  0.00    -0.044 A 
ATOM      7  C   UNL     1       7.701  -0.754  -0.853  1.00  0.00     0.008 A 
ATOM      8  C   UNL     1       8.286  -2.286   0.852  1.00  0.00     0.054 A 
ATOM      9  C   UNL     1       8.020  -1.690  -1.833  1.00  0.00     0.051 A 
ATOM     10  C   UNL     1       8.613  -3.242  -0.107  1.00  0.00     0.166 A 
ATOM     11  C   UNL     1       8.477  -2.935  -1.444  1.00  0.00     0.165 A 
ATOM     12  O   UNL     1       9.088  -4.552  -0.049  1.00  0.00    -0.454 OA
ATOM     13  O   UNL     1       8.865  -4.048  -2.175  1.00  0.00    -0.454 OA
ATOM     14  C   UNL     1       8.996  -5.170  -1.306  1.00  0.00     0.468 C 
ENDBRANCH   5   6
ENDBRANCH   1   5
TORSDOF 3
ENDMDL
