@<TRIPOS>MOLECULE
/home/cewinharhar/GITHUB/reincatalyze/data/processed/docking_pred/2023-May-31-1603_sub9_nm5_bs15_s42_ex16_mel10_mts1000_k50_ec05_g099_lra3e-4_lrc9e-3/91438d65c636cbfd2c8442c68b92b155f88758ee_ligand_9.pdbqt
 14 15 0 0 0
SMALL
GASTEIGER

@<TRIPOS>ATOM
      1  C          6.1530   -0.3490    2.1480 C.3     1  UNL1        0.0800
      2  C          5.1150    0.6360    1.7850 C.2     1  UNL1        0.1300
      3  C          5.2700    1.4240    0.5460 C.3     1  UNL1        0.0870
      4  O          4.1600    0.7770    2.5090 O.2     1  UNL1       -0.3000
      5  C          7.4780   -0.0170    1.4930 C.3     1  UNL1        0.0430
      6  C          7.8260   -1.0310    0.4930 C.2     1  UNL1       -0.0440
      7  C          7.7010   -0.7540   -0.8530 C.2     1  UNL1        0.0080
      8  C          8.2860   -2.2860    0.8520 C.2     1  UNL1        0.0540
      9  C          8.0200   -1.6900   -1.8330 C.2     1  UNL1        0.0510
     10  C          8.6130   -3.2420   -0.1070 C.2     1  UNL1        0.1660
     11  C          8.4770   -2.9350   -1.4440 C.2     1  UNL1        0.1650
     12  O          9.0880   -4.5520   -0.0490 O.2     1  UNL1       -0.4540
     13  O          8.8650   -4.0480   -2.1750 O.2     1  UNL1       -0.4540
     14  C          8.9960   -5.1700   -1.3060 C.3     1  UNL1        0.4680
@<TRIPOS>BOND
     1    13    11    1
     2    13    14    1
     3     9    11    2
     4     9     7    1
     5    11    10    1
     6    14    12    1
     7     7     6    2
     8    10    12    1
     9    10     8    2
    10     6     8    1
    11     6     5    1
    12     3     2    1
    13     5     1    1
    14     2     1    1
    15     2     4    2
