@<TRIPOS>MOLECULE
/home/cewinharhar/GITHUB/reincatalyze/data/processed/docking_pred/2023-May-31-1603_sub9_nm5_bs15_s42_ex16_mel10_mts1000_k50_ec05_g099_lra3e-4_lrc9e-3/91438d65c636cbfd2c8442c68b92b155f88758ee_ligand_9.pdbqt
 14 15 0 0 0
SMALL
GASTEIGER

@<TRIPOS>ATOM
      1  C          6.8690    1.6710    0.1760 C.3     1  UNL1        0.0800
      2  C          6.6680    1.0690    1.5090 C.2     1  UNL1        0.1300
      3  C          5.3340    0.5490    1.8720 C.3     1  UNL1        0.0870
      4  O          7.5980    1.0130    2.2750 O.2     1  UNL1       -0.3000
      5  C          6.1320    0.8920   -0.8940 C.3     1  UNL1        0.0430
      6  C          6.9580   -0.2150   -1.3860 C.2     1  UNL1       -0.0440
      7  C          7.4630   -0.1900   -2.6690 C.2     1  UNL1        0.0080
      8  C          7.2590   -1.3110   -0.5960 C.2     1  UNL1        0.0540
      9  C          8.2510   -1.2210   -3.1750 C.2     1  UNL1        0.0510
     10  C          8.0440   -2.3570   -1.0740 C.2     1  UNL1        0.1660
     11  C          8.5340   -2.3030   -2.3620 C.2     1  UNL1        0.1650
     12  O          8.5020   -3.5560   -0.5270 O.2     1  UNL1       -0.4540
     13  O          9.2750   -3.4560   -2.5810 O.2     1  UNL1       -0.4540
     14  C          9.0400   -4.3840   -1.5250 C.3     1  UNL1        0.4680
@<TRIPOS>BOND
     1     9     7    1
     2     9    11    2
     3     7     6    2
     4    13    11    1
     5    13    14    1
     6    11    10    1
     7    14    12    1
     8     6     5    1
     9     6     8    1
    10    10     8    2
    11    10    12    1
    12     5     1    1
    13     1     2    1
    14     2     3    1
    15     2     4    2
