@<TRIPOS>MOLECULE
/home/cewinharhar/GITHUB/reincatalyze/data/processed/docking_pred/2023-May-31-1603_sub9_nm5_bs15_s42_ex16_mel10_mts1000_k50_ec05_g099_lra3e-4_lrc9e-3/9282b18981f6708324b0af4486d36de930a99903_ligand_9.pdbqt
 14 15 0 0 0
SMALL
GASTEIGER

@<TRIPOS>ATOM
      1  C          2.1950    0.0910    2.9940 C.3     1  UNL1        0.0800
      2  C          0.7420    0.3500    2.9370 C.2     1  UNL1        0.1300
      3  C         -0.1720   -0.4900    3.7360 C.3     1  UNL1        0.0870
      4  O          0.3320    1.2430    2.2370 O.2     1  UNL1       -0.3000
      5  C          2.9690    1.1330    2.2150 C.3     1  UNL1        0.0430
      6  C          4.3680    0.7250    2.0580 C.2     1  UNL1       -0.0440
      7  C          5.3470    1.6670    1.8190 C.2     1  UNL1        0.0080
      8  C          4.7580   -0.6000    2.1420 C.2     1  UNL1        0.0540
      9  C          6.6860    1.3210    1.6630 C.2     1  UNL1        0.0510
     10  C          6.0900   -0.9770    1.9910 C.2     1  UNL1        0.1660
     11  C          7.0450   -0.0110    1.7520 C.2     1  UNL1        0.1650
     12  O          6.7640   -2.1980    2.0240 O.2     1  UNL1       -0.4540
     13  O          8.2730   -0.6480    1.6430 O.2     1  UNL1       -0.4540
     14  C          8.0750   -2.0560    1.5430 C.3     1  UNL1        0.4680
@<TRIPOS>BOND
     1    14    13    1
     2    14    12    1
     3    13    11    1
     4     9    11    2
     5     9     7    1
     6    11    10    1
     7     7     6    2
     8    10    12    1
     9    10     8    2
    10     6     8    1
    11     6     5    1
    12     5     1    1
    13     4     2    2
    14     2     1    1
    15     2     3    1
