@<TRIPOS>MOLECULE
/home/cewinharhar/GITHUB/reincatalyze/data/processed/docking_pred/2023-May-31-1603_sub9_nm5_bs15_s42_ex16_mel10_mts1000_k50_ec05_g099_lra3e-4_lrc9e-3/9282b18981f6708324b0af4486d36de930a99903_ligand_9.pdbqt
 14 15 0 0 0
SMALL
GASTEIGER

@<TRIPOS>ATOM
      1  C          8.8030   -4.8290   -0.4170 C.3     1  UNL1        0.0800
      2  C          9.5200   -4.7160   -1.7030 C.2     1  UNL1        0.1300
      3  C         10.2980   -5.8690   -2.1980 C.3     1  UNL1        0.0870
      4  O          9.4540   -3.6830   -2.3230 O.2     1  UNL1       -0.3000
      5  C          9.5540   -4.1260    0.6950 C.3     1  UNL1        0.0430
      6  C          8.8750   -2.8820    1.0690 C.2     1  UNL1       -0.0440
      7  C          9.5920   -1.7120    1.2120 C.2     1  UNL1        0.0080
      8  C          7.5100   -2.8310    1.2900 C.2     1  UNL1        0.0540
      9  C          8.9850   -0.5110    1.5670 C.2     1  UNL1        0.0510
     10  C          6.8750   -1.6440    1.6460 C.2     1  UNL1        0.1660
     11  C          7.6200   -0.4910    1.7820 C.2     1  UNL1        0.1650
     12  O          5.5530   -1.2960    1.9250 O.2     1  UNL1       -0.4540
     13  O          6.7530    0.5320    2.1380 O.2     1  UNL1       -0.4540
     14  C          5.4870   -0.0150    2.4970 C.3     1  UNL1        0.4680
@<TRIPOS>BOND
     1     4     2    2
     2     3     2    1
     3     2     1    1
     4     1     5    1
     5     5     6    1
     6     6     7    2
     7     6     8    1
     8     7     9    1
     9     8    10    2
    10     9    11    2
    11    10    11    1
    12    10    12    1
    13    11    13    1
    14    12    14    1
    15    13    14    1
