MODEL 1
REMARK VINA RESULT:      -7.6      0.000      0.000
REMARK SMILES CC(=O)CCc1ccc2c(c1)OCO2
REMARK SMILES IDX 4 1 2 2 1 3 3 4 5 5 6 6 7 7 11 8 8 9 10 10 9 11 12 12 14 13
REMARK SMILES IDX 13 14
REMARK H PARENT
REMARK Flexibility Score: inf
ROOT
ATOM      1  C   UNL     1       5.582   1.857   1.300  1.00  0.00     0.080 C 
ENDROOT
BRANCH   1   2
ATOM      2  C   UNL     1       5.110   0.667   2.035  1.00  0.00     0.130 C 
ATOM      3  C   UNL     1       6.023  -0.479   2.216  1.00  0.00     0.087 C 
ATOM      4  O   UNL     1       3.986   0.656   2.474  1.00  0.00    -0.300 OA
ENDBRANCH   1   2
BRANCH   1   5
ATOM      5  C   UNL     1       5.406   1.684  -0.195  1.00  0.00     0.043 C 
BRANCH   5   6
ATOM      6  C   UNL     1       6.542   0.955  -0.766  1.00  0.00    -0.044 A 
ATOM      7  C   UNL     1       7.830   1.410  -0.574  1.00  0.00     0.008 A 
ATOM      8  C   UNL     1       6.372  -0.199  -1.511  1.00  0.00     0.054 A 
ATOM      9  C   UNL     1       8.936   0.748  -1.100  1.00  0.00     0.051 A 
ATOM     10  C   UNL     1       7.458  -0.883  -2.050  1.00  0.00     0.166 A 
ATOM     11  C   UNL     1       8.734  -0.403  -1.839  1.00  0.00     0.165 A 
ATOM     12  O   UNL     1       7.593  -2.038  -2.820  1.00  0.00    -0.454 OA
ATOM     13  O   UNL     1       9.619  -1.261  -2.476  1.00  0.00    -0.454 OA
ATOM     14  C   UNL     1       8.898  -2.148  -3.327  1.00  0.00     0.468 C 
ENDBRANCH   5   6
ENDBRANCH   1   5
TORSDOF 3
ENDMDL
MODEL 2
REMARK VINA RESULT:      -7.3      1.784      2.256
REMARK SMILES CC(=O)CCc1ccc2c(c1)OCO2
REMARK SMILES IDX 4 1 2 2 1 3 3 4 5 5 6 6 7 7 11 8 8 9 10 10 9 11 12 12 14 13
REMARK SMILES IDX 13 14
REMARK H PARENT
REMARK Flexibility Score: inf
ROOT
ATOM      1  C   UNL     1       6.570   1.329   0.374  1.00  0.00     0.080 C 
ENDROOT
BRANCH   1   2
ATOM      2  C   UNL     1       5.424   1.228   1.300  1.00  0.00     0.130 C 
ATOM      3  C   UNL     1       5.302   0.040   2.169  1.00  0.00     0.087 C 
ATOM      4  O   UNL     1       4.610   2.118   1.327  1.00  0.00    -0.300 OA
ENDBRANCH   1   2
BRANCH   1   5
ATOM      5  C   UNL     1       6.197   0.855  -1.015  1.00  0.00     0.043 C 
BRANCH   5   6
ATOM      6  C   UNL     1       6.972  -0.334  -1.379  1.00  0.00    -0.044 A 
ATOM      7  C   UNL     1       7.375  -0.530  -2.684  1.00  0.00     0.008 A 
ATOM      8  C   UNL     1       7.324  -1.293  -0.446  1.00  0.00     0.054 A 
ATOM      9  C   UNL     1       8.111  -1.647  -3.071  1.00  0.00     0.051 A 
ATOM     10  C   UNL     1       8.060  -2.420  -0.803  1.00  0.00     0.166 A 
ATOM     11  C   UNL     1       8.449  -2.587  -2.116  1.00  0.00     0.165 A 
ATOM     12  O   UNL     1       8.549  -3.523  -0.103  1.00  0.00    -0.454 OA
ATOM     13  O   UNL     1       9.160  -3.776  -2.198  1.00  0.00    -0.454 OA
ATOM     14  C   UNL     1       9.000  -4.514  -0.989  1.00  0.00     0.468 C 
ENDBRANCH   5   6
ENDBRANCH   1   5
TORSDOF 3
ENDMDL
MODEL 3
REMARK VINA RESULT:      -7.2      2.107      2.636
REMARK SMILES CC(=O)CCc1ccc2c(c1)OCO2
REMARK SMILES IDX 4 1 2 2 1 3 3 4 5 5 6 6 7 7 11 8 8 9 10 10 9 11 12 12 14 13
REMARK SMILES IDX 13 14
REMARK H PARENT
REMARK Flexibility Score: inf
ROOT
ATOM      1  C   UNL     1       5.469  -0.001   1.840  1.00  0.00     0.080 C 
ENDROOT
BRANCH   1   2
ATOM      2  C   UNL     1       4.619   1.183   1.602  1.00  0.00     0.130 C 
ATOM      3  C   UNL     1       4.971   2.116   0.513  1.00  0.00     0.087 C 
ATOM      4  O   UNL     1       3.653   1.363   2.302  1.00  0.00    -0.300 OA
ENDBRANCH   1   2
BRANCH   1   5
ATOM      5  C   UNL     1       6.904   0.263   1.435  1.00  0.00     0.043 C 
BRANCH   5   6
ATOM      6  C   UNL     1       7.359  -0.740   0.468  1.00  0.00    -0.044 A 
ATOM      7  C   UNL     1       7.212  -0.518  -0.886  1.00  0.00     0.008 A 
ATOM      8  C   UNL     1       7.942  -1.930   0.866  1.00  0.00     0.054 A 
ATOM      9  C   UNL     1       7.630  -1.446  -1.837  1.00  0.00     0.051 A 
ATOM     10  C   UNL     1       8.370  -2.876  -0.062  1.00  0.00     0.166 A 
ATOM     11  C   UNL     1       8.210  -2.625  -1.409  1.00  0.00     0.165 A 
ATOM     12  O   UNL     1       8.976  -4.128   0.037  1.00  0.00    -0.454 OA
ATOM     13  O   UNL     1       8.714  -3.715  -2.104  1.00  0.00    -0.454 OA
ATOM     14  C   UNL     1       8.954  -4.790  -1.201  1.00  0.00     0.468 C 
ENDBRANCH   5   6
ENDBRANCH   1   5
TORSDOF 3
ENDMDL
MODEL 4
REMARK VINA RESULT:      -7.1      1.206      1.358
REMARK SMILES CC(=O)CCc1ccc2c(c1)OCO2
REMARK SMILES IDX 4 1 2 2 1 3 3 4 5 5 6 6 7 7 11 8 8 9 10 10 9 11 12 12 14 13
REMARK SMILES IDX 13 14
REMARK H PARENT
REMARK Flexibility Score: inf
ROOT
ATOM      1  C   UNL     1       6.231   1.308   0.985  1.00  0.00     0.080 C 
ENDROOT
BRANCH   1   2
ATOM      2  C   UNL     1       5.584   0.413   1.965  1.00  0.00     0.130 C 
ATOM      3  C   UNL     1       6.319  -0.770   2.457  1.00  0.00     0.087 C 
ATOM      4  O   UNL     1       4.468   0.667   2.345  1.00  0.00    -0.300 OA
ENDBRANCH   1   2
BRANCH   1   5
ATOM      5  C   UNL     1       5.733   1.036  -0.419  1.00  0.00     0.043 C 
BRANCH   5   6
ATOM      6  C   UNL     1       6.676   0.179  -1.143  1.00  0.00    -0.044 A 
ATOM      7  C   UNL     1       7.315   0.647  -2.273  1.00  0.00     0.008 A 
ATOM      8  C   UNL     1       6.959  -1.111  -0.731  1.00  0.00     0.054 A 
ATOM      9  C   UNL     1       8.217  -0.135  -2.990  1.00  0.00     0.051 A 
ATOM     10  C   UNL     1       7.857  -1.916  -1.428  1.00  0.00     0.166 A 
ATOM     11  C   UNL     1       8.480  -1.420  -2.554  1.00  0.00     0.165 A 
ATOM     12  O   UNL     1       8.328  -3.218  -1.257  1.00  0.00    -0.454 OA
ATOM     13  O   UNL     1       9.312  -2.414  -3.049  1.00  0.00    -0.454 OA
ATOM     14  C   UNL     1       9.024  -3.648  -2.399  1.00  0.00     0.468 C 
ENDBRANCH   5   6
ENDBRANCH   1   5
TORSDOF 3
ENDMDL
MODEL 5
REMARK VINA RESULT:      -7.0      1.213      5.193
REMARK SMILES CC(=O)CCc1ccc2c(c1)OCO2
REMARK SMILES IDX 4 1 2 2 1 3 3 4 5 5 6 6 7 7 11 8 8 9 10 10 9 11 12 12 14 13
REMARK SMILES IDX 13 14
REMARK H PARENT
REMARK Flexibility Score: inf
ROOT
ATOM      1  C   UNL     1       8.275   0.175  -2.587  1.00  0.00     0.080 C 
ENDROOT
BRANCH   1   2
ATOM      2  C   UNL     1       7.984  -1.266  -2.720  1.00  0.00     0.130 C 
ATOM      3  C   UNL     1       9.089  -2.200  -3.017  1.00  0.00     0.087 C 
ATOM      4  O   UNL     1       6.850  -1.652  -2.584  1.00  0.00    -0.300 OA
ENDBRANCH   1   2
BRANCH   1   5
ATOM      5  C   UNL     1       8.832   0.498  -1.216  1.00  0.00     0.043 C 
BRANCH   5   6
ATOM      6  C   UNL     1       7.778   0.422  -0.201  1.00  0.00    -0.044 A 
ATOM      7  C   UNL     1       7.794  -0.581   0.747  1.00  0.00     0.008 A 
ATOM      8  C   UNL     1       6.740   1.336  -0.152  1.00  0.00     0.054 A 
ATOM      9  C   UNL     1       6.811  -0.689   1.727  1.00  0.00     0.051 A 
ATOM     10  C   UNL     1       5.743   1.254   0.816  1.00  0.00     0.166 A 
ATOM     11  C   UNL     1       5.787   0.239   1.750  1.00  0.00     0.165 A 
ATOM     12  O   UNL     1       4.606   2.008   1.107  1.00  0.00    -0.454 OA
ATOM     13  O   UNL     1       4.690   0.387   2.587  1.00  0.00    -0.454 OA
ATOM     14  C   UNL     1       3.787   1.337   2.030  1.00  0.00     0.468 C 
ENDBRANCH   5   6
ENDBRANCH   1   5
TORSDOF 3
ENDMDL
