@<TRIPOS>MOLECULE
/home/cewinharhar/GITHUB/reincatalyze/data/processed/docking_pred/2023-May-31-1603_sub9_nm5_bs15_s42_ex16_mel10_mts1000_k50_ec05_g099_lra3e-4_lrc9e-3/939bd1e5684a89eea32cbd4f4170b12915347732_ligand_9.pdbqt
 14 15 0 0 0
SMALL
GASTEIGER

@<TRIPOS>ATOM
      1  C          6.2310    1.3080    0.9850 C.3     1  UNL1        0.0800
      2  C          5.5840    0.4130    1.9650 C.2     1  UNL1        0.1300
      3  C          6.3190   -0.7700    2.4570 C.3     1  UNL1        0.0870
      4  O          4.4680    0.6670    2.3450 O.2     1  UNL1       -0.3000
      5  C          5.7330    1.0360   -0.4190 C.3     1  UNL1        0.0430
      6  C          6.6760    0.1790   -1.1430 C.2     1  UNL1       -0.0440
      7  C          7.3150    0.6470   -2.2730 C.2     1  UNL1        0.0080
      8  C          6.9590   -1.1110   -0.7310 C.2     1  UNL1        0.0540
      9  C          8.2170   -0.1350   -2.9900 C.2     1  UNL1        0.0510
     10  C          7.8570   -1.9160   -1.4280 C.2     1  UNL1        0.1660
     11  C          8.4800   -1.4200   -2.5540 C.2     1  UNL1        0.1650
     12  O          8.3280   -3.2180   -1.2570 O.2     1  UNL1       -0.4540
     13  O          9.3120   -2.4140   -3.0490 O.2     1  UNL1       -0.4540
     14  C          9.0240   -3.6480   -2.3990 C.3     1  UNL1        0.4680
@<TRIPOS>BOND
     1    13    11    1
     2    13    14    1
     3     9    11    2
     4     9     7    1
     5    11    10    1
     6    14    12    1
     7     7     6    2
     8    10    12    1
     9    10     8    2
    10     6     8    1
    11     6     5    1
    12     5     1    1
    13     1     2    1
    14     2     4    2
    15     2     3    1
