@<TRIPOS>MOLECULE
/home/cewinharhar/GITHUB/reincatalyze/data/processed/docking_pred/2023-May-31-1603_sub9_nm5_bs15_s42_ex16_mel10_mts1000_k50_ec05_g099_lra3e-4_lrc9e-3/939bd1e5684a89eea32cbd4f4170b12915347732_ligand_9.pdbqt
 14 15 0 0 0
SMALL
GASTEIGER

@<TRIPOS>ATOM
      1  C          5.5820    1.8570    1.3000 C.3     1  UNL1        0.0800
      2  C          5.1100    0.6670    2.0350 C.2     1  UNL1        0.1300
      3  C          6.0230   -0.4790    2.2160 C.3     1  UNL1        0.0870
      4  O          3.9860    0.6560    2.4740 O.2     1  UNL1       -0.3000
      5  C          5.4060    1.6840   -0.1950 C.3     1  UNL1        0.0430
      6  C          6.5420    0.9550   -0.7660 C.2     1  UNL1       -0.0440
      7  C          7.8300    1.4100   -0.5740 C.2     1  UNL1        0.0080
      8  C          6.3720   -0.1990   -1.5110 C.2     1  UNL1        0.0540
      9  C          8.9360    0.7480   -1.1000 C.2     1  UNL1        0.0510
     10  C          7.4580   -0.8830   -2.0500 C.2     1  UNL1        0.1660
     11  C          8.7340   -0.4030   -1.8390 C.2     1  UNL1        0.1650
     12  O          7.5930   -2.0380   -2.8200 O.2     1  UNL1       -0.4540
     13  O          9.6190   -1.2610   -2.4760 O.2     1  UNL1       -0.4540
     14  C          8.8980   -2.1480   -3.3270 C.3     1  UNL1        0.4680
@<TRIPOS>BOND
     1    14    12    1
     2    14    13    1
     3    12    10    1
     4    13    11    1
     5    10    11    2
     6    10     8    1
     7    11     9    1
     8     8     6    2
     9     9     7    2
    10     6     7    1
    11     6     5    1
    12     5     1    1
    13     1     2    1
    14     2     3    1
    15     2     4    2
