MODEL 1
REMARK VINA RESULT:      -7.6      0.000      0.000
REMARK SMILES CC(=O)CCc1ccc2c(c1)OCO2
REMARK SMILES IDX 4 1 2 2 1 3 3 4 5 5 6 6 7 7 11 8 8 9 10 10 9 11 12 12 14 13
REMARK SMILES IDX 13 14
REMARK H PARENT
REMARK Flexibility Score: inf
ROOT
ATOM      1  C   UNL     1       5.603   1.837   1.326  1.00  0.00     0.080 C 
ENDROOT
BRANCH   1   2
ATOM      2  C   UNL     1       5.125   0.643   2.052  1.00  0.00     0.130 C 
ATOM      3  C   UNL     1       6.031  -0.511   2.217  1.00  0.00     0.087 C 
ATOM      4  O   UNL     1       4.003   0.635   2.496  1.00  0.00    -0.300 OA
ENDBRANCH   1   2
BRANCH   1   5
ATOM      5  C   UNL     1       5.419   1.680  -0.169  1.00  0.00     0.043 C 
BRANCH   5   6
ATOM      6  C   UNL     1       6.551   0.955  -0.754  1.00  0.00    -0.044 A 
ATOM      7  C   UNL     1       7.840   1.408  -0.568  1.00  0.00     0.008 A 
ATOM      8  C   UNL     1       6.375  -0.195  -1.504  1.00  0.00     0.054 A 
ATOM      9  C   UNL     1       8.942   0.749  -1.107  1.00  0.00     0.051 A 
ATOM     10  C   UNL     1       7.457  -0.876  -2.056  1.00  0.00     0.166 A 
ATOM     11  C   UNL     1       8.735  -0.397  -1.851  1.00  0.00     0.165 A 
ATOM     12  O   UNL     1       7.587  -2.026  -2.833  1.00  0.00    -0.454 OA
ATOM     13  O   UNL     1       9.615  -1.251  -2.500  1.00  0.00    -0.454 OA
ATOM     14  C   UNL     1       8.888  -2.132  -3.351  1.00  0.00     0.468 C 
ENDBRANCH   5   6
ENDBRANCH   1   5
TORSDOF 3
ENDMDL
MODEL 2
REMARK VINA RESULT:      -7.4      1.970      2.397
REMARK SMILES CC(=O)CCc1ccc2c(c1)OCO2
REMARK SMILES IDX 4 1 2 2 1 3 3 4 5 5 6 6 7 7 11 8 8 9 10 10 9 11 12 12 14 13
REMARK SMILES IDX 13 14
REMARK H PARENT
REMARK Flexibility Score: inf
ROOT
ATOM      1  C   UNL     1       5.685   1.161  -0.276  1.00  0.00     0.080 C 
ENDROOT
BRANCH   1   2
ATOM      2  C   UNL     1       5.145   1.172   1.099  1.00  0.00     0.130 C 
ATOM      3  C   UNL     1       5.340  -0.012   1.959  1.00  0.00     0.087 C 
ATOM      4  O   UNL     1       4.555   2.149   1.491  1.00  0.00    -0.300 OA
ENDBRANCH   1   2
BRANCH   1   5
ATOM      5  C   UNL     1       7.196   1.067  -0.271  1.00  0.00     0.043 C 
BRANCH   5   6
ATOM      6  C   UNL     1       7.633  -0.227  -0.802  1.00  0.00    -0.044 A 
ATOM      7  C   UNL     1       7.740  -0.421  -2.164  1.00  0.00     0.008 A 
ATOM      8  C   UNL     1       7.951  -1.289   0.026  1.00  0.00     0.054 A 
ATOM      9  C   UNL     1       8.150  -1.635  -2.708  1.00  0.00     0.051 A 
ATOM     10  C   UNL     1       8.365  -2.515  -0.489  1.00  0.00     0.166 A 
ATOM     11  C   UNL     1       8.461  -2.678  -1.856  1.00  0.00     0.165 A 
ATOM     12  O   UNL     1       8.740  -3.731   0.081  1.00  0.00    -0.454 OA
ATOM     13  O   UNL     1       8.889  -3.975  -2.097  1.00  0.00    -0.454 OA
ATOM     14  C   UNL     1       8.810  -4.738  -0.896  1.00  0.00     0.468 C 
ENDBRANCH   5   6
ENDBRANCH   1   5
TORSDOF 3
ENDMDL
MODEL 3
REMARK VINA RESULT:      -7.4      2.061      2.629
REMARK SMILES CC(=O)CCc1ccc2c(c1)OCO2
REMARK SMILES IDX 4 1 2 2 1 3 3 4 5 5 6 6 7 7 11 8 8 9 10 10 9 11 12 12 14 13
REMARK SMILES IDX 13 14
REMARK H PARENT
REMARK Flexibility Score: inf
ROOT
ATOM      1  C   UNL     1       5.377  -0.021   1.983  1.00  0.00     0.080 C 
ENDROOT
BRANCH   1   2
ATOM      2  C   UNL     1       4.530   1.168   1.763  1.00  0.00     0.130 C 
ATOM      3  C   UNL     1       4.903   2.134   0.710  1.00  0.00     0.087 C 
ATOM      4  O   UNL     1       3.550   1.326   2.448  1.00  0.00    -0.300 OA
ENDBRANCH   1   2
BRANCH   1   5
ATOM      5  C   UNL     1       6.816   0.250   1.595  1.00  0.00     0.043 C 
BRANCH   5   6
ATOM      6  C   UNL     1       7.272  -0.721   0.597  1.00  0.00    -0.044 A 
ATOM      7  C   UNL     1       7.099  -0.471  -0.749  1.00  0.00     0.008 A 
ATOM      8  C   UNL     1       7.884  -1.909   0.957  1.00  0.00     0.054 A 
ATOM      9  C   UNL     1       7.517  -1.368  -1.728  1.00  0.00     0.051 A 
ATOM     10  C   UNL     1       8.313  -2.825  -0.000  1.00  0.00     0.166 A 
ATOM     11  C   UNL     1       8.125  -2.546  -1.338  1.00  0.00     0.165 A 
ATOM     12  O   UNL     1       8.943  -4.068   0.059  1.00  0.00    -0.454 OA
ATOM     13  O   UNL     1       8.637  -3.609  -2.067  1.00  0.00    -0.454 OA
ATOM     14  C   UNL     1       8.912  -4.701  -1.194  1.00  0.00     0.468 C 
ENDBRANCH   5   6
ENDBRANCH   1   5
TORSDOF 3
ENDMDL
MODEL 4
REMARK VINA RESULT:      -7.1      1.216      1.370
REMARK SMILES CC(=O)CCc1ccc2c(c1)OCO2
REMARK SMILES IDX 4 1 2 2 1 3 3 4 5 5 6 6 7 7 11 8 8 9 10 10 9 11 12 12 14 13
REMARK SMILES IDX 13 14
REMARK H PARENT
REMARK Flexibility Score: inf
ROOT
ATOM      1  C   UNL     1       6.244   1.336   0.924  1.00  0.00     0.080 C 
ENDROOT
BRANCH   1   2
ATOM      2  C   UNL     1       5.577   0.501   1.944  1.00  0.00     0.130 C 
ATOM      3  C   UNL     1       6.294  -0.662   2.504  1.00  0.00     0.087 C 
ATOM      4  O   UNL     1       4.460   0.787   2.298  1.00  0.00    -0.300 OA
ENDBRANCH   1   2
BRANCH   1   5
ATOM      5  C   UNL     1       5.743   1.007  -0.467  1.00  0.00     0.043 C 
BRANCH   5   6
ATOM      6  C   UNL     1       6.702   0.151  -1.171  1.00  0.00    -0.044 A 
ATOM      7  C   UNL     1       7.374   0.622  -2.279  1.00  0.00     0.008 A 
ATOM      8  C   UNL     1       6.966  -1.144  -0.760  1.00  0.00     0.054 A 
ATOM      9  C   UNL     1       8.292  -0.159  -2.976  1.00  0.00     0.051 A 
ATOM     10  C   UNL     1       7.878  -1.950  -1.437  1.00  0.00     0.166 A 
ATOM     11  C   UNL     1       8.535  -1.449  -2.542  1.00  0.00     0.165 A 
ATOM     12  O   UNL     1       8.337  -3.255  -1.263  1.00  0.00    -0.454 OA
ATOM     13  O   UNL     1       9.375  -2.444  -3.020  1.00  0.00    -0.454 OA
ATOM     14  C   UNL     1       9.063  -3.681  -2.387  1.00  0.00     0.468 C 
ENDBRANCH   5   6
ENDBRANCH   1   5
TORSDOF 3
ENDMDL
MODEL 5
REMARK VINA RESULT:      -7.1      1.987      2.614
REMARK SMILES CC(=O)CCc1ccc2c(c1)OCO2
REMARK SMILES IDX 4 1 2 2 1 3 3 4 5 5 6 6 7 7 11 8 8 9 10 10 9 11 12 12 14 13
REMARK SMILES IDX 13 14
REMARK H PARENT
REMARK Flexibility Score: inf
ROOT
ATOM      1  C   UNL     1       6.707   0.545   0.965  1.00  0.00     0.080 C 
ENDROOT
BRANCH   1   2
ATOM      2  C   UNL     1       5.394   1.062   1.401  1.00  0.00     0.130 C 
ATOM      3  C   UNL     1       4.756   2.150   0.632  1.00  0.00     0.087 C 
ATOM      4  O   UNL     1       4.869   0.584   2.376  1.00  0.00    -0.300 OA
ENDBRANCH   1   2
BRANCH   1   5
ATOM      5  C   UNL     1       6.841   0.591  -0.543  1.00  0.00     0.043 C 
BRANCH   5   6
ATOM      6  C   UNL     1       7.463  -0.639  -1.043  1.00  0.00    -0.044 A 
ATOM      7  C   UNL     1       7.775  -0.768  -2.380  1.00  0.00     0.008 A 
ATOM      8  C   UNL     1       7.755  -1.703  -0.208  1.00  0.00     0.054 A 
ATOM      9  C   UNL     1       8.365  -1.919  -2.895  1.00  0.00     0.051 A 
ATOM     10  C   UNL     1       8.345  -2.867  -0.693  1.00  0.00     0.166 A 
ATOM     11  C   UNL     1       8.646  -2.965  -2.036  1.00  0.00     0.165 A 
ATOM     12  O   UNL     1       8.746  -4.069  -0.110  1.00  0.00    -0.454 OA
ATOM     13  O   UNL     1       9.218  -4.211  -2.251  1.00  0.00    -0.454 OA
ATOM     14  C   UNL     1       9.041  -5.026  -1.095  1.00  0.00     0.468 C 
ENDBRANCH   5   6
ENDBRANCH   1   5
TORSDOF 3
ENDMDL
