@<TRIPOS>MOLECULE
/home/cewinharhar/GITHUB/reincatalyze/data/processed/docking_pred/2023-May-31-1603_sub9_nm5_bs15_s42_ex16_mel10_mts1000_k50_ec05_g099_lra3e-4_lrc9e-3/93b19c8378935853b44d27bbf459025f9fc44a5e_ligand_9.pdbqt
 14 15 0 0 0
SMALL
GASTEIGER

@<TRIPOS>ATOM
      1  C          6.7070    0.5450    0.9650 C.3     1  UNL1        0.0800
      2  C          5.3940    1.0620    1.4010 C.2     1  UNL1        0.1300
      3  C          4.7560    2.1500    0.6320 C.3     1  UNL1        0.0870
      4  O          4.8690    0.5840    2.3760 O.2     1  UNL1       -0.3000
      5  C          6.8410    0.5910   -0.5430 C.3     1  UNL1        0.0430
      6  C          7.4630   -0.6390   -1.0430 C.2     1  UNL1       -0.0440
      7  C          7.7750   -0.7680   -2.3800 C.2     1  UNL1        0.0080
      8  C          7.7550   -1.7030   -0.2080 C.2     1  UNL1        0.0540
      9  C          8.3650   -1.9190   -2.8950 C.2     1  UNL1        0.0510
     10  C          8.3450   -2.8670   -0.6930 C.2     1  UNL1        0.1660
     11  C          8.6460   -2.9650   -2.0360 C.2     1  UNL1        0.1650
     12  O          8.7460   -4.0690   -0.1100 O.2     1  UNL1       -0.4540
     13  O          9.2180   -4.2110   -2.2510 O.2     1  UNL1       -0.4540
     14  C          9.0410   -5.0260   -1.0950 C.3     1  UNL1        0.4680
@<TRIPOS>BOND
     1     9     7    1
     2     9    11    2
     3     7     6    2
     4    13    11    1
     5    13    14    1
     6    11    10    1
     7    14    12    1
     8     6     5    1
     9     6     8    1
    10    10     8    2
    11    10    12    1
    12     5     1    1
    13     3     2    1
    14     1     2    1
    15     2     4    2
