@<TRIPOS>MOLECULE
/home/cewinharhar/GITHUB/reincatalyze/data/processed/docking_pred/2023-May-31-1603_sub9_nm5_bs15_s42_ex16_mel10_mts1000_k50_ec05_g099_lra3e-4_lrc9e-3/93b19c8378935853b44d27bbf459025f9fc44a5e_ligand_9.pdbqt
 14 15 0 0 0
SMALL
GASTEIGER

@<TRIPOS>ATOM
      1  C          5.6030    1.8370    1.3260 C.3     1  UNL1        0.0800
      2  C          5.1250    0.6430    2.0520 C.2     1  UNL1        0.1300
      3  C          6.0310   -0.5110    2.2170 C.3     1  UNL1        0.0870
      4  O          4.0030    0.6350    2.4960 O.2     1  UNL1       -0.3000
      5  C          5.4190    1.6800   -0.1690 C.3     1  UNL1        0.0430
      6  C          6.5510    0.9550   -0.7540 C.2     1  UNL1       -0.0440
      7  C          7.8400    1.4080   -0.5680 C.2     1  UNL1        0.0080
      8  C          6.3750   -0.1950   -1.5040 C.2     1  UNL1        0.0540
      9  C          8.9420    0.7490   -1.1070 C.2     1  UNL1        0.0510
     10  C          7.4570   -0.8760   -2.0560 C.2     1  UNL1        0.1660
     11  C          8.7350   -0.3970   -1.8510 C.2     1  UNL1        0.1650
     12  O          7.5870   -2.0260   -2.8330 O.2     1  UNL1       -0.4540
     13  O          9.6150   -1.2510   -2.5000 O.2     1  UNL1       -0.4540
     14  C          8.8880   -2.1320   -3.3510 C.3     1  UNL1        0.4680
@<TRIPOS>BOND
     1    14    12    1
     2    14    13    1
     3    12    10    1
     4    13    11    1
     5    10    11    2
     6    10     8    1
     7    11     9    1
     8     8     6    2
     9     9     7    2
    10     6     7    1
    11     6     5    1
    12     5     1    1
    13     1     2    1
    14     2     3    1
    15     2     4    2
