@<TRIPOS>MOLECULE
/home/cewinharhar/GITHUB/reincatalyze/data/processed/docking_pred/2023-May-31-1603_sub9_nm5_bs15_s42_ex16_mel10_mts1000_k50_ec05_g099_lra3e-4_lrc9e-3/93b19c8378935853b44d27bbf459025f9fc44a5e_ligand_9.pdbqt
 14 15 0 0 0
SMALL
GASTEIGER

@<TRIPOS>ATOM
      1  C          5.3770   -0.0210    1.9830 C.3     1  UNL1        0.0800
      2  C          4.5300    1.1680    1.7630 C.2     1  UNL1        0.1300
      3  C          4.9030    2.1340    0.7100 C.3     1  UNL1        0.0870
      4  O          3.5500    1.3260    2.4480 O.2     1  UNL1       -0.3000
      5  C          6.8160    0.2500    1.5950 C.3     1  UNL1        0.0430
      6  C          7.2720   -0.7210    0.5970 C.2     1  UNL1       -0.0440
      7  C          7.0990   -0.4710   -0.7490 C.2     1  UNL1        0.0080
      8  C          7.8840   -1.9090    0.9570 C.2     1  UNL1        0.0540
      9  C          7.5170   -1.3680   -1.7280 C.2     1  UNL1        0.0510
     10  C          8.3130   -2.8250   -0.0000 C.2     1  UNL1        0.1660
     11  C          8.1250   -2.5460   -1.3380 C.2     1  UNL1        0.1650
     12  O          8.9430   -4.0680    0.0590 O.2     1  UNL1       -0.4540
     13  O          8.6370   -3.6090   -2.0670 O.2     1  UNL1       -0.4540
     14  C          8.9120   -4.7010   -1.1940 C.3     1  UNL1        0.4680
@<TRIPOS>BOND
     1    13    11    1
     2    13    14    1
     3     9    11    2
     4     9     7    1
     5    11    10    1
     6    14    12    1
     7     7     6    2
     8    10    12    1
     9    10     8    2
    10     6     8    1
    11     6     5    1
    12     3     2    1
    13     5     1    1
    14     2     1    1
    15     2     4    2
