@<TRIPOS>MOLECULE
/home/cewinharhar/GITHUB/reincatalyze/data/processed/docking_pred/2023-May-31-1603_sub9_nm5_bs15_s42_ex16_mel10_mts1000_k50_ec05_g099_lra3e-4_lrc9e-3/93b19c8378935853b44d27bbf459025f9fc44a5e_ligand_9.pdbqt
 14 15 0 0 0
SMALL
GASTEIGER

@<TRIPOS>ATOM
      1  C          6.2440    1.3360    0.9240 C.3     1  UNL1        0.0800
      2  C          5.5770    0.5010    1.9440 C.2     1  UNL1        0.1300
      3  C          6.2940   -0.6620    2.5040 C.3     1  UNL1        0.0870
      4  O          4.4600    0.7870    2.2980 O.2     1  UNL1       -0.3000
      5  C          5.7430    1.0070   -0.4670 C.3     1  UNL1        0.0430
      6  C          6.7020    0.1510   -1.1710 C.2     1  UNL1       -0.0440
      7  C          7.3740    0.6220   -2.2790 C.2     1  UNL1        0.0080
      8  C          6.9660   -1.1440   -0.7600 C.2     1  UNL1        0.0540
      9  C          8.2920   -0.1590   -2.9760 C.2     1  UNL1        0.0510
     10  C          7.8780   -1.9500   -1.4370 C.2     1  UNL1        0.1660
     11  C          8.5350   -1.4490   -2.5420 C.2     1  UNL1        0.1650
     12  O          8.3370   -3.2550   -1.2630 O.2     1  UNL1       -0.4540
     13  O          9.3750   -2.4440   -3.0200 O.2     1  UNL1       -0.4540
     14  C          9.0630   -3.6810   -2.3870 C.3     1  UNL1        0.4680
@<TRIPOS>BOND
     1    13    11    1
     2    13    14    1
     3     9    11    2
     4     9     7    1
     5    11    10    1
     6    14    12    1
     7     7     6    2
     8    10    12    1
     9    10     8    2
    10     6     8    1
    11     6     5    1
    12     5     1    1
    13     1     2    1
    14     2     4    2
    15     2     3    1
