@<TRIPOS>MOLECULE
/home/cewinharhar/GITHUB/reincatalyze/data/processed/docking_pred/2023-May-31-1603_sub9_nm5_bs15_s42_ex16_mel10_mts1000_k50_ec05_g099_lra3e-4_lrc9e-3/9545d038953ad0bd3b50a81295f717fe73892d7b_ligand_9.pdbqt
 14 15 0 0 0
SMALL
GASTEIGER

@<TRIPOS>ATOM
      1  C          8.2590    0.2100   -2.5970 C.3     1  UNL1        0.0800
      2  C          7.9600   -1.2320   -2.7140 C.2     1  UNL1        0.1300
      3  C          9.0580   -2.1740   -3.0090 C.3     1  UNL1        0.0870
      4  O          6.8240   -1.6100   -2.5670 O.2     1  UNL1       -0.3000
      5  C          8.8150    0.5450   -1.2280 C.3     1  UNL1        0.0430
      6  C          7.7660    0.4530   -0.2090 C.2     1  UNL1       -0.0440
      7  C          7.7930   -0.5570    0.7300 C.2     1  UNL1        0.0080
      8  C          6.7220    1.3600   -0.1490 C.2     1  UNL1        0.0540
      9  C          6.8150   -0.6790    1.7130 C.2     1  UNL1        0.0510
     10  C          5.7300    1.2640    0.8230 C.2     1  UNL1        0.1660
     11  C          5.7850    0.2420    1.7480 C.2     1  UNL1        0.1650
     12  O          4.5900    2.0080    1.1250 O.2     1  UNL1       -0.4540
     13  O          4.6910    0.3750    2.5910 O.2     1  UNL1       -0.4540
     14  C          3.7790    1.3250    2.0450 C.3     1  UNL1        0.4680
@<TRIPOS>BOND
     1     3     2    1
     2     2     1    1
     3     2     4    2
     4     1     5    1
     5     5     6    1
     6     6     8    2
     7     6     7    1
     8     8    10    1
     9     7     9    2
    10    10    12    1
    11    10    11    2
    12    12    14    1
    13     9    11    1
    14    11    13    1
    15    14    13    1
