@<TRIPOS>MOLECULE
/home/cewinharhar/GITHUB/reincatalyze/data/processed/docking_pred/2023-May-31-1603_sub9_nm5_bs15_s42_ex16_mel10_mts1000_k50_ec05_g099_lra3e-4_lrc9e-3/9545d038953ad0bd3b50a81295f717fe73892d7b_ligand_9.pdbqt
 14 15 0 0 0
SMALL
GASTEIGER

@<TRIPOS>ATOM
      1  C          5.2830    0.0020    1.9850 C.3     1  UNL1        0.0800
      2  C          4.3850    1.1580    1.7970 C.2     1  UNL1        0.1300
      3  C          4.6950    2.1490    0.7470 C.3     1  UNL1        0.0870
      4  O          3.4150    1.2700    2.5050 O.2     1  UNL1       -0.3000
      5  C          6.7370    0.4240    1.9440 C.3     1  UNL1        0.0430
      6  C          7.3610    0.0050    0.6850 C.2     1  UNL1       -0.0440
      7  C          7.8850    0.9440   -0.1790 C.2     1  UNL1        0.0080
      8  C          7.4460   -1.3260    0.3180 C.2     1  UNL1        0.0540
      9  C          8.4840    0.5880   -1.3840 C.2     1  UNL1        0.0510
     10  C          8.0400   -1.7130   -0.8810 C.2     1  UNL1        0.1660
     11  C          8.5550   -0.7500   -1.7230 C.2     1  UNL1        0.1650
     12  O          8.2650   -2.9420   -1.5010 O.2     1  UNL1       -0.4540
     13  O          9.0810   -1.3970   -2.8330 O.2     1  UNL1       -0.4540
     14  C          8.6650   -2.7590   -2.8350 C.3     1  UNL1        0.4680
@<TRIPOS>BOND
     1    14    13    1
     2    14    12    1
     3    13    11    1
     4    11     9    2
     5    11    10    1
     6    12    10    1
     7     9     7    1
     8    10     8    2
     9     7     6    2
    10     8     6    1
    11     6     5    1
    12     3     2    1
    13     2     1    1
    14     2     4    2
    15     5     1    1
