@<TRIPOS>MOLECULE
/home/cewinharhar/GITHUB/reincatalyze/data/processed/docking_pred/2023-May-31-1603_sub9_nm5_bs15_s42_ex16_mel10_mts1000_k50_ec05_g099_lra3e-4_lrc9e-3/9545d038953ad0bd3b50a81295f717fe73892d7b_ligand_9.pdbqt
 14 15 0 0 0
SMALL
GASTEIGER

@<TRIPOS>ATOM
      1  C          5.3680   -0.0310    1.9570 C.3     1  UNL1        0.0800
      2  C          4.5340    1.1720    1.7590 C.2     1  UNL1        0.1300
      3  C          4.9090    2.1430    0.7110 C.3     1  UNL1        0.0870
      4  O          3.5650    1.3360    2.4570 O.2     1  UNL1       -0.3000
      5  C          6.8120    0.2340    1.5840 C.3     1  UNL1        0.0430
      6  C          7.2730   -0.7360    0.5870 C.2     1  UNL1       -0.0440
      7  C          7.1050   -0.4840   -0.7590 C.2     1  UNL1        0.0080
      8  C          7.8830   -1.9240    0.9480 C.2     1  UNL1        0.0540
      9  C          7.5280   -1.3790   -1.7380 C.2     1  UNL1        0.0510
     10  C          8.3160   -2.8390   -0.0080 C.2     1  UNL1        0.1660
     11  C          8.1350   -2.5580   -1.3460 C.2     1  UNL1        0.1650
     12  O          8.9460   -4.0820    0.0520 O.2     1  UNL1       -0.4540
     13  O          8.6490   -3.6210   -2.0750 O.2     1  UNL1       -0.4540
     14  C          8.9200   -4.7140   -1.2020 C.3     1  UNL1        0.4680
@<TRIPOS>BOND
     1    13    11    1
     2    13    14    1
     3     9    11    2
     4     9     7    1
     5    11    10    1
     6    14    12    1
     7     7     6    2
     8    10    12    1
     9    10     8    2
    10     6     8    1
    11     6     5    1
    12     3     2    1
    13     5     1    1
    14     2     1    1
    15     2     4    2
