MODEL 1
REMARK VINA RESULT:      -7.6      0.000      0.000
REMARK SMILES CC(=O)CCc1ccc2c(c1)OCO2
REMARK SMILES IDX 4 1 2 2 1 3 3 4 5 5 6 6 7 7 11 8 8 9 10 10 9 11 12 12 14 13
REMARK SMILES IDX 13 14
REMARK H PARENT
REMARK Flexibility Score: inf
ROOT
ATOM      1  C   UNL     1       5.594   1.832   1.335  1.00  0.00     0.080 C 
ENDROOT
BRANCH   1   2
ATOM      2  C   UNL     1       5.108   0.634   2.049  1.00  0.00     0.130 C 
ATOM      3  C   UNL     1       6.015  -0.519   2.222  1.00  0.00     0.087 C 
ATOM      4  O   UNL     1       3.981   0.622   2.477  1.00  0.00    -0.300 OA
ENDBRANCH   1   2
BRANCH   1   5
ATOM      5  C   UNL     1       5.412   1.689  -0.162  1.00  0.00     0.043 C 
BRANCH   5   6
ATOM      6  C   UNL     1       6.541   0.964  -0.752  1.00  0.00    -0.044 A 
ATOM      7  C   UNL     1       7.829   1.430  -0.590  1.00  0.00     0.008 A 
ATOM      8  C   UNL     1       6.364  -0.198  -1.482  1.00  0.00     0.054 A 
ATOM      9  C   UNL     1       8.928   0.771  -1.134  1.00  0.00     0.051 A 
ATOM     10  C   UNL     1       7.444  -0.880  -2.038  1.00  0.00     0.166 A 
ATOM     11  C   UNL     1       8.720  -0.388  -1.859  1.00  0.00     0.165 A 
ATOM     12  O   UNL     1       7.571  -2.040  -2.800  1.00  0.00    -0.454 OA
ATOM     13  O   UNL     1       9.598  -1.245  -2.507  1.00  0.00    -0.454 OA
ATOM     14  C   UNL     1       8.866  -2.144  -3.335  1.00  0.00     0.468 C 
ENDBRANCH   5   6
ENDBRANCH   1   5
TORSDOF 3
ENDMDL
MODEL 2
REMARK VINA RESULT:      -7.3      2.060      2.628
REMARK SMILES CC(=O)CCc1ccc2c(c1)OCO2
REMARK SMILES IDX 4 1 2 2 1 3 3 4 5 5 6 6 7 7 11 8 8 9 10 10 9 11 12 12 14 13
REMARK SMILES IDX 13 14
REMARK H PARENT
REMARK Flexibility Score: inf
ROOT
ATOM      1  C   UNL     1       5.368  -0.031   1.957  1.00  0.00     0.080 C 
ENDROOT
BRANCH   1   2
ATOM      2  C   UNL     1       4.534   1.172   1.759  1.00  0.00     0.130 C 
ATOM      3  C   UNL     1       4.909   2.143   0.711  1.00  0.00     0.087 C 
ATOM      4  O   UNL     1       3.565   1.336   2.457  1.00  0.00    -0.300 OA
ENDBRANCH   1   2
BRANCH   1   5
ATOM      5  C   UNL     1       6.812   0.234   1.584  1.00  0.00     0.043 C 
BRANCH   5   6
ATOM      6  C   UNL     1       7.273  -0.736   0.587  1.00  0.00    -0.044 A 
ATOM      7  C   UNL     1       7.105  -0.484  -0.759  1.00  0.00     0.008 A 
ATOM      8  C   UNL     1       7.883  -1.924   0.948  1.00  0.00     0.054 A 
ATOM      9  C   UNL     1       7.528  -1.379  -1.738  1.00  0.00     0.051 A 
ATOM     10  C   UNL     1       8.316  -2.839  -0.008  1.00  0.00     0.166 A 
ATOM     11  C   UNL     1       8.135  -2.558  -1.346  1.00  0.00     0.165 A 
ATOM     12  O   UNL     1       8.946  -4.082   0.052  1.00  0.00    -0.454 OA
ATOM     13  O   UNL     1       8.649  -3.621  -2.075  1.00  0.00    -0.454 OA
ATOM     14  C   UNL     1       8.920  -4.714  -1.202  1.00  0.00     0.468 C 
ENDBRANCH   5   6
ENDBRANCH   1   5
TORSDOF 3
ENDMDL
MODEL 3
REMARK VINA RESULT:      -7.2      1.629      2.077
REMARK SMILES CC(=O)CCc1ccc2c(c1)OCO2
REMARK SMILES IDX 4 1 2 2 1 3 3 4 5 5 6 6 7 7 11 8 8 9 10 10 9 11 12 12 14 13
REMARK SMILES IDX 13 14
REMARK H PARENT
REMARK Flexibility Score: inf
ROOT
ATOM      1  C   UNL     1       6.537   1.454   0.237  1.00  0.00     0.080 C 
ENDROOT
BRANCH   1   2
ATOM      2  C   UNL     1       5.430   1.281   1.198  1.00  0.00     0.130 C 
ATOM      3  C   UNL     1       5.366   0.048   2.009  1.00  0.00     0.087 C 
ATOM      4  O   UNL     1       4.600   2.150   1.302  1.00  0.00    -0.300 OA
ENDBRANCH   1   2
BRANCH   1   5
ATOM      5  C   UNL     1       6.149   0.964  -1.143  1.00  0.00     0.043 C 
BRANCH   5   6
ATOM      6  C   UNL     1       6.991  -0.167  -1.543  1.00  0.00    -0.044 A 
ATOM      7  C   UNL     1       7.567  -0.197  -2.796  1.00  0.00     0.008 A 
ATOM      8  C   UNL     1       7.237  -1.233  -0.696  1.00  0.00     0.054 A 
ATOM      9  C   UNL     1       8.372  -1.252  -3.216  1.00  0.00     0.051 A 
ATOM     10  C   UNL     1       8.039  -2.303  -1.088  1.00  0.00     0.166 A 
ATOM     11  C   UNL     1       8.601  -2.303  -2.348  1.00  0.00     0.165 A 
ATOM     12  O   UNL     1       8.454  -3.482  -0.470  1.00  0.00    -0.454 OA
ATOM     13  O   UNL     1       9.342  -3.468  -2.479  1.00  0.00    -0.454 OA
ATOM     14  C   UNL     1       9.040  -4.352  -1.403  1.00  0.00     0.468 C 
ENDBRANCH   5   6
ENDBRANCH   1   5
TORSDOF 3
ENDMDL
MODEL 4
REMARK VINA RESULT:      -7.0      1.209      5.183
REMARK SMILES CC(=O)CCc1ccc2c(c1)OCO2
REMARK SMILES IDX 4 1 2 2 1 3 3 4 5 5 6 6 7 7 11 8 8 9 10 10 9 11 12 12 14 13
REMARK SMILES IDX 13 14
REMARK H PARENT
REMARK Flexibility Score: inf
ROOT
ATOM      1  C   UNL     1       8.259   0.210  -2.597  1.00  0.00     0.080 C 
ENDROOT
BRANCH   1   2
ATOM      2  C   UNL     1       7.960  -1.232  -2.714  1.00  0.00     0.130 C 
ATOM      3  C   UNL     1       9.058  -2.174  -3.009  1.00  0.00     0.087 C 
ATOM      4  O   UNL     1       6.824  -1.610  -2.567  1.00  0.00    -0.300 OA
ENDBRANCH   1   2
BRANCH   1   5
ATOM      5  C   UNL     1       8.815   0.545  -1.228  1.00  0.00     0.043 C 
BRANCH   5   6
ATOM      6  C   UNL     1       7.766   0.453  -0.209  1.00  0.00    -0.044 A 
ATOM      7  C   UNL     1       7.793  -0.557   0.730  1.00  0.00     0.008 A 
ATOM      8  C   UNL     1       6.722   1.360  -0.149  1.00  0.00     0.054 A 
ATOM      9  C   UNL     1       6.815  -0.679   1.713  1.00  0.00     0.051 A 
ATOM     10  C   UNL     1       5.730   1.264   0.823  1.00  0.00     0.166 A 
ATOM     11  C   UNL     1       5.785   0.242   1.748  1.00  0.00     0.165 A 
ATOM     12  O   UNL     1       4.590   2.008   1.125  1.00  0.00    -0.454 OA
ATOM     13  O   UNL     1       4.691   0.375   2.591  1.00  0.00    -0.454 OA
ATOM     14  C   UNL     1       3.779   1.325   2.045  1.00  0.00     0.468 C 
ENDBRANCH   5   6
ENDBRANCH   1   5
TORSDOF 3
ENDMDL
MODEL 5
REMARK VINA RESULT:      -6.8      1.237      1.710
REMARK SMILES CC(=O)CCc1ccc2c(c1)OCO2
REMARK SMILES IDX 4 1 2 2 1 3 3 4 5 5 6 6 7 7 11 8 8 9 10 10 9 11 12 12 14 13
REMARK SMILES IDX 13 14
REMARK H PARENT
REMARK Flexibility Score: inf
ROOT
ATOM      1  C   UNL     1       5.283   0.002   1.985  1.00  0.00     0.080 C 
ENDROOT
BRANCH   1   2
ATOM      2  C   UNL     1       4.385   1.158   1.797  1.00  0.00     0.130 C 
ATOM      3  C   UNL     1       4.695   2.149   0.747  1.00  0.00     0.087 C 
ATOM      4  O   UNL     1       3.415   1.270   2.505  1.00  0.00    -0.300 OA
ENDBRANCH   1   2
BRANCH   1   5
ATOM      5  C   UNL     1       6.737   0.424   1.944  1.00  0.00     0.043 C 
BRANCH   5   6
ATOM      6  C   UNL     1       7.361   0.005   0.685  1.00  0.00    -0.044 A 
ATOM      7  C   UNL     1       7.885   0.944  -0.179  1.00  0.00     0.008 A 
ATOM      8  C   UNL     1       7.446  -1.326   0.318  1.00  0.00     0.054 A 
ATOM      9  C   UNL     1       8.484   0.588  -1.384  1.00  0.00     0.051 A 
ATOM     10  C   UNL     1       8.040  -1.713  -0.881  1.00  0.00     0.166 A 
ATOM     11  C   UNL     1       8.555  -0.750  -1.723  1.00  0.00     0.165 A 
ATOM     12  O   UNL     1       8.265  -2.942  -1.501  1.00  0.00    -0.454 OA
ATOM     13  O   UNL     1       9.081  -1.397  -2.833  1.00  0.00    -0.454 OA
ATOM     14  C   UNL     1       8.665  -2.759  -2.835  1.00  0.00     0.468 C 
ENDBRANCH   5   6
ENDBRANCH   1   5
TORSDOF 3
ENDMDL
