MODEL 1
REMARK VINA RESULT:      -7.5      0.000      0.000
REMARK SMILES CC(=O)CCc1ccc2c(c1)OCO2
REMARK SMILES IDX 4 1 2 2 1 3 3 4 5 5 6 6 7 7 11 8 8 9 10 10 9 11 12 12 14 13
REMARK SMILES IDX 13 14
REMARK H PARENT
REMARK Flexibility Score: inf
ROOT
ATOM      1  C   UNL     1       5.610   1.816   1.343  1.00  0.00     0.080 C 
ENDROOT
BRANCH   1   2
ATOM      2  C   UNL     1       5.125   0.624   2.067  1.00  0.00     0.130 C 
ATOM      3  C   UNL     1       6.032  -0.525   2.254  1.00  0.00     0.087 C 
ATOM      4  O   UNL     1       3.996   0.615   2.492  1.00  0.00    -0.300 OA
ENDBRANCH   1   2
BRANCH   1   5
ATOM      5  C   UNL     1       5.423   1.663  -0.152  1.00  0.00     0.043 C 
BRANCH   5   6
ATOM      6  C   UNL     1       6.555   0.943  -0.743  1.00  0.00    -0.044 A 
ATOM      7  C   UNL     1       7.842   1.408  -0.569  1.00  0.00     0.008 A 
ATOM      8  C   UNL     1       6.382  -0.211  -1.486  1.00  0.00     0.054 A 
ATOM      9  C   UNL     1       8.944   0.754  -1.113  1.00  0.00     0.051 A 
ATOM     10  C   UNL     1       7.465  -0.887  -2.043  1.00  0.00     0.166 A 
ATOM     11  C   UNL     1       8.740  -0.397  -1.851  1.00  0.00     0.165 A 
ATOM     12  O   UNL     1       7.596  -2.040  -2.816  1.00  0.00    -0.454 OA
ATOM     13  O   UNL     1       9.621  -1.248  -2.503  1.00  0.00    -0.454 OA
ATOM     14  C   UNL     1       8.894  -2.139  -3.344  1.00  0.00     0.468 C 
ENDBRANCH   5   6
ENDBRANCH   1   5
TORSDOF 3
ENDMDL
MODEL 2
REMARK VINA RESULT:      -7.3      2.064      2.635
REMARK SMILES CC(=O)CCc1ccc2c(c1)OCO2
REMARK SMILES IDX 4 1 2 2 1 3 3 4 5 5 6 6 7 7 11 8 8 9 10 10 9 11 12 12 14 13
REMARK SMILES IDX 13 14
REMARK H PARENT
REMARK Flexibility Score: inf
ROOT
ATOM      1  C   UNL     1       5.361  -0.044   1.974  1.00  0.00     0.080 C 
ENDROOT
BRANCH   1   2
ATOM      2  C   UNL     1       4.536   1.162   1.759  1.00  0.00     0.130 C 
ATOM      3  C   UNL     1       4.922   2.121   0.704  1.00  0.00     0.087 C 
ATOM      4  O   UNL     1       3.564   1.340   2.451  1.00  0.00    -0.300 OA
ENDBRANCH   1   2
BRANCH   1   5
ATOM      5  C   UNL     1       6.811   0.213   1.619  1.00  0.00     0.043 C 
BRANCH   5   6
ATOM      6  C   UNL     1       7.273  -0.750   0.615  1.00  0.00    -0.044 A 
ATOM      7  C   UNL     1       7.097  -0.494  -0.729  1.00  0.00     0.008 A 
ATOM      8  C   UNL     1       7.893  -1.936   0.969  1.00  0.00     0.054 A 
ATOM      9  C   UNL     1       7.521  -1.383  -1.713  1.00  0.00     0.051 A 
ATOM     10  C   UNL     1       8.328  -2.844   0.007  1.00  0.00     0.166 A 
ATOM     11  C   UNL     1       8.137  -2.559  -1.329  1.00  0.00     0.165 A 
ATOM     12  O   UNL     1       8.966  -4.083   0.059  1.00  0.00    -0.454 OA
ATOM     13  O   UNL     1       8.655  -3.616  -2.065  1.00  0.00    -0.454 OA
ATOM     14  C   UNL     1       8.938  -4.710  -1.197  1.00  0.00     0.468 C 
ENDBRANCH   5   6
ENDBRANCH   1   5
TORSDOF 3
ENDMDL
MODEL 3
REMARK VINA RESULT:      -7.3      1.866      2.304
REMARK SMILES CC(=O)CCc1ccc2c(c1)OCO2
REMARK SMILES IDX 4 1 2 2 1 3 3 4 5 5 6 6 7 7 11 8 8 9 10 10 9 11 12 12 14 13
REMARK SMILES IDX 13 14
REMARK H PARENT
REMARK Flexibility Score: inf
ROOT
ATOM      1  C   UNL     1       5.619   1.301  -0.191  1.00  0.00     0.080 C 
ENDROOT
BRANCH   1   2
ATOM      2  C   UNL     1       5.067   1.200   1.175  1.00  0.00     0.130 C 
ATOM      3  C   UNL     1       5.460   0.060   2.028  1.00  0.00     0.087 C 
ATOM      4  O   UNL     1       4.307   2.050   1.566  1.00  0.00    -0.300 OA
ENDBRANCH   1   2
BRANCH   1   5
ATOM      5  C   UNL     1       7.127   1.160  -0.186  1.00  0.00     0.043 C 
BRANCH   5   6
ATOM      6  C   UNL     1       7.526  -0.125  -0.767  1.00  0.00    -0.044 A 
ATOM      7  C   UNL     1       7.447  -0.328  -2.129  1.00  0.00     0.008 A 
ATOM      8  C   UNL     1       7.989  -1.170   0.014  1.00  0.00     0.054 A 
ATOM      9  C   UNL     1       7.815  -1.534  -2.720  1.00  0.00     0.051 A 
ATOM     10  C   UNL     1       8.364  -2.388  -0.549  1.00  0.00     0.166 A 
ATOM     11  C   UNL     1       8.274  -2.559  -1.915  1.00  0.00     0.165 A 
ATOM     12  O   UNL     1       8.854  -3.587  -0.032  1.00  0.00    -0.454 OA
ATOM     13  O   UNL     1       8.704  -3.845  -2.209  1.00  0.00    -0.454 OA
ATOM     14  C   UNL     1       8.817  -4.599  -1.005  1.00  0.00     0.468 C 
ENDBRANCH   5   6
ENDBRANCH   1   5
TORSDOF 3
ENDMDL
MODEL 4
REMARK VINA RESULT:      -7.0      1.959      2.516
REMARK SMILES CC(=O)CCc1ccc2c(c1)OCO2
REMARK SMILES IDX 4 1 2 2 1 3 3 4 5 5 6 6 7 7 11 8 8 9 10 10 9 11 12 12 14 13
REMARK SMILES IDX 13 14
REMARK H PARENT
REMARK Flexibility Score: inf
ROOT
ATOM      1  C   UNL     1       6.881   0.991   1.088  1.00  0.00     0.080 C 
ENDROOT
BRANCH   1   2
ATOM      2  C   UNL     1       5.445   1.159   1.388  1.00  0.00     0.130 C 
ATOM      3  C   UNL     1       4.661   2.150   0.623  1.00  0.00     0.087 C 
ATOM      4  O   UNL     1       4.942   0.484   2.251  1.00  0.00    -0.300 OA
ENDBRANCH   1   2
BRANCH   1   5
ATOM      5  C   UNL     1       7.141   1.045  -0.403  1.00  0.00     0.043 C 
BRANCH   5   6
ATOM      6  C   UNL     1       7.604  -0.257  -0.892  1.00  0.00    -0.044 A 
ATOM      7  C   UNL     1       7.738  -0.485  -2.246  1.00  0.00     0.008 A 
ATOM      8  C   UNL     1       7.920  -1.293  -0.030  1.00  0.00     0.054 A 
ATOM      9  C   UNL     1       8.174  -1.707  -2.751  1.00  0.00     0.051 A 
ATOM     10  C   UNL     1       8.358  -2.527  -0.506  1.00  0.00     0.166 A 
ATOM     11  C   UNL     1       8.482  -2.723  -1.866  1.00  0.00     0.165 A 
ATOM     12  O   UNL     1       8.739  -3.722   0.102  1.00  0.00    -0.454 OA
ATOM     13  O   UNL     1       8.930  -4.021  -2.066  1.00  0.00    -0.454 OA
ATOM     14  C   UNL     1       8.839  -4.753  -0.847  1.00  0.00     0.468 C 
ENDBRANCH   5   6
ENDBRANCH   1   5
TORSDOF 3
ENDMDL
MODEL 5
REMARK VINA RESULT:      -6.9      1.215      5.177
REMARK SMILES CC(=O)CCc1ccc2c(c1)OCO2
REMARK SMILES IDX 4 1 2 2 1 3 3 4 5 5 6 6 7 7 11 8 8 9 10 10 9 11 12 12 14 13
REMARK SMILES IDX 13 14
REMARK H PARENT
REMARK Flexibility Score: inf
ROOT
ATOM      1  C   UNL     1       8.275   0.183  -2.659  1.00  0.00     0.080 C 
ENDROOT
BRANCH   1   2
ATOM      2  C   UNL     1       7.974  -1.260  -2.746  1.00  0.00     0.130 C 
ATOM      3  C   UNL     1       9.075  -2.212  -2.997  1.00  0.00     0.087 C 
ATOM      4  O   UNL     1       6.834  -1.632  -2.611  1.00  0.00    -0.300 OA
ENDBRANCH   1   2
BRANCH   1   5
ATOM      5  C   UNL     1       8.839   0.545  -1.301  1.00  0.00     0.043 C 
BRANCH   5   6
ATOM      6  C   UNL     1       7.801   0.452  -0.271  1.00  0.00    -0.044 A 
ATOM      7  C   UNL     1       7.837  -0.562   0.665  1.00  0.00     0.008 A 
ATOM      8  C   UNL     1       6.760   1.360  -0.196  1.00  0.00     0.054 A 
ATOM      9  C   UNL     1       6.870  -0.686   1.659  1.00  0.00     0.051 A 
ATOM     10  C   UNL     1       5.778   1.261   0.788  1.00  0.00     0.166 A 
ATOM     11  C   UNL     1       5.842   0.236   1.708  1.00  0.00     0.165 A 
ATOM     12  O   UNL     1       4.643   2.007   1.104  1.00  0.00    -0.454 OA
ATOM     13  O   UNL     1       4.758   0.369   2.564  1.00  0.00    -0.454 OA
ATOM     14  C   UNL     1       3.841   1.321   2.032  1.00  0.00     0.468 C 
ENDBRANCH   5   6
ENDBRANCH   1   5
TORSDOF 3
ENDMDL
