@<TRIPOS>MOLECULE
/home/cewinharhar/GITHUB/reincatalyze/data/processed/docking_pred/2023-May-31-1603_sub9_nm5_bs15_s42_ex16_mel10_mts1000_k50_ec05_g099_lra3e-4_lrc9e-3/955e59fc22a1e87e2ab10a68f3a5c98643a236a4_ligand_9.pdbqt
 14 15 0 0 0
SMALL
GASTEIGER

@<TRIPOS>ATOM
      1  C          5.6100    1.8160    1.3430 C.3     1  UNL1        0.0800
      2  C          5.1250    0.6240    2.0670 C.2     1  UNL1        0.1300
      3  C          6.0320   -0.5250    2.2540 C.3     1  UNL1        0.0870
      4  O          3.9960    0.6150    2.4920 O.2     1  UNL1       -0.3000
      5  C          5.4230    1.6630   -0.1520 C.3     1  UNL1        0.0430
      6  C          6.5550    0.9430   -0.7430 C.2     1  UNL1       -0.0440
      7  C          7.8420    1.4080   -0.5690 C.2     1  UNL1        0.0080
      8  C          6.3820   -0.2110   -1.4860 C.2     1  UNL1        0.0540
      9  C          8.9440    0.7540   -1.1130 C.2     1  UNL1        0.0510
     10  C          7.4650   -0.8870   -2.0430 C.2     1  UNL1        0.1660
     11  C          8.7400   -0.3970   -1.8510 C.2     1  UNL1        0.1650
     12  O          7.5960   -2.0400   -2.8160 O.2     1  UNL1       -0.4540
     13  O          9.6210   -1.2480   -2.5030 O.2     1  UNL1       -0.4540
     14  C          8.8940   -2.1390   -3.3440 C.3     1  UNL1        0.4680
@<TRIPOS>BOND
     1    14    12    1
     2    14    13    1
     3    12    10    1
     4    13    11    1
     5    10    11    2
     6    10     8    1
     7    11     9    1
     8     8     6    2
     9     9     7    2
    10     6     7    1
    11     6     5    1
    12     5     1    1
    13     1     2    1
    14     2     3    1
    15     2     4    2
