@<TRIPOS>MOLECULE
/home/cewinharhar/GITHUB/reincatalyze/data/processed/docking_pred/2023-May-31-1603_sub9_nm5_bs15_s42_ex16_mel10_mts1000_k50_ec05_g099_lra3e-4_lrc9e-3/955e59fc22a1e87e2ab10a68f3a5c98643a236a4_ligand_9.pdbqt
 14 15 0 0 0
SMALL
GASTEIGER

@<TRIPOS>ATOM
      1  C          6.8810    0.9910    1.0880 C.3     1  UNL1        0.0800
      2  C          5.4450    1.1590    1.3880 C.2     1  UNL1        0.1300
      3  C          4.6610    2.1500    0.6230 C.3     1  UNL1        0.0870
      4  O          4.9420    0.4840    2.2510 O.2     1  UNL1       -0.3000
      5  C          7.1410    1.0450   -0.4030 C.3     1  UNL1        0.0430
      6  C          7.6040   -0.2570   -0.8920 C.2     1  UNL1       -0.0440
      7  C          7.7380   -0.4850   -2.2460 C.2     1  UNL1        0.0080
      8  C          7.9200   -1.2930   -0.0300 C.2     1  UNL1        0.0540
      9  C          8.1740   -1.7070   -2.7510 C.2     1  UNL1        0.0510
     10  C          8.3580   -2.5270   -0.5060 C.2     1  UNL1        0.1660
     11  C          8.4820   -2.7230   -1.8660 C.2     1  UNL1        0.1650
     12  O          8.7390   -3.7220    0.1020 O.2     1  UNL1       -0.4540
     13  O          8.9300   -4.0210   -2.0660 O.2     1  UNL1       -0.4540
     14  C          8.8390   -4.7530   -0.8470 C.3     1  UNL1        0.4680
@<TRIPOS>BOND
     1     9     7    1
     2     9    11    2
     3     7     6    2
     4    13    11    1
     5    13    14    1
     6    11    10    1
     7     6     5    1
     8     6     8    1
     9    14    12    1
    10    10     8    2
    11    10    12    1
    12     5     1    1
    13     3     2    1
    14     1     2    1
    15     2     4    2
