@<TRIPOS>MOLECULE
/home/cewinharhar/GITHUB/reincatalyze/data/processed/docking_pred/2023-May-31-1603_sub9_nm5_bs15_s42_ex16_mel10_mts1000_k50_ec05_g099_lra3e-4_lrc9e-3/955e59fc22a1e87e2ab10a68f3a5c98643a236a4_ligand_9.pdbqt
 14 15 0 0 0
SMALL
GASTEIGER

@<TRIPOS>ATOM
      1  C          5.6190    1.3010   -0.1910 C.3     1  UNL1        0.0800
      2  C          5.0670    1.2000    1.1750 C.2     1  UNL1        0.1300
      3  C          5.4600    0.0600    2.0280 C.3     1  UNL1        0.0870
      4  O          4.3070    2.0500    1.5660 O.2     1  UNL1       -0.3000
      5  C          7.1270    1.1600   -0.1860 C.3     1  UNL1        0.0430
      6  C          7.5260   -0.1250   -0.7670 C.2     1  UNL1       -0.0440
      7  C          7.4470   -0.3280   -2.1290 C.2     1  UNL1        0.0080
      8  C          7.9890   -1.1700    0.0140 C.2     1  UNL1        0.0540
      9  C          7.8150   -1.5340   -2.7200 C.2     1  UNL1        0.0510
     10  C          8.3640   -2.3880   -0.5490 C.2     1  UNL1        0.1660
     11  C          8.2740   -2.5590   -1.9150 C.2     1  UNL1        0.1650
     12  O          8.8540   -3.5870   -0.0320 O.2     1  UNL1       -0.4540
     13  O          8.7040   -3.8450   -2.2090 O.2     1  UNL1       -0.4540
     14  C          8.8170   -4.5990   -1.0050 C.3     1  UNL1        0.4680
@<TRIPOS>BOND
     1     9     7    1
     2     9    11    2
     3    13    11    1
     4    13    14    1
     5     7     6    2
     6    11    10    1
     7    14    12    1
     8     6     5    1
     9     6     8    1
    10    10    12    1
    11    10     8    2
    12     1     5    1
    13     1     2    1
    14     2     4    2
    15     2     3    1
