@<TRIPOS>MOLECULE
/home/cewinharhar/GITHUB/reincatalyze/data/processed/docking_pred/2023-May-31-1603_sub9_nm5_bs15_s42_ex16_mel10_mts1000_k50_ec05_g099_lra3e-4_lrc9e-3/955e59fc22a1e87e2ab10a68f3a5c98643a236a4_ligand_9.pdbqt
 14 15 0 0 0
SMALL
GASTEIGER

@<TRIPOS>ATOM
      1  C          8.2750    0.1830   -2.6590 C.3     1  UNL1        0.0800
      2  C          7.9740   -1.2600   -2.7460 C.2     1  UNL1        0.1300
      3  C          9.0750   -2.2120   -2.9970 C.3     1  UNL1        0.0870
      4  O          6.8340   -1.6320   -2.6110 O.2     1  UNL1       -0.3000
      5  C          8.8390    0.5450   -1.3010 C.3     1  UNL1        0.0430
      6  C          7.8010    0.4520   -0.2710 C.2     1  UNL1       -0.0440
      7  C          7.8370   -0.5620    0.6650 C.2     1  UNL1        0.0080
      8  C          6.7600    1.3600   -0.1960 C.2     1  UNL1        0.0540
      9  C          6.8700   -0.6860    1.6590 C.2     1  UNL1        0.0510
     10  C          5.7780    1.2610    0.7880 C.2     1  UNL1        0.1660
     11  C          5.8420    0.2360    1.7080 C.2     1  UNL1        0.1650
     12  O          4.6430    2.0070    1.1040 O.2     1  UNL1       -0.4540
     13  O          4.7580    0.3690    2.5640 O.2     1  UNL1       -0.4540
     14  C          3.8410    1.3210    2.0320 C.3     1  UNL1        0.4680
@<TRIPOS>BOND
     1     3     2    1
     2     2     1    1
     3     2     4    2
     4     1     5    1
     5     5     6    1
     6     6     8    2
     7     6     7    1
     8     8    10    1
     9     7     9    2
    10    10    12    1
    11    10    11    2
    12    12    14    1
    13     9    11    1
    14    11    13    1
    15    14    13    1
