@<TRIPOS>MOLECULE
/home/cewinharhar/GITHUB/reincatalyze/data/processed/docking_pred/2023-May-31-1603_sub9_nm5_bs15_s42_ex16_mel10_mts1000_k50_ec05_g099_lra3e-4_lrc9e-3/955e59fc22a1e87e2ab10a68f3a5c98643a236a4_ligand_9.pdbqt
 14 15 0 0 0
SMALL
GASTEIGER

@<TRIPOS>ATOM
      1  C          5.3610   -0.0440    1.9740 C.3     1  UNL1        0.0800
      2  C          4.5360    1.1620    1.7590 C.2     1  UNL1        0.1300
      3  C          4.9220    2.1210    0.7040 C.3     1  UNL1        0.0870
      4  O          3.5640    1.3400    2.4510 O.2     1  UNL1       -0.3000
      5  C          6.8110    0.2130    1.6190 C.3     1  UNL1        0.0430
      6  C          7.2730   -0.7500    0.6150 C.2     1  UNL1       -0.0440
      7  C          7.0970   -0.4940   -0.7290 C.2     1  UNL1        0.0080
      8  C          7.8930   -1.9360    0.9690 C.2     1  UNL1        0.0540
      9  C          7.5210   -1.3830   -1.7130 C.2     1  UNL1        0.0510
     10  C          8.3280   -2.8440    0.0070 C.2     1  UNL1        0.1660
     11  C          8.1370   -2.5590   -1.3290 C.2     1  UNL1        0.1650
     12  O          8.9660   -4.0830    0.0590 O.2     1  UNL1       -0.4540
     13  O          8.6550   -3.6160   -2.0650 O.2     1  UNL1       -0.4540
     14  C          8.9380   -4.7100   -1.1970 C.3     1  UNL1        0.4680
@<TRIPOS>BOND
     1    13    11    1
     2    13    14    1
     3     9    11    2
     4     9     7    1
     5    11    10    1
     6    14    12    1
     7     7     6    2
     8    10    12    1
     9    10     8    2
    10     6     8    1
    11     6     5    1
    12     3     2    1
    13     5     1    1
    14     2     1    1
    15     2     4    2
