@<TRIPOS>MOLECULE
/home/cewinharhar/GITHUB/reincatalyze/data/processed/docking_pred/2023-May-31-1603_sub9_nm5_bs15_s42_ex16_mel10_mts1000_k50_ec05_g099_lra3e-4_lrc9e-3/96aa1335557473cc7235c71144735280de1f686e_ligand_9.pdbqt
 14 15 0 0 0
SMALL
GASTEIGER

@<TRIPOS>ATOM
      1  C          8.2680    0.1650   -2.7510 C.3     1  UNL1        0.0800
      2  C          8.0190   -1.2890   -2.8150 C.2     1  UNL1        0.1300
      3  C          9.1570   -2.2070   -3.0210 C.3     1  UNL1        0.0870
      4  O          6.8900   -1.6980   -2.6980 O.2     1  UNL1       -0.3000
      5  C          8.9120    0.5540   -1.4370 C.3     1  UNL1        0.0430
      6  C          7.9330    0.5020   -0.3470 C.2     1  UNL1       -0.0440
      7  C          8.1090   -0.3710    0.7060 C.2     1  UNL1        0.0080
      8  C          6.8100    1.3110   -0.3320 C.2     1  UNL1        0.0540
      9  C          7.2020   -0.4520    1.7600 C.2     1  UNL1        0.0510
     10  C          5.8850    1.2520    0.7080 C.2     1  UNL1        0.1660
     11  C          6.0900    0.3690    1.7470 C.2     1  UNL1        0.1650
     12  O          4.6960    1.9230    0.9880 O.2     1  UNL1       -0.4540
     13  O          5.0350    0.5110    2.6370 O.2     1  UNL1       -0.4540
     14  C          4.0060    1.2950    2.0380 C.3     1  UNL1        0.4680
@<TRIPOS>BOND
     1     3     2    1
     2     2     1    1
     3     2     4    2
     4     1     5    1
     5     5     6    1
     6     6     8    2
     7     6     7    1
     8     8    10    1
     9     7     9    2
    10    10    12    1
    11    10    11    2
    12    12    14    1
    13    11     9    1
    14    11    13    1
    15    14    13    1
