@<TRIPOS>MOLECULE
/home/cewinharhar/GITHUB/reincatalyze/data/processed/docking_pred/2023-May-31-1603_sub9_nm5_bs15_s42_ex16_mel10_mts1000_k50_ec05_g099_lra3e-4_lrc9e-3/96aa1335557473cc7235c71144735280de1f686e_ligand_9.pdbqt
 14 15 0 0 0
SMALL
GASTEIGER

@<TRIPOS>ATOM
      1  C          6.8590    1.3360    0.8770 C.3     1  UNL1        0.0800
      2  C          5.4540    1.7360    0.6610 C.2     1  UNL1        0.1300
      3  C          5.0210    2.1470   -0.6900 C.3     1  UNL1        0.0870
      4  O          4.6880    1.7170    1.5920 O.2     1  UNL1       -0.3000
      5  C          6.9490   -0.0500    1.4810 C.3     1  UNL1        0.0430
      6  C          7.4340   -1.0140    0.4890 C.2     1  UNL1       -0.0440
      7  C          7.3030   -0.7520   -0.8590 C.2     1  UNL1        0.0080
      8  C          8.0320   -2.2060    0.8580 C.2     1  UNL1        0.0540
      9  C          7.7500   -1.6410   -1.8320 C.2     1  UNL1        0.0510
     10  C          8.4890   -3.1150   -0.0930 C.2     1  UNL1        0.1660
     11  C          8.3430   -2.8240   -1.4330 C.2     1  UNL1        0.1650
     12  O          9.1140   -4.3600   -0.0250 O.2     1  UNL1       -0.4540
     13  O          8.8750   -3.8830   -2.1560 O.2     1  UNL1       -0.4540
     14  C          9.1200   -4.9830   -1.2840 C.3     1  UNL1        0.4680
@<TRIPOS>BOND
     1    13    11    1
     2    13    14    1
     3     9    11    2
     4     9     7    1
     5    11    10    1
     6    14    12    1
     7     7     6    2
     8     3     2    1
     9    10    12    1
    10    10     8    2
    11     6     8    1
    12     6     5    1
    13     2     1    1
    14     2     4    2
    15     1     5    1
