@<TRIPOS>MOLECULE
/home/cewinharhar/GITHUB/reincatalyze/data/processed/docking_pred/2023-May-31-1603_sub9_nm5_bs15_s42_ex16_mel10_mts1000_k50_ec05_g099_lra3e-4_lrc9e-3/97a603521aa4ec025b6db977763cb198737ffc85_ligand_9.pdbqt
 14 15 0 0 0
SMALL
GASTEIGER

@<TRIPOS>ATOM
      1  C          5.5810    1.8750    1.3070 C.3     1  UNL1        0.0800
      2  C          5.1270    0.6770    2.0420 C.2     1  UNL1        0.1300
      3  C          6.0640   -0.4480    2.2340 C.3     1  UNL1        0.0870
      4  O          4.0000    0.6420    2.4710 O.2     1  UNL1       -0.3000
      5  C          5.4000    1.7030   -0.1870 C.3     1  UNL1        0.0430
      6  C          6.5340    0.9740   -0.7620 C.2     1  UNL1       -0.0440
      7  C          7.8240    1.4200   -0.5590 C.2     1  UNL1        0.0080
      8  C          6.3600   -0.1710   -1.5190 C.2     1  UNL1        0.0540
      9  C          8.9280    0.7570   -1.0890 C.2     1  UNL1        0.0510
     10  C          7.4450   -0.8560   -2.0620 C.2     1  UNL1        0.1660
     11  C          8.7230   -0.3850   -1.8410 C.2     1  UNL1        0.1650
     12  O          7.5770   -2.0030   -2.8430 O.2     1  UNL1       -0.4540
     13  O          9.6050   -1.2410   -2.4840 O.2     1  UNL1       -0.4540
     14  C          8.8830   -2.1140   -3.3470 C.3     1  UNL1        0.4680
@<TRIPOS>BOND
     1    14    12    1
     2    14    13    1
     3    12    10    1
     4    13    11    1
     5    10    11    2
     6    10     8    1
     7    11     9    1
     8     8     6    2
     9     9     7    2
    10     6     7    1
    11     6     5    1
    12     5     1    1
    13     1     2    1
    14     2     3    1
    15     2     4    2
