MODEL 1
REMARK VINA RESULT:      -7.6      0.000      0.000
REMARK SMILES CC(=O)CCc1ccc2c(c1)OCO2
REMARK SMILES IDX 4 1 2 2 1 3 3 4 5 5 6 6 7 7 11 8 8 9 10 10 9 11 12 12 14 13
REMARK SMILES IDX 13 14
REMARK H PARENT
REMARK Flexibility Score: inf
ROOT
ATOM      1  C   UNL     1       5.581   1.875   1.307  1.00  0.00     0.080 C 
ENDROOT
BRANCH   1   2
ATOM      2  C   UNL     1       5.127   0.677   2.042  1.00  0.00     0.130 C 
ATOM      3  C   UNL     1       6.064  -0.448   2.234  1.00  0.00     0.087 C 
ATOM      4  O   UNL     1       4.000   0.642   2.471  1.00  0.00    -0.300 OA
ENDBRANCH   1   2
BRANCH   1   5
ATOM      5  C   UNL     1       5.400   1.703  -0.187  1.00  0.00     0.043 C 
BRANCH   5   6
ATOM      6  C   UNL     1       6.534   0.974  -0.762  1.00  0.00    -0.044 A 
ATOM      7  C   UNL     1       7.824   1.420  -0.559  1.00  0.00     0.008 A 
ATOM      8  C   UNL     1       6.360  -0.171  -1.519  1.00  0.00     0.054 A 
ATOM      9  C   UNL     1       8.928   0.757  -1.089  1.00  0.00     0.051 A 
ATOM     10  C   UNL     1       7.445  -0.856  -2.062  1.00  0.00     0.166 A 
ATOM     11  C   UNL     1       8.723  -0.385  -1.841  1.00  0.00     0.165 A 
ATOM     12  O   UNL     1       7.577  -2.003  -2.843  1.00  0.00    -0.454 OA
ATOM     13  O   UNL     1       9.605  -1.241  -2.484  1.00  0.00    -0.454 OA
ATOM     14  C   UNL     1       8.883  -2.114  -3.347  1.00  0.00     0.468 C 
ENDBRANCH   5   6
ENDBRANCH   1   5
TORSDOF 3
ENDMDL
MODEL 2
REMARK VINA RESULT:      -7.4      1.918      2.369
REMARK SMILES CC(=O)CCc1ccc2c(c1)OCO2
REMARK SMILES IDX 4 1 2 2 1 3 3 4 5 5 6 6 7 7 11 8 8 9 10 10 9 11 12 12 14 13
REMARK SMILES IDX 13 14
REMARK H PARENT
REMARK Flexibility Score: inf
ROOT
ATOM      1  C   UNL     1       5.699   1.197  -0.315  1.00  0.00     0.080 C 
ENDROOT
BRANCH   1   2
ATOM      2  C   UNL     1       5.111   1.227   1.040  1.00  0.00     0.130 C 
ATOM      3  C   UNL     1       5.415   0.131   1.982  1.00  0.00     0.087 C 
ATOM      4  O   UNL     1       4.395   2.146   1.349  1.00  0.00    -0.300 OA
ENDBRANCH   1   2
BRANCH   1   5
ATOM      5  C   UNL     1       7.207   1.069  -0.256  1.00  0.00     0.043 C 
BRANCH   5   6
ATOM      6  C   UNL     1       7.639  -0.207  -0.833  1.00  0.00    -0.044 A 
ATOM      7  C   UNL     1       7.708  -0.365  -2.202  1.00  0.00     0.008 A 
ATOM      8  C   UNL     1       7.987  -1.288  -0.042  1.00  0.00     0.054 A 
ATOM      9  C   UNL     1       8.112  -1.560  -2.790  1.00  0.00     0.051 A 
ATOM     10  C   UNL     1       8.396  -2.496  -0.602  1.00  0.00     0.166 A 
ATOM     11  C   UNL     1       8.455  -2.622  -1.974  1.00  0.00     0.165 A 
ATOM     12  O   UNL     1       8.797  -3.724  -0.075  1.00  0.00    -0.454 OA
ATOM     13  O   UNL     1       8.885  -3.909  -2.262  1.00  0.00    -0.454 OA
ATOM     14  C   UNL     1       8.846  -4.704  -1.079  1.00  0.00     0.468 C 
ENDBRANCH   5   6
ENDBRANCH   1   5
TORSDOF 3
ENDMDL
MODEL 3
REMARK VINA RESULT:      -7.3      2.114      2.658
REMARK SMILES CC(=O)CCc1ccc2c(c1)OCO2
REMARK SMILES IDX 4 1 2 2 1 3 3 4 5 5 6 6 7 7 11 8 8 9 10 10 9 11 12 12 14 13
REMARK SMILES IDX 13 14
REMARK H PARENT
REMARK Flexibility Score: inf
ROOT
ATOM      1  C   UNL     1       5.454   0.007   1.885  1.00  0.00     0.080 C 
ENDROOT
BRANCH   1   2
ATOM      2  C   UNL     1       4.617   1.197   1.636  1.00  0.00     0.130 C 
ATOM      3  C   UNL     1       5.013   2.148   0.578  1.00  0.00     0.087 C 
ATOM      4  O   UNL     1       3.626   1.369   2.302  1.00  0.00    -0.300 OA
ENDBRANCH   1   2
BRANCH   1   5
ATOM      5  C   UNL     1       6.895   0.256   1.490  1.00  0.00     0.043 C 
BRANCH   5   6
ATOM      6  C   UNL     1       7.340  -0.741   0.512  1.00  0.00    -0.044 A 
ATOM      7  C   UNL     1       7.169  -0.516  -0.839  1.00  0.00     0.008 A 
ATOM      8  C   UNL     1       7.939  -1.928   0.896  1.00  0.00     0.054 A 
ATOM      9  C   UNL     1       7.578  -1.437  -1.800  1.00  0.00     0.051 A 
ATOM     10  C   UNL     1       8.358  -2.868  -0.042  1.00  0.00     0.166 A 
ATOM     11  C   UNL     1       8.173  -2.613  -1.385  1.00  0.00     0.165 A 
ATOM     12  O   UNL     1       8.973  -4.116   0.042  1.00  0.00    -0.454 OA
ATOM     13  O   UNL     1       8.672  -3.697  -2.093  1.00  0.00    -0.454 OA
ATOM     14  C   UNL     1       8.935  -4.774  -1.198  1.00  0.00     0.468 C 
ENDBRANCH   5   6
ENDBRANCH   1   5
TORSDOF 3
ENDMDL
MODEL 4
REMARK VINA RESULT:      -7.1      1.226      1.382
REMARK SMILES CC(=O)CCc1ccc2c(c1)OCO2
REMARK SMILES IDX 4 1 2 2 1 3 3 4 5 5 6 6 7 7 11 8 8 9 10 10 9 11 12 12 14 13
REMARK SMILES IDX 13 14
REMARK H PARENT
REMARK Flexibility Score: inf
ROOT
ATOM      1  C   UNL     1       6.260   1.290   0.972  1.00  0.00     0.080 C 
ENDROOT
BRANCH   1   2
ATOM      2  C   UNL     1       5.570   0.445   1.967  1.00  0.00     0.130 C 
ATOM      3  C   UNL     1       6.263  -0.740   2.511  1.00  0.00     0.087 C 
ATOM      4  O   UNL     1       4.453   0.740   2.316  1.00  0.00    -0.300 OA
ENDBRANCH   1   2
BRANCH   1   5
ATOM      5  C   UNL     1       5.763   1.004  -0.430  1.00  0.00     0.043 C 
BRANCH   5   6
ATOM      6  C   UNL     1       6.714   0.150  -1.148  1.00  0.00    -0.044 A 
ATOM      7  C   UNL     1       7.379   0.629  -2.258  1.00  0.00     0.008 A 
ATOM      8  C   UNL     1       6.978  -1.149  -0.750  1.00  0.00     0.054 A 
ATOM      9  C   UNL     1       8.288  -0.150  -2.969  1.00  0.00     0.051 A 
ATOM     10  C   UNL     1       7.882  -1.951  -1.441  1.00  0.00     0.166 A 
ATOM     11  C   UNL     1       8.532  -1.443  -2.547  1.00  0.00     0.165 A 
ATOM     12  O   UNL     1       8.339  -3.259  -1.281  1.00  0.00    -0.454 OA
ATOM     13  O   UNL     1       9.365  -2.437  -3.040  1.00  0.00    -0.454 OA
ATOM     14  C   UNL     1       9.054  -3.678  -2.415  1.00  0.00     0.468 C 
ENDBRANCH   5   6
ENDBRANCH   1   5
TORSDOF 3
ENDMDL
MODEL 5
REMARK VINA RESULT:      -7.0      1.204      5.191
REMARK SMILES CC(=O)CCc1ccc2c(c1)OCO2
REMARK SMILES IDX 4 1 2 2 1 3 3 4 5 5 6 6 7 7 11 8 8 9 10 10 9 11 12 12 14 13
REMARK SMILES IDX 13 14
REMARK H PARENT
REMARK Flexibility Score: inf
ROOT
ATOM      1  C   UNL     1       8.268   0.204  -2.569  1.00  0.00     0.080 C 
ENDROOT
BRANCH   1   2
ATOM      2  C   UNL     1       7.963  -1.235  -2.702  1.00  0.00     0.130 C 
ATOM      3  C   UNL     1       9.053  -2.176  -3.028  1.00  0.00     0.087 C 
ATOM      4  O   UNL     1       6.828  -1.612  -2.543  1.00  0.00    -0.300 OA
ENDBRANCH   1   2
BRANCH   1   5
ATOM      5  C   UNL     1       8.815   0.523  -1.193  1.00  0.00     0.043 C 
BRANCH   5   6
ATOM      6  C   UNL     1       7.753   0.450  -0.186  1.00  0.00    -0.044 A 
ATOM      7  C   UNL     1       7.755  -0.556   0.758  1.00  0.00     0.008 A 
ATOM      8  C   UNL     1       6.720   1.371  -0.143  1.00  0.00     0.054 A 
ATOM      9  C   UNL     1       6.764  -0.661   1.730  1.00  0.00     0.051 A 
ATOM     10  C   UNL     1       5.715   1.291   0.818  1.00  0.00     0.166 A 
ATOM     11  C   UNL     1       5.746   0.273   1.748  1.00  0.00     0.165 A 
ATOM     12  O   UNL     1       4.581   2.052   1.102  1.00  0.00    -0.454 OA
ATOM     13  O   UNL     1       4.643   0.424   2.577  1.00  0.00    -0.454 OA
ATOM     14  C   UNL     1       3.750   1.383   2.016  1.00  0.00     0.468 C 
ENDBRANCH   5   6
ENDBRANCH   1   5
TORSDOF 3
ENDMDL
