@<TRIPOS>MOLECULE
/home/cewinharhar/GITHUB/reincatalyze/data/processed/docking_pred/2023-May-31-1603_sub9_nm5_bs15_s42_ex16_mel10_mts1000_k50_ec05_g099_lra3e-4_lrc9e-3/97b80f67ae9ab19215981068b7c743dd8d1e9d0d_ligand_9.pdbqt
 14 15 0 0 0
SMALL
GASTEIGER

@<TRIPOS>ATOM
      1  C          5.6830    1.8220    1.4170 C.3     1  UNL1        0.0800
      2  C          5.1770    0.6070    2.0870 C.2     1  UNL1        0.1300
      3  C          6.0790   -0.5500    2.2590 C.3     1  UNL1        0.0870
      4  O          4.0370    0.5840    2.4800 O.2     1  UNL1       -0.3000
      5  C          5.4900    1.7420   -0.0830 C.3     1  UNL1        0.0430
      6  C          6.5920    1.0020   -0.7050 C.2     1  UNL1       -0.0440
      7  C          7.8940    1.4330   -0.5520 C.2     1  UNL1        0.0080
      8  C          6.3760   -0.1380   -1.4590 C.2     1  UNL1        0.0540
      9  C          8.9690    0.7590   -1.1270 C.2     1  UNL1        0.0510
     10  C          7.4300   -0.8330   -2.0460 C.2     1  UNL1        0.1660
     11  C          8.7210   -0.3770   -1.8740 C.2     1  UNL1        0.1650
     12  O          7.5180   -1.9790   -2.8360 O.2     1  UNL1       -0.4540
     13  O          9.5670   -1.2410   -2.5540 O.2     1  UNL1       -0.4540
     14  C          8.8020   -2.1030   -3.3910 C.3     1  UNL1        0.4680
@<TRIPOS>BOND
     1    14    12    1
     2    14    13    1
     3    12    10    1
     4    13    11    1
     5    10    11    2
     6    10     8    1
     7    11     9    1
     8     8     6    2
     9     9     7    2
    10     6     7    1
    11     6     5    1
    12     5     1    1
    13     1     2    1
    14     2     3    1
    15     2     4    2
