MODEL 1
REMARK VINA RESULT:      -7.5      0.000      0.000
REMARK SMILES CC(=O)CCc1ccc2c(c1)OCO2
REMARK SMILES IDX 4 1 2 2 1 3 3 4 5 5 6 6 7 7 11 8 8 9 10 10 9 11 12 12 14 13
REMARK SMILES IDX 13 14
REMARK H PARENT
REMARK Flexibility Score: inf
ROOT
ATOM      1  C   UNL     1       5.683   1.822   1.417  1.00  0.00     0.080 C 
ENDROOT
BRANCH   1   2
ATOM      2  C   UNL     1       5.177   0.607   2.087  1.00  0.00     0.130 C 
ATOM      3  C   UNL     1       6.079  -0.550   2.259  1.00  0.00     0.087 C 
ATOM      4  O   UNL     1       4.037   0.584   2.480  1.00  0.00    -0.300 OA
ENDBRANCH   1   2
BRANCH   1   5
ATOM      5  C   UNL     1       5.490   1.742  -0.083  1.00  0.00     0.043 C 
BRANCH   5   6
ATOM      6  C   UNL     1       6.592   1.002  -0.705  1.00  0.00    -0.044 A 
ATOM      7  C   UNL     1       7.894   1.433  -0.552  1.00  0.00     0.008 A 
ATOM      8  C   UNL     1       6.376  -0.138  -1.459  1.00  0.00     0.054 A 
ATOM      9  C   UNL     1       8.969   0.759  -1.127  1.00  0.00     0.051 A 
ATOM     10  C   UNL     1       7.430  -0.833  -2.046  1.00  0.00     0.166 A 
ATOM     11  C   UNL     1       8.721  -0.377  -1.874  1.00  0.00     0.165 A 
ATOM     12  O   UNL     1       7.518  -1.979  -2.836  1.00  0.00    -0.454 OA
ATOM     13  O   UNL     1       9.567  -1.241  -2.554  1.00  0.00    -0.454 OA
ATOM     14  C   UNL     1       8.802  -2.103  -3.391  1.00  0.00     0.468 C 
ENDBRANCH   5   6
ENDBRANCH   1   5
TORSDOF 3
ENDMDL
MODEL 2
REMARK VINA RESULT:      -7.3      1.786      2.269
REMARK SMILES CC(=O)CCc1ccc2c(c1)OCO2
REMARK SMILES IDX 4 1 2 2 1 3 3 4 5 5 6 6 7 7 11 8 8 9 10 10 9 11 12 12 14 13
REMARK SMILES IDX 13 14
REMARK H PARENT
REMARK Flexibility Score: inf
ROOT
ATOM      1  C   UNL     1       6.552   1.294   0.369  1.00  0.00     0.080 C 
ENDROOT
BRANCH   1   2
ATOM      2  C   UNL     1       5.360   1.179   1.233  1.00  0.00     0.130 C 
ATOM      3  C   UNL     1       5.197  -0.020   2.080  1.00  0.00     0.087 C 
ATOM      4  O   UNL     1       4.544   2.067   1.231  1.00  0.00    -0.300 OA
ENDBRANCH   1   2
BRANCH   1   5
ATOM      5  C   UNL     1       6.239   0.881  -1.055  1.00  0.00     0.043 C 
BRANCH   5   6
ATOM      6  C   UNL     1       7.013  -0.307  -1.428  1.00  0.00    -0.044 A 
ATOM      7  C   UNL     1       7.450  -0.474  -2.726  1.00  0.00     0.008 A 
ATOM      8  C   UNL     1       7.330  -1.293  -0.510  1.00  0.00     0.054 A 
ATOM      9  C   UNL     1       8.187  -1.587  -3.121  1.00  0.00     0.051 A 
ATOM     10  C   UNL     1       8.066  -2.417  -0.876  1.00  0.00     0.166 A 
ATOM     11  C   UNL     1       8.489  -2.555  -2.182  1.00  0.00     0.165 A 
ATOM     12  O   UNL     1       8.524  -3.542  -0.192  1.00  0.00    -0.454 OA
ATOM     13  O   UNL     1       9.191  -3.748  -2.275  1.00  0.00    -0.454 OA
ATOM     14  C   UNL     1       8.991  -4.515  -1.091  1.00  0.00     0.468 C 
ENDBRANCH   5   6
ENDBRANCH   1   5
TORSDOF 3
ENDMDL
MODEL 3
REMARK VINA RESULT:      -7.3      2.041      2.614
REMARK SMILES CC(=O)CCc1ccc2c(c1)OCO2
REMARK SMILES IDX 4 1 2 2 1 3 3 4 5 5 6 6 7 7 11 8 8 9 10 10 9 11 12 12 14 13
REMARK SMILES IDX 13 14
REMARK H PARENT
REMARK Flexibility Score: inf
ROOT
ATOM      1  C   UNL     1       5.287  -0.091   1.973  1.00  0.00     0.080 C 
ENDROOT
BRANCH   1   2
ATOM      2  C   UNL     1       4.464   1.122   1.802  1.00  0.00     0.130 C 
ATOM      3  C   UNL     1       4.867   2.132   0.802  1.00  0.00     0.087 C 
ATOM      4  O   UNL     1       3.479   1.265   2.483  1.00  0.00    -0.300 OA
ENDBRANCH   1   2
BRANCH   1   5
ATOM      5  C   UNL     1       6.741   0.181   1.646  1.00  0.00     0.043 C 
BRANCH   5   6
ATOM      6  C   UNL     1       7.219  -0.747   0.617  1.00  0.00    -0.044 A 
ATOM      7  C   UNL     1       7.084  -0.435  -0.720  1.00  0.00     0.008 A 
ATOM      8  C   UNL     1       7.815  -1.954   0.939  1.00  0.00     0.054 A 
ATOM      9  C   UNL     1       7.524  -1.289  -1.728  1.00  0.00     0.051 A 
ATOM     10  C   UNL     1       8.266  -2.829  -0.047  1.00  0.00     0.166 A 
ATOM     11  C   UNL     1       8.116  -2.488  -1.375  1.00  0.00     0.165 A 
ATOM     12  O   UNL     1       8.887  -4.077  -0.027  1.00  0.00    -0.454 OA
ATOM     13  O   UNL     1       8.641  -3.520  -2.138  1.00  0.00    -0.454 OA
ATOM     14  C   UNL     1       8.887  -4.652  -1.308  1.00  0.00     0.468 C 
ENDBRANCH   5   6
ENDBRANCH   1   5
TORSDOF 3
ENDMDL
MODEL 4
REMARK VINA RESULT:      -7.1      1.976      2.550
REMARK SMILES CC(=O)CCc1ccc2c(c1)OCO2
REMARK SMILES IDX 4 1 2 2 1 3 3 4 5 5 6 6 7 7 11 8 8 9 10 10 9 11 12 12 14 13
REMARK SMILES IDX 13 14
REMARK H PARENT
REMARK Flexibility Score: inf
ROOT
ATOM      1  C   UNL     1       6.852   0.830   1.113  1.00  0.00     0.080 C 
ENDROOT
BRANCH   1   2
ATOM      2  C   UNL     1       5.440   1.143   1.411  1.00  0.00     0.130 C 
ATOM      3  C   UNL     1       4.736   2.150   0.592  1.00  0.00     0.087 C 
ATOM      4  O   UNL     1       4.890   0.569   2.318  1.00  0.00    -0.300 OA
ENDBRANCH   1   2
BRANCH   1   5
ATOM      5  C   UNL     1       7.136   0.935  -0.371  1.00  0.00     0.043 C 
BRANCH   5   6
ATOM      6  C   UNL     1       7.620  -0.345  -0.895  1.00  0.00    -0.044 A 
ATOM      7  C   UNL     1       7.799  -0.520  -2.251  1.00  0.00     0.008 A 
ATOM      8  C   UNL     1       7.913  -1.413  -0.064  1.00  0.00     0.054 A 
ATOM      9  C   UNL     1       8.256  -1.721  -2.789  1.00  0.00     0.051 A 
ATOM     10  C   UNL     1       8.372  -2.625  -0.572  1.00  0.00     0.166 A 
ATOM     11  C   UNL     1       8.540  -2.769  -1.934  1.00  0.00     0.165 A 
ATOM     12  O   UNL     1       8.738  -3.842   0.002  1.00  0.00    -0.454 OA
ATOM     13  O   UNL     1       9.001  -4.056  -2.169  1.00  0.00    -0.454 OA
ATOM     14  C   UNL     1       8.874  -4.835  -0.983  1.00  0.00     0.468 C 
ENDBRANCH   5   6
ENDBRANCH   1   5
TORSDOF 3
ENDMDL
MODEL 5
REMARK VINA RESULT:      -7.1      1.308      1.518
REMARK SMILES CC(=O)CCc1ccc2c(c1)OCO2
REMARK SMILES IDX 4 1 2 2 1 3 3 4 5 5 6 6 7 7 11 8 8 9 10 10 9 11 12 12 14 13
REMARK SMILES IDX 13 14
REMARK H PARENT
REMARK Flexibility Score: inf
ROOT
ATOM      1  C   UNL     1       6.315   1.221   1.009  1.00  0.00     0.080 C 
ENDROOT
BRANCH   1   2
ATOM      2  C   UNL     1       5.625   0.382   2.009  1.00  0.00     0.130 C 
ATOM      3  C   UNL     1       6.321  -0.797   2.564  1.00  0.00     0.087 C 
ATOM      4  O   UNL     1       4.507   0.676   2.353  1.00  0.00    -0.300 OA
ENDBRANCH   1   2
BRANCH   1   5
ATOM      5  C   UNL     1       5.803   0.941  -0.389  1.00  0.00     0.043 C 
BRANCH   5   6
ATOM      6  C   UNL     1       6.723   0.052  -1.105  1.00  0.00    -0.044 A 
ATOM      7  C   UNL     1       7.282   0.447  -2.303  1.00  0.00     0.008 A 
ATOM      8  C   UNL     1       7.061  -1.198  -0.618  1.00  0.00     0.054 A 
ATOM      9  C   UNL     1       8.158  -0.368  -3.014  1.00  0.00     0.051 A 
ATOM     10  C   UNL     1       7.936  -2.035  -1.307  1.00  0.00     0.166 A 
ATOM     11  C   UNL     1       8.478  -1.611  -2.502  1.00  0.00     0.165 A 
ATOM     12  O   UNL     1       8.448  -3.310  -1.070  1.00  0.00    -0.454 OA
ATOM     13  O   UNL     1       9.303  -2.622  -2.973  1.00  0.00    -0.454 OA
ATOM     14  C   UNL     1       9.085  -3.811  -2.218  1.00  0.00     0.468 C 
ENDBRANCH   5   6
ENDBRANCH   1   5
TORSDOF 3
ENDMDL
