@<TRIPOS>MOLECULE
/home/cewinharhar/GITHUB/reincatalyze/data/processed/docking_pred/2023-May-31-1603_sub9_nm5_bs15_s42_ex16_mel10_mts1000_k50_ec05_g099_lra3e-4_lrc9e-3/9a7d3f5f853688f06c0e35b58fb12e655ab1ce10_ligand_9.pdbqt
 14 15 0 0 0
SMALL
GASTEIGER

@<TRIPOS>ATOM
      1  C          6.3230    1.2290    0.9670 C.3     1  UNL1        0.0800
      2  C          5.5980    0.4100    1.9590 C.2     1  UNL1        0.1300
      3  C          6.2510   -0.7910    2.5180 C.3     1  UNL1        0.0870
      4  O          4.4870    0.7400    2.2940 O.2     1  UNL1       -0.3000
      5  C          5.8220    0.9600   -0.4370 C.3     1  UNL1        0.0430
      6  C          6.7500    0.0810   -1.1560 C.2     1  UNL1       -0.0440
      7  C          7.3770    0.5200   -2.3030 C.2     1  UNL1        0.0080
      8  C          7.0290   -1.2020   -0.7200 C.2     1  UNL1        0.0540
      9  C          8.2640   -0.2840   -3.0150 C.2     1  UNL1        0.0510
     10  C          7.9110   -2.0290   -1.4110 C.2     1  UNL1        0.1660
     11  C          8.5230   -1.5610   -2.5550 C.2     1  UNL1        0.1650
     12  O          8.3750   -3.3300   -1.2190 O.2     1  UNL1       -0.4540
     13  O          9.3410   -2.5710   -3.0400 O.2     1  UNL1       -0.4540
     14  C          9.0530   -3.7900   -2.3600 C.3     1  UNL1        0.4680
@<TRIPOS>BOND
     1    13    11    1
     2    13    14    1
     3     9    11    2
     4     9     7    1
     5    11    10    1
     6    14    12    1
     7     7     6    2
     8    10    12    1
     9    10     8    2
    10     6     8    1
    11     6     5    1
    12     5     1    1
    13     1     2    1
    14     2     4    2
    15     2     3    1
