@<TRIPOS>MOLECULE
/home/cewinharhar/GITHUB/reincatalyze/data/processed/docking_pred/2023-May-31-1603_sub9_nm5_bs15_s42_ex16_mel10_mts1000_k50_ec05_g099_lra3e-4_lrc9e-3/9cf679a9c5542d052f5b9fd38195e755841f8057_ligand_9.pdbqt
 14 15 0 0 0
SMALL
GASTEIGER

@<TRIPOS>ATOM
      1  C          6.2920    1.2570    0.9530 C.3     1  UNL1        0.0800
      2  C          5.5780    0.4360    1.9520 C.2     1  UNL1        0.1300
      3  C          6.2390   -0.7640    2.5030 C.3     1  UNL1        0.0870
      4  O          4.4700    0.7630    2.2970 O.2     1  UNL1       -0.3000
      5  C          5.7930    0.9720   -0.4490 C.3     1  UNL1        0.0430
      6  C          6.7330    0.1030   -1.1630 C.2     1  UNL1       -0.0440
      7  C          7.3760    0.5560   -2.2970 C.2     1  UNL1        0.0080
      8  C          7.0090   -1.1840   -0.7370 C.2     1  UNL1        0.0540
      9  C          8.2740   -0.2380   -3.0050 C.2     1  UNL1        0.0510
     10  C          7.9040   -2.0010   -1.4240 C.2     1  UNL1        0.1660
     11  C          8.5300   -1.5200   -2.5550 C.2     1  UNL1        0.1650
     12  O          8.3680   -3.3030   -1.2390 O.2     1  UNL1       -0.4540
     13  O          9.3580   -2.5230   -3.0390 O.2     1  UNL1       -0.4540
     14  C          9.0630   -3.7490   -2.3760 C.3     1  UNL1        0.4680
@<TRIPOS>BOND
     1    13    11    1
     2    13    14    1
     3     9    11    2
     4     9     7    1
     5    11    10    1
     6    14    12    1
     7     7     6    2
     8    10    12    1
     9    10     8    2
    10     6     8    1
    11     6     5    1
    12     5     1    1
    13     1     2    1
    14     2     4    2
    15     2     3    1
