@<TRIPOS>MOLECULE
/home/cewinharhar/GITHUB/reincatalyze/data/processed/docking_pred/2023-May-31-1603_sub9_nm5_bs15_s42_ex16_mel10_mts1000_k50_ec05_g099_lra3e-4_lrc9e-3/9cf679a9c5542d052f5b9fd38195e755841f8057_ligand_9.pdbqt
 14 15 0 0 0
SMALL
GASTEIGER

@<TRIPOS>ATOM
      1  C          5.6890    1.7810    1.4150 C.3     1  UNL1        0.0800
      2  C          5.1750    0.5690    2.0850 C.2     1  UNL1        0.1300
      3  C          6.0570   -0.6060    2.2260 C.3     1  UNL1        0.0870
      4  O          4.0440    0.5650    2.5040 O.2     1  UNL1       -0.3000
      5  C          5.5010    1.7000   -0.0850 C.3     1  UNL1        0.0430
      6  C          6.6090    0.9670   -0.7040 C.2     1  UNL1       -0.0440
      7  C          7.9070    1.4140   -0.5610 C.2     1  UNL1        0.0080
      8  C          6.4030   -0.1830   -1.4460 C.2     1  UNL1        0.0540
      9  C          8.9870    0.7480   -1.1340 C.2     1  UNL1        0.0510
     10  C          7.4640   -0.8710   -2.0300 C.2     1  UNL1        0.1660
     11  C          8.7500   -0.3990   -1.8680 C.2     1  UNL1        0.1650
     12  O          7.5620   -2.0240   -2.8090 O.2     1  UNL1       -0.4540
     13  O          9.6040   -1.2590   -2.5430 O.2     1  UNL1       -0.4540
     14  C          8.8450   -2.1380   -3.3680 C.3     1  UNL1        0.4680
@<TRIPOS>BOND
     1    14    12    1
     2    14    13    1
     3    12    10    1
     4    13    11    1
     5    10    11    2
     6    10     8    1
     7    11     9    1
     8     8     6    2
     9     9     7    2
    10     6     7    1
    11     6     5    1
    12     5     1    1
    13     1     2    1
    14     2     3    1
    15     2     4    2
