@<TRIPOS>MOLECULE
/home/cewinharhar/GITHUB/reincatalyze/data/processed/docking_pred/2023-May-31-1603_sub9_nm5_bs15_s42_ex16_mel10_mts1000_k50_ec05_g099_lra3e-4_lrc9e-3/9e6208548f5309b91e7f4e881f40d3475c8e3dc2_ligand_9.pdbqt
 14 15 0 0 0
SMALL
GASTEIGER

@<TRIPOS>ATOM
      1  C          9.7090    1.3060    2.6220 C.3     1  UNL1        0.0800
      2  C         11.1410    0.9430    2.6380 C.2     1  UNL1        0.1300
      3  C         12.0750    1.7310    3.4660 C.3     1  UNL1        0.0870
      4  O         11.5170    0.0090    1.9740 O.2     1  UNL1       -0.3000
      5  C          9.3460    2.0510    1.3550 C.3     1  UNL1        0.0430
      6  C          8.6290    1.1710    0.4270 C.2     1  UNL1       -0.0440
      7  C          7.2710    0.9760    0.5620 C.2     1  UNL1        0.0080
      8  C          9.2750    0.5120   -0.6040 C.2     1  UNL1        0.0540
      9  C          6.5530    0.1480   -0.2970 C.2     1  UNL1        0.0510
     10  C          8.5840   -0.3230   -1.4790 C.2     1  UNL1        0.1660
     11  C          7.2260   -0.4980   -1.3170 C.2     1  UNL1        0.1650
     12  O          8.9540   -1.0970   -2.5780 O.2     1  UNL1       -0.4540
     13  O          6.7910   -1.3660   -2.3080 O.2     1  UNL1       -0.4540
     14  C          7.9150   -1.9660   -2.9470 C.3     1  UNL1        0.4680
@<TRIPOS>BOND
     1    14    12    1
     2    14    13    1
     3    12    10    1
     4    13    11    1
     5    10    11    2
     6    10     8    1
     7    11     9    1
     8     8     6    2
     9     9     7    2
    10     6     7    1
    11     6     5    1
    12     5     1    1
    13     4     2    2
    14     1     2    1
    15     2     3    1
