@<TRIPOS>MOLECULE
/home/cewinharhar/GITHUB/reincatalyze/data/processed/docking_pred/2023-May-31-1603_sub9_nm5_bs15_s42_ex16_mel10_mts1000_k50_ec05_g099_lra3e-4_lrc9e-3/9fad910e57fbde25b93c61ef9d3287f531a6e420_ligand_9.pdbqt
 14 15 0 0 0
SMALL
GASTEIGER

@<TRIPOS>ATOM
      1  C          6.3930    0.3420    1.0320 C.3     1  UNL1        0.0800
      2  C          5.1430    1.0590    1.3530 C.2     1  UNL1        0.1300
      3  C          4.6890    2.1480    0.4660 C.3     1  UNL1        0.0870
      4  O          4.5180    0.7390    2.3340 O.2     1  UNL1       -0.3000
      5  C          6.7700    0.5200   -0.4240 C.3     1  UNL1        0.0430
      6  C          7.3890   -0.7010   -0.9490 C.2     1  UNL1       -0.0440
      7  C          7.6110   -0.8420   -2.3030 C.2     1  UNL1        0.0080
      8  C          7.7680   -1.7440   -0.1220 C.2     1  UNL1        0.0540
      9  C          8.1960   -1.9850   -2.8420 C.2     1  UNL1        0.0510
     10  C          8.3550   -2.8990   -0.6320 C.2     1  UNL1        0.1660
     11  C          8.5640   -3.0100   -1.9910 C.2     1  UNL1        0.1650
     12  O          8.8280   -4.0810   -0.0620 O.2     1  UNL1       -0.4540
     13  O          9.1540   -4.2430   -2.2280 O.2     1  UNL1       -0.4540
     14  C          9.0800   -5.0440   -1.0520 C.3     1  UNL1        0.4680
@<TRIPOS>BOND
     1     9     7    1
     2     9    11    2
     3     7     6    2
     4    13    11    1
     5    13    14    1
     6    11    10    1
     7    14    12    1
     8     6     5    1
     9     6     8    1
    10    10     8    2
    11    10    12    1
    12     5     1    1
    13     3     2    1
    14     1     2    1
    15     2     4    2
