@<TRIPOS>MOLECULE
/home/cewinharhar/GITHUB/reincatalyze/data/processed/docking_pred/2023-May-31-1603_sub9_nm5_bs15_s42_ex16_mel10_mts1000_k50_ec05_g099_lra3e-4_lrc9e-3/9fad910e57fbde25b93c61ef9d3287f531a6e420_ligand_9.pdbqt
 14 15 0 0 0
SMALL
GASTEIGER

@<TRIPOS>ATOM
      1  C          6.2570    1.3010    0.9390 C.3     1  UNL1        0.0800
      2  C          5.6050    0.4600    1.9620 C.2     1  UNL1        0.1300
      3  C          6.3300   -0.7050    2.5070 C.3     1  UNL1        0.0870
      4  O          4.4920    0.7420    2.3310 O.2     1  UNL1       -0.3000
      5  C          5.7440    0.9750   -0.4490 C.3     1  UNL1        0.0430
      6  C          6.7000    0.1260   -1.1650 C.2     1  UNL1       -0.0440
      7  C          7.3600    0.6050   -2.2780 C.2     1  UNL1        0.0080
      8  C          6.9750   -1.1690   -0.7620 C.2     1  UNL1        0.0540
      9  C          8.2750   -0.1700   -2.9870 C.2     1  UNL1        0.0510
     10  C          7.8850   -1.9680   -1.4510 C.2     1  UNL1        0.1660
     11  C          8.5280   -1.4600   -2.5600 C.2     1  UNL1        0.1650
     12  O          8.3510   -3.2720   -1.2860 O.2     1  UNL1       -0.4540
     13  O          9.3690   -2.4490   -3.0510 O.2     1  UNL1       -0.4540
     14  C          9.0680   -3.6900   -2.4190 C.3     1  UNL1        0.4680
@<TRIPOS>BOND
     1    13    11    1
     2    13    14    1
     3     9    11    2
     4     9     7    1
     5    11    10    1
     6    14    12    1
     7     7     6    2
     8    10    12    1
     9    10     8    2
    10     6     8    1
    11     6     5    1
    12     5     1    1
    13     1     2    1
    14     2     4    2
    15     2     3    1
