@<TRIPOS>MOLECULE
/home/cewinharhar/GITHUB/reincatalyze/data/processed/docking_pred/2023-May-31-1603_sub9_nm5_bs15_s42_ex16_mel10_mts1000_k50_ec05_g099_lra3e-4_lrc9e-3/a1c3c4a97d6bd518e48ffa0772dda1f342f6565e_ligand_9.pdbqt
 14 15 0 0 0
SMALL
GASTEIGER

@<TRIPOS>ATOM
      1  C          5.6480    1.8070    1.3790 C.3     1  UNL1        0.0800
      2  C          5.1510    0.6060    2.0800 C.2     1  UNL1        0.1300
      3  C          6.0550   -0.5480    2.2620 C.3     1  UNL1        0.0870
      4  O          4.0160    0.5910    2.4890 O.2     1  UNL1       -0.3000
      5  C          5.4560    1.6880   -0.1180 C.3     1  UNL1        0.0430
      6  C          6.5750    0.9610   -0.7250 C.2     1  UNL1       -0.0440
      7  C          7.8680    1.4140   -0.5650 C.2     1  UNL1        0.0080
      8  C          6.3830   -0.1890   -1.4700 C.2     1  UNL1        0.0540
      9  C          8.9580    0.7530   -1.1260 C.2     1  UNL1        0.0510
     10  C          7.4540   -0.8720   -2.0420 C.2     1  UNL1        0.1660
     11  C          8.7350   -0.3930   -1.8640 C.2     1  UNL1        0.1650
     12  O          7.5670   -2.0230   -2.8210 O.2     1  UNL1       -0.4540
     13  O          9.6010   -1.2490   -2.5290 O.2     1  UNL1       -0.4540
     14  C          8.8570   -2.1310   -3.3650 C.3     1  UNL1        0.4680
@<TRIPOS>BOND
     1    14    12    1
     2    14    13    1
     3    12    10    1
     4    13    11    1
     5    10    11    2
     6    10     8    1
     7    11     9    1
     8     8     6    2
     9     9     7    2
    10     6     7    1
    11     6     5    1
    12     5     1    1
    13     1     2    1
    14     2     3    1
    15     2     4    2
