@<TRIPOS>MOLECULE
/home/cewinharhar/GITHUB/reincatalyze/data/processed/docking_pred/2023-May-31-1603_sub9_nm5_bs15_s42_ex16_mel10_mts1000_k50_ec05_g099_lra3e-4_lrc9e-3/a450f47ca4f24610d4ad642e19216dd37a68a7e2_ligand_9.pdbqt
 14 15 0 0 0
SMALL
GASTEIGER

@<TRIPOS>ATOM
      1  C          5.7630    0.3250    1.5430 C.3     1  UNL1        0.0800
      2  C          4.9770    1.4730    1.0490 C.2     1  UNL1        0.1300
      3  C          5.2820    2.0370   -0.2810 C.3     1  UNL1        0.0870
      4  O          4.1000    1.9270    1.7430 O.2     1  UNL1       -0.3000
      5  C          6.7480   -0.1560    0.4980 C.3     1  UNL1        0.0430
      6  C          8.0950    0.3410    0.7930 C.2     1  UNL1       -0.0440
      7  C          9.0100    0.5200   -0.2230 C.2     1  UNL1        0.0080
      8  C          8.4970    0.6450    2.0820 C.2     1  UNL1        0.0540
      9  C         10.3000    0.9880    0.0150 C.2     1  UNL1        0.0510
     10  C          9.7800    1.1160    2.3520 C.2     1  UNL1        0.1660
     11  C         10.6720    1.2840    1.3130 C.2     1  UNL1        0.1650
     12  O         10.4510    1.4950    3.5140 O.2     1  UNL1       -0.4540
     13  O         11.8610    1.7570    1.8500 O.2     1  UNL1       -0.4540
     14  C         11.8260    1.6390    3.2700 C.3     1  UNL1        0.4680
@<TRIPOS>BOND
     1     3     2    1
     2     7     9    1
     3     7     6    2
     4     9    11    2
     5     5     6    1
     6     5     1    1
     7     6     8    1
     8     2     1    1
     9     2     4    2
    10    11    13    1
    11    11    10    1
    12    13    14    1
    13     8    10    2
    14    10    12    1
    15    14    12    1
