@<TRIPOS>MOLECULE
/home/cewinharhar/GITHUB/reincatalyze/data/processed/docking_pred/2023-May-31-1603_sub9_nm5_bs15_s42_ex16_mel10_mts1000_k50_ec05_g099_lra3e-4_lrc9e-3/a450f47ca4f24610d4ad642e19216dd37a68a7e2_ligand_9.pdbqt
 14 15 0 0 0
SMALL
GASTEIGER

@<TRIPOS>ATOM
      1  C          5.9400    0.0770    1.6510 C.3     1  UNL1        0.0800
      2  C          4.9120    1.1220    1.4780 C.2     1  UNL1        0.1300
      3  C          5.0410    2.0850    0.3660 C.3     1  UNL1        0.0870
      4  O          3.9860    1.1680    2.2500 O.2     1  UNL1       -0.3000
      5  C          7.0760    0.2570    0.6640 C.3     1  UNL1        0.0430
      6  C          8.3190    0.5920    1.3660 C.2     1  UNL1       -0.0440
      7  C          8.3720    1.6870    2.2040 C.2     1  UNL1        0.0080
      8  C          9.4700   -0.1610    1.2180 C.2     1  UNL1        0.0540
      9  C          9.5320    2.0400    2.8870 C.2     1  UNL1        0.0510
     10  C         10.6450    0.1670    1.8880 C.2     1  UNL1        0.1660
     11  C         10.6660    1.2680    2.7190 C.2     1  UNL1        0.1650
     12  O         11.9240   -0.3880    1.9360 O.2     1  UNL1       -0.4540
     13  O         11.9420    1.3690    3.2550 O.2     1  UNL1       -0.4540
     14  C         12.8240    0.4900    2.5610 C.3     1  UNL1        0.4680
@<TRIPOS>BOND
     1     3     2    1
     2     5     6    1
     3     5     1    1
     4     8     6    2
     5     8    10    1
     6     6     7    1
     7     2     1    1
     8     2     4    2
     9    10    12    1
    10    10    11    2
    11    12    14    1
    12     7     9    2
    13    14    13    1
    14    11     9    1
    15    11    13    1
