@<TRIPOS>MOLECULE
/home/cewinharhar/GITHUB/reincatalyze/data/processed/docking_pred/2023-May-31-1603_sub9_nm5_bs15_s42_ex16_mel10_mts1000_k50_ec05_g099_lra3e-4_lrc9e-3/a450f47ca4f24610d4ad642e19216dd37a68a7e2_ligand_9.pdbqt
 14 15 0 0 0
SMALL
GASTEIGER

@<TRIPOS>ATOM
      1  C          9.7390    1.3090    2.6220 C.3     1  UNL1        0.0800
      2  C         11.1740    0.9600    2.6580 C.2     1  UNL1        0.1300
      3  C         12.0780    1.7220    3.5420 C.3     1  UNL1        0.0870
      4  O         11.5770    0.0590    1.9640 O.2     1  UNL1       -0.3000
      5  C          9.3870    2.0520    1.3500 C.3     1  UNL1        0.0430
      6  C          8.6590    1.1770    0.4270 C.2     1  UNL1       -0.0440
      7  C          7.2970    1.0010    0.5610 C.2     1  UNL1        0.0080
      8  C          9.2970    0.5030   -0.6000 C.2     1  UNL1        0.0540
      9  C          6.5700    0.1780   -0.2940 C.2     1  UNL1        0.0510
     10  C          8.5950   -0.3270   -1.4710 C.2     1  UNL1        0.1660
     11  C          7.2340   -0.4830   -1.3100 C.2     1  UNL1        0.1650
     12  O          8.9560   -1.1120   -2.5660 O.2     1  UNL1       -0.4540
     13  O          6.7890   -1.3500   -2.2960 O.2     1  UNL1       -0.4540
     14  C          7.9050   -1.9690   -2.9300 C.3     1  UNL1        0.4680
@<TRIPOS>BOND
     1    14    12    1
     2    14    13    1
     3    12    10    1
     4    13    11    1
     5    10    11    2
     6    10     8    1
     7    11     9    1
     8     8     6    2
     9     9     7    2
    10     6     7    1
    11     6     5    1
    12     5     1    1
    13     4     2    2
    14     1     2    1
    15     2     3    1
