@<TRIPOS>MOLECULE
/home/cewinharhar/GITHUB/reincatalyze/data/processed/docking_pred/2023-May-31-1603_sub9_nm5_bs15_s42_ex16_mel10_mts1000_k50_ec05_g099_lra3e-4_lrc9e-3/a450f47ca4f24610d4ad642e19216dd37a68a7e2_ligand_9.pdbqt
 14 15 0 0 0
SMALL
GASTEIGER

@<TRIPOS>ATOM
      1  C          5.5140    1.8940    1.3670 C.3     1  UNL1        0.0800
      2  C          4.9950    0.6870    2.0400 C.2     1  UNL1        0.1300
      3  C          5.8530   -0.5120    2.1330 C.3     1  UNL1        0.0870
      4  O          3.8800    0.7030    2.5000 O.2     1  UNL1       -0.3000
      5  C          5.3690    1.7900   -0.1370 C.3     1  UNL1        0.0430
      6  C          6.4980    1.0520   -0.7120 C.2     1  UNL1       -0.0440
      7  C          7.7920    1.4670   -0.4790 C.2     1  UNL1        0.0080
      8  C          6.3130   -0.0700   -1.5000 C.2     1  UNL1        0.0540
      9  C          8.8910    0.7950   -1.0080 C.2     1  UNL1        0.0510
     10  C          7.3920   -0.7630   -2.0430 C.2     1  UNL1        0.1660
     11  C          8.6750   -0.3230   -1.7910 C.2     1  UNL1        0.1650
     12  O          7.5130   -1.8940   -2.8510 O.2     1  UNL1       -0.4540
     13  O          9.5510   -1.1810   -2.4420 O.2     1  UNL1       -0.4540
     14  C          8.8250   -2.0190   -3.3370 C.3     1  UNL1        0.4680
@<TRIPOS>BOND
     1    14    12    1
     2    14    13    1
     3    12    10    1
     4    13    11    1
     5    10    11    2
     6    10     8    1
     7    11     9    1
     8     8     6    2
     9     9     7    2
    10     6     7    1
    11     6     5    1
    12     5     1    1
    13     1     2    1
    14     2     3    1
    15     2     4    2
