@<TRIPOS>MOLECULE
/home/cewinharhar/GITHUB/reincatalyze/data/processed/docking_pred/2023-May-31-1603_sub9_nm5_bs15_s42_ex16_mel10_mts1000_k50_ec05_g099_lra3e-4_lrc9e-3/a450f47ca4f24610d4ad642e19216dd37a68a7e2_ligand_9.pdbqt
 14 15 0 0 0
SMALL
GASTEIGER

@<TRIPOS>ATOM
      1  C          6.5430    1.3300    0.3370 C.3     1  UNL1        0.0800
      2  C          5.3770    1.2220    1.2360 C.2     1  UNL1        0.1300
      3  C          5.2230    0.0160    2.0750 C.3     1  UNL1        0.0870
      4  O          4.5750    2.1220    1.2680 O.2     1  UNL1       -0.3000
      5  C          6.1930    0.8930   -1.0710 C.3     1  UNL1        0.0430
      6  C          6.9940   -0.2700   -1.4640 C.2     1  UNL1       -0.0440
      7  C          7.4820   -0.3770   -2.7500 C.2     1  UNL1        0.0080
      8  C          7.2890   -1.2900   -0.5760 C.2     1  UNL1        0.0540
      9  C          8.2460   -1.4650   -3.1630 C.2     1  UNL1        0.0510
     10  C          8.0520   -2.3900   -0.9610 C.2     1  UNL1        0.1660
     11  C          8.5250   -2.4680   -2.2540 C.2     1  UNL1        0.1650
     12  O          8.4980   -3.5380   -0.3070 O.2     1  UNL1       -0.4540
     13  O          9.2440   -3.6490   -2.3700 O.2     1  UNL1       -0.4540
     14  C          9.0100   -4.4670   -1.2280 C.3     1  UNL1        0.4680
@<TRIPOS>BOND
     1     9     7    1
     2     9    11    2
     3     7     6    2
     4    13    11    1
     5    13    14    1
     6    11    10    1
     7     6     5    1
     8     6     8    1
     9    14    12    1
    10     5     1    1
    11    10     8    2
    12    10    12    1
    13     1     2    1
    14     2     4    2
    15     2     3    1
