@<TRIPOS>MOLECULE
/home/cewinharhar/GITHUB/reincatalyze/data/processed/docking_pred/2023-May-31-1603_sub9_nm5_bs15_s42_ex16_mel10_mts1000_k50_ec05_g099_lra3e-4_lrc9e-3/a5b16c92fd7591d551db5a31bdb9c28d24e6a5b8_ligand_9.pdbqt
 14 15 0 0 0
SMALL
GASTEIGER

@<TRIPOS>ATOM
      1  C          5.4470    0.0060    1.9400 C.3     1  UNL1        0.0800
      2  C          4.5920    1.1840    1.6910 C.2     1  UNL1        0.1300
      3  C          4.9800    2.1460    0.6400 C.3     1  UNL1        0.0870
      4  O          3.5950    1.3360    2.3510 O.2     1  UNL1       -0.3000
      5  C          6.8800    0.2700    1.5280 C.3     1  UNL1        0.0430
      6  C          7.3250   -0.7210    0.5450 C.2     1  UNL1       -0.0440
      7  C          7.1400   -0.4960   -0.8040 C.2     1  UNL1        0.0080
      8  C          7.9370   -1.9040    0.9220 C.2     1  UNL1        0.0540
      9  C          7.5460   -1.4130   -1.7700 C.2     1  UNL1        0.0510
     10  C          8.3550   -2.8390   -0.0220 C.2     1  UNL1        0.1660
     11  C          8.1550   -2.5850   -1.3630 C.2     1  UNL1        0.1650
     12  O          8.9820   -4.0830    0.0550 O.2     1  UNL1       -0.4540
     13  O          8.6570   -3.6640   -2.0760 O.2     1  UNL1       -0.4540
     14  C          8.9370   -4.7400   -1.1850 C.3     1  UNL1        0.4680
@<TRIPOS>BOND
     1    13    11    1
     2    13    14    1
     3     9    11    2
     4     9     7    1
     5    11    10    1
     6    14    12    1
     7     7     6    2
     8    10    12    1
     9    10     8    2
    10     6     8    1
    11     6     5    1
    12     3     2    1
    13     5     1    1
    14     2     1    1
    15     2     4    2
