MODEL 1
REMARK VINA RESULT:      -7.5      0.000      0.000
REMARK SMILES CC(=O)CCc1ccc2c(c1)OCO2
REMARK SMILES IDX 4 1 2 2 1 3 3 4 5 5 6 6 7 7 11 8 8 9 10 10 9 11 12 12 14 13
REMARK SMILES IDX 13 14
REMARK H PARENT
REMARK Flexibility Score: inf
ROOT
ATOM      1  C   UNL     1       5.606   1.840   1.332  1.00  0.00     0.080 C 
ENDROOT
BRANCH   1   2
ATOM      2  C   UNL     1       5.133   0.643   2.057  1.00  0.00     0.130 C 
ATOM      3  C   UNL     1       6.053  -0.498   2.241  1.00  0.00     0.087 C 
ATOM      4  O   UNL     1       4.005   0.622   2.483  1.00  0.00    -0.300 OA
ENDBRANCH   1   2
BRANCH   1   5
ATOM      5  C   UNL     1       5.419   1.686  -0.163  1.00  0.00     0.043 C 
BRANCH   5   6
ATOM      6  C   UNL     1       6.548   0.960  -0.751  1.00  0.00    -0.044 A 
ATOM      7  C   UNL     1       7.838   1.415  -0.573  1.00  0.00     0.008 A 
ATOM      8  C   UNL     1       6.369  -0.191  -1.498  1.00  0.00     0.054 A 
ATOM      9  C   UNL     1       8.937   0.755  -1.115  1.00  0.00     0.051 A 
ATOM     10  C   UNL     1       7.449  -0.873  -2.053  1.00  0.00     0.166 A 
ATOM     11  C   UNL     1       8.727  -0.392  -1.856  1.00  0.00     0.165 A 
ATOM     12  O   UNL     1       7.576  -2.025  -2.829  1.00  0.00    -0.454 OA
ATOM     13  O   UNL     1       9.605  -1.247  -2.507  1.00  0.00    -0.454 OA
ATOM     14  C   UNL     1       8.874  -2.131  -3.353  1.00  0.00     0.468 C 
ENDBRANCH   5   6
ENDBRANCH   1   5
TORSDOF 3
ENDMDL
MODEL 2
REMARK VINA RESULT:      -7.4      1.962      2.376
REMARK SMILES CC(=O)CCc1ccc2c(c1)OCO2
REMARK SMILES IDX 4 1 2 2 1 3 3 4 5 5 6 6 7 7 11 8 8 9 10 10 9 11 12 12 14 13
REMARK SMILES IDX 13 14
REMARK H PARENT
REMARK Flexibility Score: inf
ROOT
ATOM      1  C   UNL     1       5.673   1.236  -0.233  1.00  0.00     0.080 C 
ENDROOT
BRANCH   1   2
ATOM      2  C   UNL     1       5.046   1.231   1.104  1.00  0.00     0.130 C 
ATOM      3  C   UNL     1       5.308   0.102   2.019  1.00  0.00     0.087 C 
ATOM      4  O   UNL     1       4.331   2.149   1.421  1.00  0.00    -0.300 OA
ENDBRANCH   1   2
BRANCH   1   5
ATOM      5  C   UNL     1       7.177   1.080  -0.134  1.00  0.00     0.043 C 
BRANCH   5   6
ATOM      6  C   UNL     1       7.600  -0.202  -0.705  1.00  0.00    -0.044 A 
ATOM      7  C   UNL     1       7.642  -0.375  -2.073  1.00  0.00     0.008 A 
ATOM      8  C   UNL     1       7.968  -1.272   0.091  1.00  0.00     0.054 A 
ATOM      9  C   UNL     1       8.037  -1.577  -2.655  1.00  0.00     0.051 A 
ATOM     10  C   UNL     1       8.368  -2.486  -0.462  1.00  0.00     0.166 A 
ATOM     11  C   UNL     1       8.399  -2.628  -1.834  1.00  0.00     0.165 A 
ATOM     12  O   UNL     1       8.784  -3.706   0.071  1.00  0.00    -0.454 OA
ATOM     13  O   UNL     1       8.828  -3.917  -2.115  1.00  0.00    -0.454 OA
ATOM     14  C   UNL     1       8.815  -4.698  -0.923  1.00  0.00     0.468 C 
ENDBRANCH   5   6
ENDBRANCH   1   5
TORSDOF 3
ENDMDL
MODEL 3
REMARK VINA RESULT:      -7.3      2.091      2.641
REMARK SMILES CC(=O)CCc1ccc2c(c1)OCO2
REMARK SMILES IDX 4 1 2 2 1 3 3 4 5 5 6 6 7 7 11 8 8 9 10 10 9 11 12 12 14 13
REMARK SMILES IDX 13 14
REMARK H PARENT
REMARK Flexibility Score: inf
ROOT
ATOM      1  C   UNL     1       5.447   0.006   1.940  1.00  0.00     0.080 C 
ENDROOT
BRANCH   1   2
ATOM      2  C   UNL     1       4.592   1.184   1.691  1.00  0.00     0.130 C 
ATOM      3  C   UNL     1       4.980   2.146   0.640  1.00  0.00     0.087 C 
ATOM      4  O   UNL     1       3.595   1.336   2.351  1.00  0.00    -0.300 OA
ENDBRANCH   1   2
BRANCH   1   5
ATOM      5  C   UNL     1       6.880   0.270   1.528  1.00  0.00     0.043 C 
BRANCH   5   6
ATOM      6  C   UNL     1       7.325  -0.721   0.545  1.00  0.00    -0.044 A 
ATOM      7  C   UNL     1       7.140  -0.496  -0.804  1.00  0.00     0.008 A 
ATOM      8  C   UNL     1       7.937  -1.904   0.922  1.00  0.00     0.054 A 
ATOM      9  C   UNL     1       7.546  -1.413  -1.770  1.00  0.00     0.051 A 
ATOM     10  C   UNL     1       8.355  -2.839  -0.022  1.00  0.00     0.166 A 
ATOM     11  C   UNL     1       8.155  -2.585  -1.363  1.00  0.00     0.165 A 
ATOM     12  O   UNL     1       8.982  -4.083   0.055  1.00  0.00    -0.454 OA
ATOM     13  O   UNL     1       8.657  -3.664  -2.076  1.00  0.00    -0.454 OA
ATOM     14  C   UNL     1       8.937  -4.740  -1.185  1.00  0.00     0.468 C 
ENDBRANCH   5   6
ENDBRANCH   1   5
TORSDOF 3
ENDMDL
MODEL 4
REMARK VINA RESULT:      -7.1      1.982      2.562
REMARK SMILES CC(=O)CCc1ccc2c(c1)OCO2
REMARK SMILES IDX 4 1 2 2 1 3 3 4 5 5 6 6 7 7 11 8 8 9 10 10 9 11 12 12 14 13
REMARK SMILES IDX 13 14
REMARK H PARENT
REMARK Flexibility Score: inf
ROOT
ATOM      1  C   UNL     1       6.803   0.731   1.146  1.00  0.00     0.080 C 
ENDROOT
BRANCH   1   2
ATOM      2  C   UNL     1       5.408   1.141   1.402  1.00  0.00     0.130 C 
ATOM      3  C   UNL     1       4.780   2.150   0.525  1.00  0.00     0.087 C 
ATOM      4  O   UNL     1       4.808   0.643   2.322  1.00  0.00    -0.300 OA
ENDBRANCH   1   2
BRANCH   1   5
ATOM      5  C   UNL     1       7.156   0.871  -0.320  1.00  0.00     0.043 C 
BRANCH   5   6
ATOM      6  C   UNL     1       7.638  -0.405  -0.858  1.00  0.00    -0.044 A 
ATOM      7  C   UNL     1       7.817  -0.565  -2.216  1.00  0.00     0.008 A 
ATOM      8  C   UNL     1       7.926  -1.482  -0.039  1.00  0.00     0.054 A 
ATOM      9  C   UNL     1       8.271  -1.760  -2.767  1.00  0.00     0.051 A 
ATOM     10  C   UNL     1       8.382  -2.691  -0.561  1.00  0.00     0.166 A 
ATOM     11  C   UNL     1       8.551  -2.819  -1.924  1.00  0.00     0.165 A 
ATOM     12  O   UNL     1       8.744  -3.915  -0.001  1.00  0.00    -0.454 OA
ATOM     13  O   UNL     1       9.008  -4.105  -2.173  1.00  0.00    -0.454 OA
ATOM     14  C   UNL     1       8.877  -4.897  -0.996  1.00  0.00     0.468 C 
ENDBRANCH   5   6
ENDBRANCH   1   5
TORSDOF 3
ENDMDL
MODEL 5
REMARK VINA RESULT:      -7.1      1.217      1.380
REMARK SMILES CC(=O)CCc1ccc2c(c1)OCO2
REMARK SMILES IDX 4 1 2 2 1 3 3 4 5 5 6 6 7 7 11 8 8 9 10 10 9 11 12 12 14 13
REMARK SMILES IDX 13 14
REMARK H PARENT
REMARK Flexibility Score: inf
ROOT
ATOM      1  C   UNL     1       6.234   1.322   0.926  1.00  0.00     0.080 C 
ENDROOT
BRANCH   1   2
ATOM      2  C   UNL     1       5.564   0.484   1.941  1.00  0.00     0.130 C 
ATOM      3  C   UNL     1       6.276  -0.685   2.494  1.00  0.00     0.087 C 
ATOM      4  O   UNL     1       4.449   0.773   2.297  1.00  0.00    -0.300 OA
ENDBRANCH   1   2
BRANCH   1   5
ATOM      5  C   UNL     1       5.731   1.005  -0.467  1.00  0.00     0.043 C 
BRANCH   5   6
ATOM      6  C   UNL     1       6.685   0.146  -1.176  1.00  0.00    -0.044 A 
ATOM      7  C   UNL     1       7.339   0.610  -2.298  1.00  0.00     0.008 A 
ATOM      8  C   UNL     1       6.963  -1.143  -0.755  1.00  0.00     0.054 A 
ATOM      9  C   UNL     1       8.251  -0.173  -3.000  1.00  0.00     0.051 A 
ATOM     10  C   UNL     1       7.871  -1.950  -1.437  1.00  0.00     0.166 A 
ATOM     11  C   UNL     1       8.508  -1.457  -2.556  1.00  0.00     0.165 A 
ATOM     12  O   UNL     1       8.340  -3.250  -1.255  1.00  0.00    -0.454 OA
ATOM     13  O   UNL     1       9.348  -2.452  -3.037  1.00  0.00    -0.454 OA
ATOM     14  C   UNL     1       9.051  -3.684  -2.386  1.00  0.00     0.468 C 
ENDBRANCH   5   6
ENDBRANCH   1   5
TORSDOF 3
ENDMDL
