@<TRIPOS>MOLECULE
/home/cewinharhar/GITHUB/reincatalyze/data/processed/docking_pred/2023-May-31-1603_sub9_nm5_bs15_s42_ex16_mel10_mts1000_k50_ec05_g099_lra3e-4_lrc9e-3/a5b16c92fd7591d551db5a31bdb9c28d24e6a5b8_ligand_9.pdbqt
 14 15 0 0 0
SMALL
GASTEIGER

@<TRIPOS>ATOM
      1  C          6.2340    1.3220    0.9260 C.3     1  UNL1        0.0800
      2  C          5.5640    0.4840    1.9410 C.2     1  UNL1        0.1300
      3  C          6.2760   -0.6850    2.4940 C.3     1  UNL1        0.0870
      4  O          4.4490    0.7730    2.2970 O.2     1  UNL1       -0.3000
      5  C          5.7310    1.0050   -0.4670 C.3     1  UNL1        0.0430
      6  C          6.6850    0.1460   -1.1760 C.2     1  UNL1       -0.0440
      7  C          7.3390    0.6100   -2.2980 C.2     1  UNL1        0.0080
      8  C          6.9630   -1.1430   -0.7550 C.2     1  UNL1        0.0540
      9  C          8.2510   -0.1730   -3.0000 C.2     1  UNL1        0.0510
     10  C          7.8710   -1.9500   -1.4370 C.2     1  UNL1        0.1660
     11  C          8.5080   -1.4570   -2.5560 C.2     1  UNL1        0.1650
     12  O          8.3400   -3.2500   -1.2550 O.2     1  UNL1       -0.4540
     13  O          9.3480   -2.4520   -3.0370 O.2     1  UNL1       -0.4540
     14  C          9.0510   -3.6840   -2.3860 C.3     1  UNL1        0.4680
@<TRIPOS>BOND
     1    13    11    1
     2    13    14    1
     3     9    11    2
     4     9     7    1
     5    11    10    1
     6    14    12    1
     7     7     6    2
     8    10    12    1
     9    10     8    2
    10     6     8    1
    11     6     5    1
    12     5     1    1
    13     1     2    1
    14     2     4    2
    15     2     3    1
