@<TRIPOS>MOLECULE
/home/cewinharhar/GITHUB/reincatalyze/data/processed/docking_pred/2023-May-31-1603_sub9_nm5_bs15_s42_ex16_mel10_mts1000_k50_ec05_g099_lra3e-4_lrc9e-3/a5b16c92fd7591d551db5a31bdb9c28d24e6a5b8_ligand_9.pdbqt
 14 15 0 0 0
SMALL
GASTEIGER

@<TRIPOS>ATOM
      1  C          5.6060    1.8400    1.3320 C.3     1  UNL1        0.0800
      2  C          5.1330    0.6430    2.0570 C.2     1  UNL1        0.1300
      3  C          6.0530   -0.4980    2.2410 C.3     1  UNL1        0.0870
      4  O          4.0050    0.6220    2.4830 O.2     1  UNL1       -0.3000
      5  C          5.4190    1.6860   -0.1630 C.3     1  UNL1        0.0430
      6  C          6.5480    0.9600   -0.7510 C.2     1  UNL1       -0.0440
      7  C          7.8380    1.4150   -0.5730 C.2     1  UNL1        0.0080
      8  C          6.3690   -0.1910   -1.4980 C.2     1  UNL1        0.0540
      9  C          8.9370    0.7550   -1.1150 C.2     1  UNL1        0.0510
     10  C          7.4490   -0.8730   -2.0530 C.2     1  UNL1        0.1660
     11  C          8.7270   -0.3920   -1.8560 C.2     1  UNL1        0.1650
     12  O          7.5760   -2.0250   -2.8290 O.2     1  UNL1       -0.4540
     13  O          9.6050   -1.2470   -2.5070 O.2     1  UNL1       -0.4540
     14  C          8.8740   -2.1310   -3.3530 C.3     1  UNL1        0.4680
@<TRIPOS>BOND
     1    14    12    1
     2    14    13    1
     3    12    10    1
     4    13    11    1
     5    10    11    2
     6    10     8    1
     7    11     9    1
     8     8     6    2
     9     9     7    2
    10     6     7    1
    11     6     5    1
    12     5     1    1
    13     1     2    1
    14     2     3    1
    15     2     4    2
