@<TRIPOS>MOLECULE
/home/cewinharhar/GITHUB/reincatalyze/data/processed/docking_pred/2023-May-31-1603_sub9_nm5_bs15_s42_ex16_mel10_mts1000_k50_ec05_g099_lra3e-4_lrc9e-3/a614218f6e6a1b7d791f470f20b1a009abdeaae3_ligand_9.pdbqt
 14 15 0 0 0
SMALL
GASTEIGER

@<TRIPOS>ATOM
      1  C          8.6980   -1.2580   -2.4960 C.3     1  UNL1        0.0800
      2  C          8.4170   -2.4170   -3.3650 C.2     1  UNL1        0.1300
      3  C          9.5160   -3.3390   -3.7170 C.3     1  UNL1        0.0870
      4  O          7.2940   -2.5880   -3.7720 O.2     1  UNL1       -0.3000
      5  C          7.5690   -0.2500   -2.5410 C.3     1  UNL1        0.0430
      6  C          6.9190   -0.1440   -1.2320 C.2     1  UNL1       -0.0440
      7  C          7.0630   -1.1510   -0.3000 C.2     1  UNL1        0.0080
      8  C          6.1490    0.9510   -0.8830 C.2     1  UNL1        0.0540
      9  C          6.4620   -1.0890    0.9550 C.2     1  UNL1        0.0510
     10  C          5.5360    1.0410    0.3650 C.2     1  UNL1        0.1660
     11  C          5.6980    0.0170    1.2750 C.2     1  UNL1        0.1650
     12  O          4.7250    1.9930    0.9820 O.2     1  UNL1       -0.4540
     13  O          4.9920    0.3550    2.4210 O.2     1  UNL1       -0.4540
     14  C          4.1500    1.4730    2.1530 C.3     1  UNL1        0.4680
@<TRIPOS>BOND
     1     4     2    2
     2     3     2    1
     3     2     1    1
     4     5     1    1
     5     5     6    1
     6     6     8    2
     7     6     7    1
     8     8    10    1
     9     7     9    2
    10    10    12    1
    11    10    11    2
    12     9    11    1
    13    12    14    1
    14    11    13    1
    15    14    13    1
