@<TRIPOS>MOLECULE
/home/cewinharhar/GITHUB/reincatalyze/data/processed/docking_pred/2023-May-31-1603_sub9_nm5_bs15_s42_ex16_mel10_mts1000_k50_ec05_g099_lra3e-4_lrc9e-3/a614218f6e6a1b7d791f470f20b1a009abdeaae3_ligand_9.pdbqt
 14 15 0 0 0
SMALL
GASTEIGER

@<TRIPOS>ATOM
      1  C          6.0350    1.7010    1.2450 C.3     1  UNL1        0.0800
      2  C          5.4660    0.6170    2.0700 C.2     1  UNL1        0.1300
      3  C          6.3020   -0.5580    2.3920 C.3     1  UNL1        0.0870
      4  O          4.3310    0.7120    2.4660 O.2     1  UNL1       -0.3000
      5  C          5.7120    1.5010   -0.2220 C.3     1  UNL1        0.0430
      6  C          6.7600    0.7130   -0.8770 C.2     1  UNL1       -0.0440
      7  C          8.0840    1.0840   -0.7640 C.2     1  UNL1        0.0080
      8  C          6.4700   -0.4150   -1.6230 C.2     1  UNL1        0.0540
      9  C          9.1090    0.3640   -1.3710 C.2     1  UNL1        0.0510
     10  C          7.4740   -1.1560   -2.2420 C.2     1  UNL1        0.1660
     11  C          8.7880   -0.7590   -2.1100 C.2     1  UNL1        0.1650
     12  O          7.4860   -2.3040   -3.0340 O.2     1  UNL1       -0.4540
     13  O          9.5740   -1.6590   -2.8160 O.2     1  UNL1       -0.4540
     14  C          8.7450   -2.4840   -3.6290 C.3     1  UNL1        0.4680
@<TRIPOS>BOND
     1    14    12    1
     2    14    13    1
     3    12    10    1
     4    13    11    1
     5    10    11    2
     6    10     8    1
     7    11     9    1
     8     8     6    2
     9     9     7    2
    10     6     7    1
    11     6     5    1
    12     5     1    1
    13     1     2    1
    14     2     3    1
    15     2     4    2
