MODEL 1
REMARK VINA RESULT:      -7.9      0.000      0.000
REMARK SMILES CC(=O)CCc1ccc2c(c1)OCO2
REMARK SMILES IDX 4 1 2 2 1 3 3 4 5 5 6 6 7 7 11 8 8 9 10 10 9 11 12 12 14 13
REMARK SMILES IDX 13 14
REMARK H PARENT
REMARK Flexibility Score: inf
ROOT
ATOM      1  C   UNL     1       6.035   1.701   1.245  1.00  0.00     0.080 C 
ENDROOT
BRANCH   1   2
ATOM      2  C   UNL     1       5.466   0.617   2.070  1.00  0.00     0.130 C 
ATOM      3  C   UNL     1       6.302  -0.558   2.392  1.00  0.00     0.087 C 
ATOM      4  O   UNL     1       4.331   0.712   2.466  1.00  0.00    -0.300 OA
ENDBRANCH   1   2
BRANCH   1   5
ATOM      5  C   UNL     1       5.712   1.501  -0.222  1.00  0.00     0.043 C 
BRANCH   5   6
ATOM      6  C   UNL     1       6.760   0.713  -0.877  1.00  0.00    -0.044 A 
ATOM      7  C   UNL     1       8.084   1.084  -0.764  1.00  0.00     0.008 A 
ATOM      8  C   UNL     1       6.470  -0.415  -1.623  1.00  0.00     0.054 A 
ATOM      9  C   UNL     1       9.109   0.364  -1.371  1.00  0.00     0.051 A 
ATOM     10  C   UNL     1       7.474  -1.156  -2.242  1.00  0.00     0.166 A 
ATOM     11  C   UNL     1       8.788  -0.759  -2.110  1.00  0.00     0.165 A 
ATOM     12  O   UNL     1       7.486  -2.304  -3.034  1.00  0.00    -0.454 OA
ATOM     13  O   UNL     1       9.574  -1.659  -2.816  1.00  0.00    -0.454 OA
ATOM     14  C   UNL     1       8.745  -2.484  -3.629  1.00  0.00     0.468 C 
ENDBRANCH   5   6
ENDBRANCH   1   5
TORSDOF 3
ENDMDL
MODEL 2
REMARK VINA RESULT:      -7.3      1.236      1.703
REMARK SMILES CC(=O)CCc1ccc2c(c1)OCO2
REMARK SMILES IDX 4 1 2 2 1 3 3 4 5 5 6 6 7 7 11 8 8 9 10 10 9 11 12 12 14 13
REMARK SMILES IDX 13 14
REMARK H PARENT
REMARK Flexibility Score: inf
ROOT
ATOM      1  C   UNL     1       5.430  -0.071   1.866  1.00  0.00     0.080 C 
ENDROOT
BRANCH   1   2
ATOM      2  C   UNL     1       4.629   1.168   1.804  1.00  0.00     0.130 C 
ATOM      3  C   UNL     1       4.895   2.145   0.729  1.00  0.00     0.087 C 
ATOM      4  O   UNL     1       3.773   1.357   2.632  1.00  0.00    -0.300 OA
ENDBRANCH   1   2
BRANCH   1   5
ATOM      5  C   UNL     1       6.911   0.226   1.752  1.00  0.00     0.043 C 
BRANCH   5   6
ATOM      6  C   UNL     1       7.419  -0.184   0.440  1.00  0.00    -0.044 A 
ATOM      7  C   UNL     1       7.769   0.765  -0.499  1.00  0.00     0.008 A 
ATOM      8  C   UNL     1       7.565  -1.516   0.094  1.00  0.00     0.054 A 
ATOM      9  C   UNL     1       8.254   0.417  -1.757  1.00  0.00     0.051 A 
ATOM     10  C   UNL     1       8.048  -1.894  -1.156  1.00  0.00     0.166 A 
ATOM     11  C   UNL     1       8.389  -0.922  -2.073  1.00  0.00     0.165 A 
ATOM     12  O   UNL     1       8.296  -3.121  -1.770  1.00  0.00    -0.454 OA
ATOM     13  O   UNL     1       8.836  -1.561  -3.220  1.00  0.00    -0.454 OA
ATOM     14  C   UNL     1       8.528  -2.951  -3.145  1.00  0.00     0.468 C 
ENDBRANCH   5   6
ENDBRANCH   1   5
TORSDOF 3
ENDMDL
MODEL 3
REMARK VINA RESULT:      -7.2      1.698      5.510
REMARK SMILES CC(=O)CCc1ccc2c(c1)OCO2
REMARK SMILES IDX 4 1 2 2 1 3 3 4 5 5 6 6 7 7 11 8 8 9 10 10 9 11 12 12 14 13
REMARK SMILES IDX 13 14
REMARK H PARENT
REMARK Flexibility Score: inf
ROOT
ATOM      1  C   UNL     1       8.187  -2.538  -3.584  1.00  0.00     0.080 C 
ENDROOT
BRANCH   1   2
ATOM      2  C   UNL     1       9.274  -3.529  -3.445  1.00  0.00     0.130 C 
ATOM      3  C   UNL     1       8.937  -4.966  -3.397  1.00  0.00     0.087 C 
ATOM      4  O   UNL     1      10.414  -3.144  -3.373  1.00  0.00    -0.300 OA
ENDBRANCH   1   2
BRANCH   1   5
ATOM      5  C   UNL     1       8.604  -1.187  -3.040  1.00  0.00     0.043 C 
BRANCH   5   6
ATOM      6  C   UNL     1       7.799  -0.834  -1.867  1.00  0.00    -0.044 A 
ATOM      7  C   UNL     1       6.985   0.279  -1.891  1.00  0.00     0.008 A 
ATOM      8  C   UNL     1       7.823  -1.589  -0.708  1.00  0.00     0.054 A 
ATOM      9  C   UNL     1       6.205   0.650  -0.798  1.00  0.00     0.051 A 
ATOM     10  C   UNL     1       7.054  -1.244   0.401  1.00  0.00     0.166 A 
ATOM     11  C   UNL     1       6.250  -0.125   0.346  1.00  0.00     0.165 A 
ATOM     12  O   UNL     1       6.877  -1.796   1.669  1.00  0.00    -0.454 OA
ATOM     13  O   UNL     1       5.601  -0.010   1.567  1.00  0.00    -0.454 OA
ATOM     14  C   UNL     1       6.191  -0.903   2.508  1.00  0.00     0.468 C 
ENDBRANCH   5   6
ENDBRANCH   1   5
TORSDOF 3
ENDMDL
MODEL 4
REMARK VINA RESULT:      -7.2      1.082      1.110
REMARK SMILES CC(=O)CCc1ccc2c(c1)OCO2
REMARK SMILES IDX 4 1 2 2 1 3 3 4 5 5 6 6 7 7 11 8 8 9 10 10 9 11 12 12 14 13
REMARK SMILES IDX 13 14
REMARK H PARENT
REMARK Flexibility Score: inf
ROOT
ATOM      1  C   UNL     1       6.363   1.328   0.918  1.00  0.00     0.080 C 
ENDROOT
BRANCH   1   2
ATOM      2  C   UNL     1       5.693   0.581   2.001  1.00  0.00     0.130 C 
ATOM      3  C   UNL     1       6.405  -0.538   2.651  1.00  0.00     0.087 C 
ATOM      4  O   UNL     1       4.578   0.899   2.333  1.00  0.00    -0.300 OA
ENDBRANCH   1   2
BRANCH   1   5
ATOM      5  C   UNL     1       5.790   0.964  -0.436  1.00  0.00     0.043 C 
BRANCH   5   6
ATOM      6  C   UNL     1       6.742   0.149  -1.196  1.00  0.00    -0.044 A 
ATOM      7  C   UNL     1       7.455   0.702  -2.240  1.00  0.00     0.008 A 
ATOM      8  C   UNL     1       6.960  -1.186  -0.903  1.00  0.00     0.054 A 
ATOM      9  C   UNL     1       8.367  -0.038  -2.987  1.00  0.00     0.051 A 
ATOM     10  C   UNL     1       7.867  -1.951  -1.632  1.00  0.00     0.166 A 
ATOM     11  C   UNL     1       8.565  -1.369  -2.670  1.00  0.00     0.165 A 
ATOM     12  O   UNL     1       8.286  -3.280  -1.571  1.00  0.00    -0.454 OA
ATOM     13  O   UNL     1       9.389  -2.339  -3.222  1.00  0.00    -0.454 OA
ATOM     14  C   UNL     1       9.027  -3.621  -2.714  1.00  0.00     0.468 C 
ENDBRANCH   5   6
ENDBRANCH   1   5
TORSDOF 3
ENDMDL
MODEL 5
REMARK VINA RESULT:      -7.2      1.275      5.537
REMARK SMILES CC(=O)CCc1ccc2c(c1)OCO2
REMARK SMILES IDX 4 1 2 2 1 3 3 4 5 5 6 6 7 7 11 8 8 9 10 10 9 11 12 12 14 13
REMARK SMILES IDX 13 14
REMARK H PARENT
REMARK Flexibility Score: inf
ROOT
ATOM      1  C   UNL     1       8.698  -1.258  -2.496  1.00  0.00     0.080 C 
ENDROOT
BRANCH   1   2
ATOM      2  C   UNL     1       8.417  -2.417  -3.365  1.00  0.00     0.130 C 
ATOM      3  C   UNL     1       9.516  -3.339  -3.717  1.00  0.00     0.087 C 
ATOM      4  O   UNL     1       7.294  -2.588  -3.772  1.00  0.00    -0.300 OA
ENDBRANCH   1   2
BRANCH   1   5
ATOM      5  C   UNL     1       7.569  -0.250  -2.541  1.00  0.00     0.043 C 
BRANCH   5   6
ATOM      6  C   UNL     1       6.919  -0.144  -1.232  1.00  0.00    -0.044 A 
ATOM      7  C   UNL     1       7.063  -1.151  -0.300  1.00  0.00     0.008 A 
ATOM      8  C   UNL     1       6.149   0.951  -0.883  1.00  0.00     0.054 A 
ATOM      9  C   UNL     1       6.462  -1.089   0.955  1.00  0.00     0.051 A 
ATOM     10  C   UNL     1       5.536   1.041   0.365  1.00  0.00     0.166 A 
ATOM     11  C   UNL     1       5.698   0.017   1.275  1.00  0.00     0.165 A 
ATOM     12  O   UNL     1       4.725   1.993   0.982  1.00  0.00    -0.454 OA
ATOM     13  O   UNL     1       4.992   0.355   2.421  1.00  0.00    -0.454 OA
ATOM     14  C   UNL     1       4.150   1.473   2.153  1.00  0.00     0.468 C 
ENDBRANCH   5   6
ENDBRANCH   1   5
TORSDOF 3
ENDMDL
