@<TRIPOS>MOLECULE
/home/cewinharhar/GITHUB/reincatalyze/data/processed/docking_pred/2023-May-31-1603_sub9_nm5_bs15_s42_ex16_mel10_mts1000_k50_ec05_g099_lra3e-4_lrc9e-3/a614218f6e6a1b7d791f470f20b1a009abdeaae3_ligand_9.pdbqt
 14 15 0 0 0
SMALL
GASTEIGER

@<TRIPOS>ATOM
      1  C          8.1870   -2.5380   -3.5840 C.3     1  UNL1        0.0800
      2  C          9.2740   -3.5290   -3.4450 C.2     1  UNL1        0.1300
      3  C          8.9370   -4.9660   -3.3970 C.3     1  UNL1        0.0870
      4  O         10.4140   -3.1440   -3.3730 O.2     1  UNL1       -0.3000
      5  C          8.6040   -1.1870   -3.0400 C.3     1  UNL1        0.0430
      6  C          7.7990   -0.8340   -1.8670 C.2     1  UNL1       -0.0440
      7  C          6.9850    0.2790   -1.8910 C.2     1  UNL1        0.0080
      8  C          7.8230   -1.5890   -0.7080 C.2     1  UNL1        0.0540
      9  C          6.2050    0.6500   -0.7980 C.2     1  UNL1        0.0510
     10  C          7.0540   -1.2440    0.4010 C.2     1  UNL1        0.1660
     11  C          6.2500   -0.1250    0.3460 C.2     1  UNL1        0.1650
     12  O          6.8770   -1.7960    1.6690 O.2     1  UNL1       -0.4540
     13  O          5.6010   -0.0100    1.5670 O.2     1  UNL1       -0.4540
     14  C          6.1910   -0.9030    2.5080 C.3     1  UNL1        0.4680
@<TRIPOS>BOND
     1     1     2    1
     2     1     5    1
     3     2     3    1
     4     2     4    2
     5     5     6    1
     6     7     6    2
     7     7     9    1
     8     6     8    1
     9     9    11    2
    10     8    10    2
    11    11    10    1
    12    11    13    1
    13    10    12    1
    14    13    14    1
    15    12    14    1
