@<TRIPOS>MOLECULE
/home/cewinharhar/GITHUB/reincatalyze/data/processed/docking_pred/2023-May-31-1603_sub9_nm5_bs15_s42_ex16_mel10_mts1000_k50_ec05_g099_lra3e-4_lrc9e-3/a614218f6e6a1b7d791f470f20b1a009abdeaae3_ligand_9.pdbqt
 14 15 0 0 0
SMALL
GASTEIGER

@<TRIPOS>ATOM
      1  C          5.4300   -0.0710    1.8660 C.3     1  UNL1        0.0800
      2  C          4.6290    1.1680    1.8040 C.2     1  UNL1        0.1300
      3  C          4.8950    2.1450    0.7290 C.3     1  UNL1        0.0870
      4  O          3.7730    1.3570    2.6320 O.2     1  UNL1       -0.3000
      5  C          6.9110    0.2260    1.7520 C.3     1  UNL1        0.0430
      6  C          7.4190   -0.1840    0.4400 C.2     1  UNL1       -0.0440
      7  C          7.7690    0.7650   -0.4990 C.2     1  UNL1        0.0080
      8  C          7.5650   -1.5160    0.0940 C.2     1  UNL1        0.0540
      9  C          8.2540    0.4170   -1.7570 C.2     1  UNL1        0.0510
     10  C          8.0480   -1.8940   -1.1560 C.2     1  UNL1        0.1660
     11  C          8.3890   -0.9220   -2.0730 C.2     1  UNL1        0.1650
     12  O          8.2960   -3.1210   -1.7700 O.2     1  UNL1       -0.4540
     13  O          8.8360   -1.5610   -3.2200 O.2     1  UNL1       -0.4540
     14  C          8.5280   -2.9510   -3.1450 C.3     1  UNL1        0.4680
@<TRIPOS>BOND
     1    13    14    1
     2    13    11    1
     3    14    12    1
     4    11     9    2
     5    11    10    1
     6    12    10    1
     7     9     7    1
     8    10     8    2
     9     7     6    2
    10     8     6    1
    11     6     5    1
    12     3     2    1
    13     5     1    1
    14     2     1    1
    15     2     4    2
