@<TRIPOS>MOLECULE
/home/cewinharhar/GITHUB/reincatalyze/data/processed/docking_pred/2023-May-31-1603_sub9_nm5_bs15_s42_ex16_mel10_mts1000_k50_ec05_g099_lra3e-4_lrc9e-3/a6201df4fd59712db5137144eee8a96fed35f0a9_ligand_9.pdbqt
 14 15 0 0 0
SMALL
GASTEIGER

@<TRIPOS>ATOM
      1  C          5.5640    1.8820    1.3020 C.3     1  UNL1        0.0800
      2  C          5.0880    0.6870    2.0270 C.2     1  UNL1        0.1300
      3  C          5.9970   -0.4650    2.1930 C.3     1  UNL1        0.0870
      4  O          3.9660    0.6760    2.4700 O.2     1  UNL1       -0.3000
      5  C          5.3900    1.7220   -0.1940 C.3     1  UNL1        0.0430
      6  C          6.5210    0.9890   -0.7680 C.2     1  UNL1       -0.0440
      7  C          7.8130    1.4250   -0.5580 C.2     1  UNL1        0.0080
      8  C          6.3430   -0.1510   -1.5330 C.2     1  UNL1        0.0540
      9  C          8.9150    0.7570   -1.0870 C.2     1  UNL1        0.0510
     10  C          7.4260   -0.8390   -2.0750 C.2     1  UNL1        0.1660
     11  C          8.7050   -0.3780   -1.8470 C.2     1  UNL1        0.1650
     12  O          7.5530   -1.9830   -2.8630 O.2     1  UNL1       -0.4540
     13  O          9.5850   -1.2360   -2.4910 O.2     1  UNL1       -0.4540
     14  C          8.8600   -2.1000   -3.3620 C.3     1  UNL1        0.4680
@<TRIPOS>BOND
     1    14    12    1
     2    14    13    1
     3    12    10    1
     4    13    11    1
     5    10    11    2
     6    10     8    1
     7    11     9    1
     8     8     6    2
     9     9     7    2
    10     6     7    1
    11     6     5    1
    12     5     1    1
    13     1     2    1
    14     2     3    1
    15     2     4    2
