@<TRIPOS>MOLECULE
/home/cewinharhar/GITHUB/reincatalyze/data/processed/docking_pred/2023-May-31-1603_sub9_nm5_bs15_s42_ex16_mel10_mts1000_k50_ec05_g099_lra3e-4_lrc9e-3/a8cbf1bb962d04eb60783bb2dc55df042853f03a_ligand_9.pdbqt
 14 15 0 0 0
SMALL
GASTEIGER

@<TRIPOS>ATOM
      1  C          5.3810   -0.0220    1.9620 C.3     1  UNL1        0.0800
      2  C          4.5400    1.1750    1.7580 C.2     1  UNL1        0.1300
      3  C          4.9100    2.1450    0.7070 C.3     1  UNL1        0.0870
      4  O          3.5680    1.3360    2.4530 O.2     1  UNL1       -0.3000
      5  C          6.8210    0.2470    1.5770 C.3     1  UNL1        0.0430
      6  C          7.2780   -0.7280    0.5820 C.2     1  UNL1       -0.0440
      7  C          7.1010   -0.4850   -0.7640 C.2     1  UNL1        0.0080
      8  C          7.8940   -1.9120    0.9460 C.2     1  UNL1        0.0540
      9  C          7.5200   -1.3850   -1.7400 C.2     1  UNL1        0.0510
     10  C          8.3240   -2.8320   -0.0070 C.2     1  UNL1        0.1660
     11  C          8.1330   -2.5590   -1.3460 C.2     1  UNL1        0.1650
     12  O          8.9570   -4.0730    0.0570 O.2     1  UNL1       -0.4540
     13  O          8.6450   -3.6250   -2.0710 O.2     1  UNL1       -0.4540
     14  C          8.9250   -4.7120   -1.1930 C.3     1  UNL1        0.4680
@<TRIPOS>BOND
     1    13    11    1
     2    13    14    1
     3     9    11    2
     4     9     7    1
     5    11    10    1
     6    14    12    1
     7     7     6    2
     8    10    12    1
     9    10     8    2
    10     6     8    1
    11     6     5    1
    12     3     2    1
    13     5     1    1
    14     2     1    1
    15     2     4    2
