@<TRIPOS>MOLECULE
/home/cewinharhar/GITHUB/reincatalyze/data/processed/docking_pred/2023-May-31-1603_sub9_nm5_bs15_s42_ex16_mel10_mts1000_k50_ec05_g099_lra3e-4_lrc9e-3/a8cbf1bb962d04eb60783bb2dc55df042853f03a_ligand_9.pdbqt
 14 15 0 0 0
SMALL
GASTEIGER

@<TRIPOS>ATOM
      1  C          8.2930    0.1920   -2.6180 C.3     1  UNL1        0.0800
      2  C          7.9860   -1.2490   -2.7270 C.2     1  UNL1        0.1300
      3  C          9.0800   -2.1990   -3.0070 C.3     1  UNL1        0.0870
      4  O          6.8460   -1.6190   -2.5850 O.2     1  UNL1       -0.3000
      5  C          8.8500    0.5320   -1.2510 C.3     1  UNL1        0.0430
      6  C          7.8010    0.4430   -0.2300 C.2     1  UNL1       -0.0440
      7  C          7.8300   -0.5640    0.7120 C.2     1  UNL1        0.0080
      8  C          6.7570    1.3490   -0.1730 C.2     1  UNL1        0.0540
      9  C          6.8530   -0.6840    1.6970 C.2     1  UNL1        0.0510
     10  C          5.7650    1.2540    0.8010 C.2     1  UNL1        0.1660
     11  C          5.8220    0.2360    1.7300 C.2     1  UNL1        0.1650
     12  O          4.6240    1.9990    1.1010 O.2     1  UNL1       -0.4540
     13  O          4.7290    0.3710    2.5720 O.2     1  UNL1       -0.4540
     14  C          3.8150    1.3170    2.0250 C.3     1  UNL1        0.4680
@<TRIPOS>BOND
     1     3     2    1
     2     2     1    1
     3     2     4    2
     4     1     5    1
     5     5     6    1
     6     6     8    2
     7     6     7    1
     8     8    10    1
     9     7     9    2
    10    10    12    1
    11    10    11    2
    12    12    14    1
    13     9    11    1
    14    11    13    1
    15    14    13    1
