MODEL 1
REMARK VINA RESULT:      -7.5      0.000      0.000
REMARK SMILES CC(=O)CCc1ccc2c(c1)OCO2
REMARK SMILES IDX 4 1 2 2 1 3 3 4 5 5 6 6 7 7 11 8 8 9 10 10 9 11 12 12 14 13
REMARK SMILES IDX 13 14
REMARK H PARENT
REMARK Flexibility Score: inf
ROOT
ATOM      1  C   UNL     1       5.607   1.811   1.339  1.00  0.00     0.080 C 
ENDROOT
BRANCH   1   2
ATOM      2  C   UNL     1       5.120   0.622   2.066  1.00  0.00     0.130 C 
ATOM      3  C   UNL     1       6.022  -0.533   2.245  1.00  0.00     0.087 C 
ATOM      4  O   UNL     1       3.994   0.618   2.499  1.00  0.00    -0.300 OA
ENDBRANCH   1   2
BRANCH   1   5
ATOM      5  C   UNL     1       5.419   1.656  -0.156  1.00  0.00     0.043 C 
BRANCH   5   6
ATOM      6  C   UNL     1       6.552   0.938  -0.746  1.00  0.00    -0.044 A 
ATOM      7  C   UNL     1       7.839   1.404  -0.572  1.00  0.00     0.008 A 
ATOM      8  C   UNL     1       6.381  -0.215  -1.491  1.00  0.00     0.054 A 
ATOM      9  C   UNL     1       8.942   0.752  -1.116  1.00  0.00     0.051 A 
ATOM     10  C   UNL     1       7.465  -0.889  -2.048  1.00  0.00     0.166 A 
ATOM     11  C   UNL     1       8.739  -0.398  -1.855  1.00  0.00     0.165 A 
ATOM     12  O   UNL     1       7.598  -2.041  -2.823  1.00  0.00    -0.454 OA
ATOM     13  O   UNL     1       9.622  -1.247  -2.508  1.00  0.00    -0.454 OA
ATOM     14  C   UNL     1       8.896  -2.137  -3.350  1.00  0.00     0.468 C 
ENDBRANCH   5   6
ENDBRANCH   1   5
TORSDOF 3
ENDMDL
MODEL 2
REMARK VINA RESULT:      -7.3      2.065      2.627
REMARK SMILES CC(=O)CCc1ccc2c(c1)OCO2
REMARK SMILES IDX 4 1 2 2 1 3 3 4 5 5 6 6 7 7 11 8 8 9 10 10 9 11 12 12 14 13
REMARK SMILES IDX 13 14
REMARK H PARENT
REMARK Flexibility Score: inf
ROOT
ATOM      1  C   UNL     1       5.381  -0.022   1.962  1.00  0.00     0.080 C 
ENDROOT
BRANCH   1   2
ATOM      2  C   UNL     1       4.540   1.175   1.758  1.00  0.00     0.130 C 
ATOM      3  C   UNL     1       4.910   2.145   0.707  1.00  0.00     0.087 C 
ATOM      4  O   UNL     1       3.568   1.336   2.453  1.00  0.00    -0.300 OA
ENDBRANCH   1   2
BRANCH   1   5
ATOM      5  C   UNL     1       6.821   0.247   1.577  1.00  0.00     0.043 C 
BRANCH   5   6
ATOM      6  C   UNL     1       7.278  -0.728   0.582  1.00  0.00    -0.044 A 
ATOM      7  C   UNL     1       7.101  -0.485  -0.764  1.00  0.00     0.008 A 
ATOM      8  C   UNL     1       7.894  -1.912   0.946  1.00  0.00     0.054 A 
ATOM      9  C   UNL     1       7.520  -1.385  -1.740  1.00  0.00     0.051 A 
ATOM     10  C   UNL     1       8.324  -2.832  -0.007  1.00  0.00     0.166 A 
ATOM     11  C   UNL     1       8.133  -2.559  -1.346  1.00  0.00     0.165 A 
ATOM     12  O   UNL     1       8.957  -4.073   0.057  1.00  0.00    -0.454 OA
ATOM     13  O   UNL     1       8.645  -3.625  -2.071  1.00  0.00    -0.454 OA
ATOM     14  C   UNL     1       8.925  -4.712  -1.193  1.00  0.00     0.468 C 
ENDBRANCH   5   6
ENDBRANCH   1   5
TORSDOF 3
ENDMDL
MODEL 3
REMARK VINA RESULT:      -7.3      1.946      2.365
REMARK SMILES CC(=O)CCc1ccc2c(c1)OCO2
REMARK SMILES IDX 4 1 2 2 1 3 3 4 5 5 6 6 7 7 11 8 8 9 10 10 9 11 12 12 14 13
REMARK SMILES IDX 13 14
REMARK H PARENT
REMARK Flexibility Score: inf
ROOT
ATOM      1  C   UNL     1       5.698   1.283  -0.215  1.00  0.00     0.080 C 
ENDROOT
BRANCH   1   2
ATOM      2  C   UNL     1       5.085   1.246   1.127  1.00  0.00     0.130 C 
ATOM      3  C   UNL     1       5.372   0.104   2.020  1.00  0.00     0.087 C 
ATOM      4  O   UNL     1       4.362   2.149   1.468  1.00  0.00    -0.300 OA
ENDBRANCH   1   2
BRANCH   1   5
ATOM      5  C   UNL     1       7.202   1.117  -0.137  1.00  0.00     0.043 C 
BRANCH   5   6
ATOM      6  C   UNL     1       7.607  -0.173  -0.704  1.00  0.00    -0.044 A 
ATOM      7  C   UNL     1       7.609  -0.365  -2.070  1.00  0.00     0.008 A 
ATOM      8  C   UNL     1       7.998  -1.233   0.095  1.00  0.00     0.054 A 
ATOM      9  C   UNL     1       7.986  -1.574  -2.647  1.00  0.00     0.051 A 
ATOM     10  C   UNL     1       8.381  -2.455  -0.454  1.00  0.00     0.166 A 
ATOM     11  C   UNL     1       8.372  -2.615  -1.824  1.00  0.00     0.165 A 
ATOM     12  O   UNL     1       8.812  -3.668   0.083  1.00  0.00    -0.454 OA
ATOM     13  O   UNL     1       8.791  -3.908  -2.101  1.00  0.00    -0.454 OA
ATOM     14  C   UNL     1       8.813  -4.673  -0.899  1.00  0.00     0.468 C 
ENDBRANCH   5   6
ENDBRANCH   1   5
TORSDOF 3
ENDMDL
MODEL 4
REMARK VINA RESULT:      -7.1      1.949      2.562
REMARK SMILES CC(=O)CCc1ccc2c(c1)OCO2
REMARK SMILES IDX 4 1 2 2 1 3 3 4 5 5 6 6 7 7 11 8 8 9 10 10 9 11 12 12 14 13
REMARK SMILES IDX 13 14
REMARK H PARENT
REMARK Flexibility Score: inf
ROOT
ATOM      1  C   UNL     1       6.772   0.696   1.037  1.00  0.00     0.080 C 
ENDROOT
BRANCH   1   2
ATOM      2  C   UNL     1       5.402   1.136   1.368  1.00  0.00     0.130 C 
ATOM      3  C   UNL     1       4.745   2.150   0.518  1.00  0.00     0.087 C 
ATOM      4  O   UNL     1       4.847   0.658   2.326  1.00  0.00    -0.300 OA
ENDBRANCH   1   2
BRANCH   1   5
ATOM      5  C   UNL     1       7.037   0.799  -0.451  1.00  0.00     0.043 C 
BRANCH   5   6
ATOM      6  C   UNL     1       7.572  -0.464  -0.967  1.00  0.00    -0.044 A 
ATOM      7  C   UNL     1       7.815  -0.619  -2.316  1.00  0.00     0.008 A 
ATOM      8  C   UNL     1       7.851  -1.536  -0.136  1.00  0.00     0.054 A 
ATOM      9  C   UNL     1       8.322  -1.802  -2.846  1.00  0.00     0.051 A 
ATOM     10  C   UNL     1       8.359  -2.732  -0.638  1.00  0.00     0.166 A 
ATOM     11  C   UNL     1       8.591  -2.855  -1.992  1.00  0.00     0.165 A 
ATOM     12  O   UNL     1       8.726  -3.948  -0.062  1.00  0.00    -0.454 OA
ATOM     13  O   UNL     1       9.090  -4.129  -2.221  1.00  0.00    -0.454 OA
ATOM     14  C   UNL     1       8.927  -4.925  -1.050  1.00  0.00     0.468 C 
ENDBRANCH   5   6
ENDBRANCH   1   5
TORSDOF 3
ENDMDL
MODEL 5
REMARK VINA RESULT:      -7.0      1.212      5.184
REMARK SMILES CC(=O)CCc1ccc2c(c1)OCO2
REMARK SMILES IDX 4 1 2 2 1 3 3 4 5 5 6 6 7 7 11 8 8 9 10 10 9 11 12 12 14 13
REMARK SMILES IDX 13 14
REMARK H PARENT
REMARK Flexibility Score: inf
ROOT
ATOM      1  C   UNL     1       8.293   0.192  -2.618  1.00  0.00     0.080 C 
ENDROOT
BRANCH   1   2
ATOM      2  C   UNL     1       7.986  -1.249  -2.727  1.00  0.00     0.130 C 
ATOM      3  C   UNL     1       9.080  -2.199  -3.007  1.00  0.00     0.087 C 
ATOM      4  O   UNL     1       6.846  -1.619  -2.585  1.00  0.00    -0.300 OA
ENDBRANCH   1   2
BRANCH   1   5
ATOM      5  C   UNL     1       8.850   0.532  -1.251  1.00  0.00     0.043 C 
BRANCH   5   6
ATOM      6  C   UNL     1       7.801   0.443  -0.230  1.00  0.00    -0.044 A 
ATOM      7  C   UNL     1       7.830  -0.564   0.712  1.00  0.00     0.008 A 
ATOM      8  C   UNL     1       6.757   1.349  -0.173  1.00  0.00     0.054 A 
ATOM      9  C   UNL     1       6.853  -0.684   1.697  1.00  0.00     0.051 A 
ATOM     10  C   UNL     1       5.765   1.254   0.801  1.00  0.00     0.166 A 
ATOM     11  C   UNL     1       5.822   0.236   1.730  1.00  0.00     0.165 A 
ATOM     12  O   UNL     1       4.624   1.999   1.101  1.00  0.00    -0.454 OA
ATOM     13  O   UNL     1       4.729   0.371   2.572  1.00  0.00    -0.454 OA
ATOM     14  C   UNL     1       3.815   1.317   2.025  1.00  0.00     0.468 C 
ENDBRANCH   5   6
ENDBRANCH   1   5
TORSDOF 3
ENDMDL
