@<TRIPOS>MOLECULE
/home/cewinharhar/GITHUB/reincatalyze/data/processed/docking_pred/2023-May-31-1603_sub9_nm5_bs15_s42_ex16_mel10_mts1000_k50_ec05_g099_lra3e-4_lrc9e-3/a8cbf1bb962d04eb60783bb2dc55df042853f03a_ligand_9.pdbqt
 14 15 0 0 0
SMALL
GASTEIGER

@<TRIPOS>ATOM
      1  C          5.6980    1.2830   -0.2150 C.3     1  UNL1        0.0800
      2  C          5.0850    1.2460    1.1270 C.2     1  UNL1        0.1300
      3  C          5.3720    0.1040    2.0200 C.3     1  UNL1        0.0870
      4  O          4.3620    2.1490    1.4680 O.2     1  UNL1       -0.3000
      5  C          7.2020    1.1170   -0.1370 C.3     1  UNL1        0.0430
      6  C          7.6070   -0.1730   -0.7040 C.2     1  UNL1       -0.0440
      7  C          7.6090   -0.3650   -2.0700 C.2     1  UNL1        0.0080
      8  C          7.9980   -1.2330    0.0950 C.2     1  UNL1        0.0540
      9  C          7.9860   -1.5740   -2.6470 C.2     1  UNL1        0.0510
     10  C          8.3810   -2.4550   -0.4540 C.2     1  UNL1        0.1660
     11  C          8.3720   -2.6150   -1.8240 C.2     1  UNL1        0.1650
     12  O          8.8120   -3.6680    0.0830 O.2     1  UNL1       -0.4540
     13  O          8.7910   -3.9080   -2.1010 O.2     1  UNL1       -0.4540
     14  C          8.8130   -4.6730   -0.8990 C.3     1  UNL1        0.4680
@<TRIPOS>BOND
     1     9     7    1
     2     9    11    2
     3    13    11    1
     4    13    14    1
     5     7     6    2
     6    11    10    1
     7    14    12    1
     8     6     5    1
     9     6     8    1
    10    10    12    1
    11    10     8    2
    12     1     5    1
    13     1     2    1
    14     2     4    2
    15     2     3    1
