@<TRIPOS>MOLECULE
/home/cewinharhar/GITHUB/reincatalyze/data/processed/docking_pred/2023-May-31-1603_sub9_nm5_bs15_s42_ex16_mel10_mts1000_k50_ec05_g099_lra3e-4_lrc9e-3/a991e05863b38587be5f018959c733685726fb49_ligand_9.pdbqt
 14 15 0 0 0
SMALL
GASTEIGER

@<TRIPOS>ATOM
      1  C          5.6410    1.8020    1.3740 C.3     1  UNL1        0.0800
      2  C          5.1480    0.6060    2.0860 C.2     1  UNL1        0.1300
      3  C          6.0490   -0.5500    2.2620 C.3     1  UNL1        0.0870
      4  O          4.0190    0.5980    2.5100 O.2     1  UNL1       -0.3000
      5  C          5.4510    1.6660   -0.1230 C.3     1  UNL1        0.0430
      6  C          6.5790    0.9460   -0.7220 C.2     1  UNL1       -0.0440
      7  C          7.8670    1.4130   -0.5640 C.2     1  UNL1        0.0080
      8  C          6.4000   -0.2130   -1.4570 C.2     1  UNL1        0.0540
      9  C          8.9650    0.7590   -1.1170 C.2     1  UNL1        0.0510
     10  C          7.4790   -0.8890   -2.0220 C.2     1  UNL1        0.1660
     11  C          8.7550   -0.3960   -1.8470 C.2     1  UNL1        0.1650
     12  O          7.6040   -2.0460   -2.7910 O.2     1  UNL1       -0.4540
     13  O          9.6310   -1.2480   -2.5040 O.2     1  UNL1       -0.4540
     14  C          8.8970   -2.1440   -3.3330 C.3     1  UNL1        0.4680
@<TRIPOS>BOND
     1    14    12    1
     2    14    13    1
     3    12    10    1
     4    13    11    1
     5    10    11    2
     6    10     8    1
     7    11     9    1
     8     8     6    2
     9     9     7    2
    10     6     7    1
    11     6     5    1
    12     5     1    1
    13     1     2    1
    14     2     3    1
    15     2     4    2
