MODEL 1
REMARK VINA RESULT:      -7.5      0.000      0.000
REMARK SMILES CC(=O)CCc1ccc2c(c1)OCO2
REMARK SMILES IDX 4 1 2 2 1 3 3 4 5 5 6 6 7 7 11 8 8 9 10 10 9 11 12 12 14 13
REMARK SMILES IDX 13 14
REMARK H PARENT
REMARK Flexibility Score: inf
ROOT
ATOM      1  C   UNL     1       5.641   1.802   1.374  1.00  0.00     0.080 C 
ENDROOT
BRANCH   1   2
ATOM      2  C   UNL     1       5.148   0.606   2.086  1.00  0.00     0.130 C 
ATOM      3  C   UNL     1       6.049  -0.550   2.262  1.00  0.00     0.087 C 
ATOM      4  O   UNL     1       4.019   0.598   2.510  1.00  0.00    -0.300 OA
ENDBRANCH   1   2
BRANCH   1   5
ATOM      5  C   UNL     1       5.451   1.666  -0.123  1.00  0.00     0.043 C 
BRANCH   5   6
ATOM      6  C   UNL     1       6.579   0.946  -0.722  1.00  0.00    -0.044 A 
ATOM      7  C   UNL     1       7.867   1.413  -0.564  1.00  0.00     0.008 A 
ATOM      8  C   UNL     1       6.400  -0.213  -1.457  1.00  0.00     0.054 A 
ATOM      9  C   UNL     1       8.965   0.759  -1.117  1.00  0.00     0.051 A 
ATOM     10  C   UNL     1       7.479  -0.889  -2.022  1.00  0.00     0.166 A 
ATOM     11  C   UNL     1       8.755  -0.396  -1.847  1.00  0.00     0.165 A 
ATOM     12  O   UNL     1       7.604  -2.046  -2.791  1.00  0.00    -0.454 OA
ATOM     13  O   UNL     1       9.631  -1.248  -2.504  1.00  0.00    -0.454 OA
ATOM     14  C   UNL     1       8.897  -2.144  -3.333  1.00  0.00     0.468 C 
ENDBRANCH   5   6
ENDBRANCH   1   5
TORSDOF 3
ENDMDL
MODEL 2
REMARK VINA RESULT:      -7.3      1.728      2.170
REMARK SMILES CC(=O)CCc1ccc2c(c1)OCO2
REMARK SMILES IDX 4 1 2 2 1 3 3 4 5 5 6 6 7 7 11 8 8 9 10 10 9 11 12 12 14 13
REMARK SMILES IDX 13 14
REMARK H PARENT
REMARK Flexibility Score: inf
ROOT
ATOM      1  C   UNL     1       6.524   1.340   0.432  1.00  0.00     0.080 C 
ENDROOT
BRANCH   1   2
ATOM      2  C   UNL     1       5.363   1.130   1.321  1.00  0.00     0.130 C 
ATOM      3  C   UNL     1       5.272  -0.118   2.104  1.00  0.00     0.087 C 
ATOM      4  O   UNL     1       4.513   1.983   1.388  1.00  0.00    -0.300 OA
ENDBRANCH   1   2
BRANCH   1   5
ATOM      5  C   UNL     1       6.205   0.935  -0.992  1.00  0.00     0.043 C 
BRANCH   5   6
ATOM      6  C   UNL     1       6.983  -0.246  -1.378  1.00  0.00    -0.044 A 
ATOM      7  C   UNL     1       7.423  -0.396  -2.677  1.00  0.00     0.008 A 
ATOM      8  C   UNL     1       7.302  -1.241  -0.471  1.00  0.00     0.054 A 
ATOM      9  C   UNL     1       8.163  -1.503  -3.084  1.00  0.00     0.051 A 
ATOM     10  C   UNL     1       8.041  -2.360  -0.849  1.00  0.00     0.166 A 
ATOM     11  C   UNL     1       8.466  -2.481  -2.155  1.00  0.00     0.165 A 
ATOM     12  O   UNL     1       8.501  -3.491  -0.177  1.00  0.00    -0.454 OA
ATOM     13  O   UNL     1       9.171  -3.671  -2.261  1.00  0.00    -0.454 OA
ATOM     14  C   UNL     1       8.972  -4.452  -1.087  1.00  0.00     0.468 C 
ENDBRANCH   5   6
ENDBRANCH   1   5
TORSDOF 3
ENDMDL
MODEL 3
REMARK VINA RESULT:      -7.2      2.107      2.656
REMARK SMILES CC(=O)CCc1ccc2c(c1)OCO2
REMARK SMILES IDX 4 1 2 2 1 3 3 4 5 5 6 6 7 7 11 8 8 9 10 10 9 11 12 12 14 13
REMARK SMILES IDX 13 14
REMARK H PARENT
REMARK Flexibility Score: inf
ROOT
ATOM      1  C   UNL     1       5.403  -0.039   1.849  1.00  0.00     0.080 C 
ENDROOT
BRANCH   1   2
ATOM      2  C   UNL     1       4.605   1.182   1.617  1.00  0.00     0.130 C 
ATOM      3  C   UNL     1       5.010   2.114   0.545  1.00  0.00     0.087 C 
ATOM      4  O   UNL     1       3.640   1.394   2.309  1.00  0.00    -0.300 OA
ENDBRANCH   1   2
BRANCH   1   5
ATOM      5  C   UNL     1       6.865   0.191   1.529  1.00  0.00     0.043 C 
BRANCH   5   6
ATOM      6  C   UNL     1       7.338  -0.790   0.548  1.00  0.00    -0.044 A 
ATOM      7  C   UNL     1       7.206  -0.543  -0.803  1.00  0.00     0.008 A 
ATOM      8  C   UNL     1       7.925  -1.983   0.930  1.00  0.00     0.054 A 
ATOM      9  C   UNL     1       7.641  -1.448  -1.767  1.00  0.00     0.051 A 
ATOM     10  C   UNL     1       8.371  -2.908  -0.011  1.00  0.00     0.166 A 
ATOM     11  C   UNL     1       8.224  -2.632  -1.355  1.00  0.00     0.165 A 
ATOM     12  O   UNL     1       8.984  -4.158   0.070  1.00  0.00    -0.454 OA
ATOM     13  O   UNL     1       8.743  -3.705  -2.066  1.00  0.00    -0.454 OA
ATOM     14  C   UNL     1       8.981  -4.796  -1.181  1.00  0.00     0.468 C 
ENDBRANCH   5   6
ENDBRANCH   1   5
TORSDOF 3
ENDMDL
MODEL 4
REMARK VINA RESULT:      -7.1      1.925      2.557
REMARK SMILES CC(=O)CCc1ccc2c(c1)OCO2
REMARK SMILES IDX 4 1 2 2 1 3 3 4 5 5 6 6 7 7 11 8 8 9 10 10 9 11 12 12 14 13
REMARK SMILES IDX 13 14
REMARK H PARENT
REMARK Flexibility Score: inf
ROOT
ATOM      1  C   UNL     1       6.685   0.722   1.069  1.00  0.00     0.080 C 
ENDROOT
BRANCH   1   2
ATOM      2  C   UNL     1       5.306   1.214   1.264  1.00  0.00     0.130 C 
ATOM      3  C   UNL     1       4.729   2.149   0.278  1.00  0.00     0.087 C 
ATOM      4  O   UNL     1       4.680   0.842   2.225  1.00  0.00    -0.300 OA
ENDBRANCH   1   2
BRANCH   1   5
ATOM      5  C   UNL     1       7.125   0.878  -0.371  1.00  0.00     0.043 C 
BRANCH   5   6
ATOM      6  C   UNL     1       7.609  -0.399  -0.904  1.00  0.00    -0.044 A 
ATOM      7  C   UNL     1       7.773  -0.570  -2.263  1.00  0.00     0.008 A 
ATOM      8  C   UNL     1       7.914  -1.468  -0.079  1.00  0.00     0.054 A 
ATOM      9  C   UNL     1       8.229  -1.767  -2.809  1.00  0.00     0.051 A 
ATOM     10  C   UNL     1       8.372  -2.677  -0.596  1.00  0.00     0.166 A 
ATOM     11  C   UNL     1       8.526  -2.816  -1.960  1.00  0.00     0.165 A 
ATOM     12  O   UNL     1       8.749  -3.894  -0.030  1.00  0.00    -0.454 OA
ATOM     13  O   UNL     1       8.988  -4.101  -2.204  1.00  0.00    -0.454 OA
ATOM     14  C   UNL     1       8.877  -4.884  -1.018  1.00  0.00     0.468 C 
ENDBRANCH   5   6
ENDBRANCH   1   5
TORSDOF 3
ENDMDL
MODEL 5
REMARK VINA RESULT:      -7.1      1.227      1.402
REMARK SMILES CC(=O)CCc1ccc2c(c1)OCO2
REMARK SMILES IDX 4 1 2 2 1 3 3 4 5 5 6 6 7 7 11 8 8 9 10 10 9 11 12 12 14 13
REMARK SMILES IDX 13 14
REMARK H PARENT
REMARK Flexibility Score: inf
ROOT
ATOM      1  C   UNL     1       6.310   1.241   0.972  1.00  0.00     0.080 C 
ENDROOT
BRANCH   1   2
ATOM      2  C   UNL     1       5.599   0.414   1.967  1.00  0.00     0.130 C 
ATOM      3  C   UNL     1       6.265  -0.784   2.517  1.00  0.00     0.087 C 
ATOM      4  O   UNL     1       4.488   0.733   2.311  1.00  0.00    -0.300 OA
ENDBRANCH   1   2
BRANCH   1   5
ATOM      5  C   UNL     1       5.808   0.965  -0.430  1.00  0.00     0.043 C 
BRANCH   5   6
ATOM      6  C   UNL     1       6.746   0.101  -1.152  1.00  0.00    -0.044 A 
ATOM      7  C   UNL     1       7.391   0.562  -2.281  1.00  0.00     0.008 A 
ATOM      8  C   UNL     1       7.018  -1.192  -0.739  1.00  0.00     0.054 A 
ATOM      9  C   UNL     1       8.288  -0.227  -2.996  1.00  0.00     0.051 A 
ATOM     10  C   UNL     1       7.911  -2.004  -1.433  1.00  0.00     0.166 A 
ATOM     11  C   UNL     1       8.540  -1.513  -2.558  1.00  0.00     0.165 A 
ATOM     12  O   UNL     1       8.371  -3.309  -1.261  1.00  0.00    -0.454 OA
ATOM     13  O   UNL     1       9.365  -2.514  -3.051  1.00  0.00    -0.454 OA
ATOM     14  C   UNL     1       9.066  -3.746  -2.400  1.00  0.00     0.468 C 
ENDBRANCH   5   6
ENDBRANCH   1   5
TORSDOF 3
ENDMDL
