@<TRIPOS>MOLECULE
/home/cewinharhar/GITHUB/reincatalyze/data/processed/docking_pred/2023-May-31-1603_sub9_nm5_bs15_s42_ex16_mel10_mts1000_k50_ec05_g099_lra3e-4_lrc9e-3/a9d08a951453574d65a810177cdd831b7fbb923c_ligand_9.pdbqt
 14 15 0 0 0
SMALL
GASTEIGER

@<TRIPOS>ATOM
      1  C          5.6100    1.8430    1.3330 C.3     1  UNL1        0.0800
      2  C          5.1360    0.6460    2.0570 C.2     1  UNL1        0.1300
      3  C          6.0540   -0.4960    2.2410 C.3     1  UNL1        0.0870
      4  O          4.0070    0.6260    2.4830 O.2     1  UNL1       -0.3000
      5  C          5.4230    1.6900   -0.1620 C.3     1  UNL1        0.0430
      6  C          6.5520    0.9620   -0.7500 C.2     1  UNL1       -0.0440
      7  C          7.8430    1.4140   -0.5700 C.2     1  UNL1        0.0080
      8  C          6.3720   -0.1890   -1.4970 C.2     1  UNL1        0.0540
      9  C          8.9410    0.7530   -1.1120 C.2     1  UNL1        0.0510
     10  C          7.4510   -0.8730   -2.0510 C.2     1  UNL1        0.1660
     11  C          8.7300   -0.3940   -1.8530 C.2     1  UNL1        0.1650
     12  O          7.5760   -2.0250   -2.8270 O.2     1  UNL1       -0.4540
     13  O          9.6060   -1.2510   -2.5040 O.2     1  UNL1       -0.4540
     14  C          8.8750   -2.1330   -3.3500 C.3     1  UNL1        0.4680
@<TRIPOS>BOND
     1    14    12    1
     2    14    13    1
     3    12    10    1
     4    13    11    1
     5    10    11    2
     6    10     8    1
     7    11     9    1
     8     8     6    2
     9     9     7    2
    10     6     7    1
    11     6     5    1
    12     5     1    1
    13     1     2    1
    14     2     3    1
    15     2     4    2
