@<TRIPOS>MOLECULE
/home/cewinharhar/GITHUB/reincatalyze/data/processed/docking_pred/2023-May-31-1603_sub9_nm5_bs15_s42_ex16_mel10_mts1000_k50_ec05_g099_lra3e-4_lrc9e-3/a9d08a951453574d65a810177cdd831b7fbb923c_ligand_9.pdbqt
 14 15 0 0 0
SMALL
GASTEIGER

@<TRIPOS>ATOM
      1  C          5.6710    1.1280   -0.2820 C.3     1  UNL1        0.0800
      2  C          5.1510    1.1640    1.1000 C.2     1  UNL1        0.1300
      3  C          5.3540   -0.0070    1.9770 C.3     1  UNL1        0.0870
      4  O          4.5710    2.1490    1.4840 O.2     1  UNL1       -0.3000
      5  C          7.1830    1.0500   -0.2970 C.3     1  UNL1        0.0430
      6  C          7.6260   -0.2410   -0.8330 C.2     1  UNL1       -0.0440
      7  C          7.7310   -0.4300   -2.1960 C.2     1  UNL1        0.0080
      8  C          7.9520   -1.3040   -0.0090 C.2     1  UNL1        0.0540
      9  C          8.1460   -1.6400   -2.7450 C.2     1  UNL1        0.0510
     10  C          8.3710   -2.5260   -0.5290 C.2     1  UNL1        0.1660
     11  C          8.4650   -2.6840   -1.8960 C.2     1  UNL1        0.1650
     12  O          8.7550   -3.7410    0.0370 O.2     1  UNL1       -0.4540
     13  O          8.8990   -3.9780   -2.1430 O.2     1  UNL1       -0.4540
     14  C          8.8280   -4.7440   -0.9440 C.3     1  UNL1        0.4680
@<TRIPOS>BOND
     1     9     7    1
     2     9    11    2
     3     7     6    2
     4    13    11    1
     5    13    14    1
     6    11    10    1
     7    14    12    1
     8     6     5    1
     9     6     8    1
    10    10     8    2
    11    10    12    1
    12     5     1    1
    13     1     2    1
    14     2     4    2
    15     2     3    1
