MODEL 1
REMARK VINA RESULT:      -7.5      0.000      0.000
REMARK SMILES CC(=O)CCc1ccc2c(c1)OCO2
REMARK SMILES IDX 4 1 2 2 1 3 3 4 5 5 6 6 7 7 11 8 8 9 10 10 9 11 12 12 14 13
REMARK SMILES IDX 13 14
REMARK H PARENT
REMARK Flexibility Score: inf
ROOT
ATOM      1  C   UNL     1       5.633   1.823   1.344  1.00  0.00     0.080 C 
ENDROOT
BRANCH   1   2
ATOM      2  C   UNL     1       5.135   0.633   2.063  1.00  0.00     0.130 C 
ATOM      3  C   UNL     1       6.035  -0.522   2.254  1.00  0.00     0.087 C 
ATOM      4  O   UNL     1       4.003   0.629   2.479  1.00  0.00    -0.300 OA
ENDBRANCH   1   2
BRANCH   1   5
ATOM      5  C   UNL     1       5.448   1.678  -0.152  1.00  0.00     0.043 C 
BRANCH   5   6
ATOM      6  C   UNL     1       6.577   0.952  -0.742  1.00  0.00    -0.044 A 
ATOM      7  C   UNL     1       7.865   1.420  -0.584  1.00  0.00     0.008 A 
ATOM      8  C   UNL     1       6.399  -0.210  -1.472  1.00  0.00     0.054 A 
ATOM      9  C   UNL     1       8.964   0.761  -1.129  1.00  0.00     0.051 A 
ATOM     10  C   UNL     1       7.479  -0.891  -2.029  1.00  0.00     0.166 A 
ATOM     11  C   UNL     1       8.755  -0.398  -1.852  1.00  0.00     0.165 A 
ATOM     12  O   UNL     1       7.606  -2.053  -2.790  1.00  0.00    -0.454 OA
ATOM     13  O   UNL     1       9.632  -1.255  -2.501  1.00  0.00    -0.454 OA
ATOM     14  C   UNL     1       8.900  -2.156  -3.327  1.00  0.00     0.468 C 
ENDBRANCH   5   6
ENDBRANCH   1   5
TORSDOF 3
ENDMDL
MODEL 2
REMARK VINA RESULT:      -7.3      1.936      2.358
REMARK SMILES CC(=O)CCc1ccc2c(c1)OCO2
REMARK SMILES IDX 4 1 2 2 1 3 3 4 5 5 6 6 7 7 11 8 8 9 10 10 9 11 12 12 14 13
REMARK SMILES IDX 13 14
REMARK H PARENT
REMARK Flexibility Score: inf
ROOT
ATOM      1  C   UNL     1       5.673   1.236  -0.233  1.00  0.00     0.080 C 
ENDROOT
BRANCH   1   2
ATOM      2  C   UNL     1       5.046   1.231   1.104  1.00  0.00     0.130 C 
ATOM      3  C   UNL     1       5.308   0.102   2.019  1.00  0.00     0.087 C 
ATOM      4  O   UNL     1       4.331   2.149   1.421  1.00  0.00    -0.300 OA
ENDBRANCH   1   2
BRANCH   1   5
ATOM      5  C   UNL     1       7.177   1.080  -0.134  1.00  0.00     0.043 C 
BRANCH   5   6
ATOM      6  C   UNL     1       7.600  -0.202  -0.705  1.00  0.00    -0.044 A 
ATOM      7  C   UNL     1       7.642  -0.375  -2.073  1.00  0.00     0.008 A 
ATOM      8  C   UNL     1       7.968  -1.272   0.091  1.00  0.00     0.054 A 
ATOM      9  C   UNL     1       8.037  -1.577  -2.655  1.00  0.00     0.051 A 
ATOM     10  C   UNL     1       8.368  -2.486  -0.462  1.00  0.00     0.166 A 
ATOM     11  C   UNL     1       8.399  -2.628  -1.834  1.00  0.00     0.165 A 
ATOM     12  O   UNL     1       8.784  -3.706   0.071  1.00  0.00    -0.454 OA
ATOM     13  O   UNL     1       8.828  -3.917  -2.115  1.00  0.00    -0.454 OA
ATOM     14  C   UNL     1       8.815  -4.698  -0.923  1.00  0.00     0.468 C 
ENDBRANCH   5   6
ENDBRANCH   1   5
TORSDOF 3
ENDMDL
MODEL 3
REMARK VINA RESULT:      -7.3      2.047      2.617
REMARK SMILES CC(=O)CCc1ccc2c(c1)OCO2
REMARK SMILES IDX 4 1 2 2 1 3 3 4 5 5 6 6 7 7 11 8 8 9 10 10 9 11 12 12 14 13
REMARK SMILES IDX 13 14
REMARK H PARENT
REMARK Flexibility Score: inf
ROOT
ATOM      1  C   UNL     1       5.379  -0.014   1.984  1.00  0.00     0.080 C 
ENDROOT
BRANCH   1   2
ATOM      2  C   UNL     1       4.522   1.168   1.763  1.00  0.00     0.130 C 
ATOM      3  C   UNL     1       4.885   2.133   0.705  1.00  0.00     0.087 C 
ATOM      4  O   UNL     1       3.544   1.322   2.451  1.00  0.00    -0.300 OA
ENDBRANCH   1   2
BRANCH   1   5
ATOM      5  C   UNL     1       6.812   0.264   1.583  1.00  0.00     0.043 C 
BRANCH   5   6
ATOM      6  C   UNL     1       7.268  -0.714   0.590  1.00  0.00    -0.044 A 
ATOM      7  C   UNL     1       7.089  -0.473  -0.757  1.00  0.00     0.008 A 
ATOM      8  C   UNL     1       7.884  -1.897   0.956  1.00  0.00     0.054 A 
ATOM      9  C   UNL     1       7.506  -1.376  -1.731  1.00  0.00     0.051 A 
ATOM     10  C   UNL     1       8.312  -2.819   0.004  1.00  0.00     0.166 A 
ATOM     11  C   UNL     1       8.119  -2.549  -1.335  1.00  0.00     0.165 A 
ATOM     12  O   UNL     1       8.945  -4.060   0.070  1.00  0.00    -0.454 OA
ATOM     13  O   UNL     1       8.630  -3.617  -2.059  1.00  0.00    -0.454 OA
ATOM     14  C   UNL     1       8.911  -4.702  -1.179  1.00  0.00     0.468 C 
ENDBRANCH   5   6
ENDBRANCH   1   5
TORSDOF 3
ENDMDL
MODEL 4
REMARK VINA RESULT:      -7.1      1.967      2.566
REMARK SMILES CC(=O)CCc1ccc2c(c1)OCO2
REMARK SMILES IDX 4 1 2 2 1 3 3 4 5 5 6 6 7 7 11 8 8 9 10 10 9 11 12 12 14 13
REMARK SMILES IDX 13 14
REMARK H PARENT
REMARK Flexibility Score: inf
ROOT
ATOM      1  C   UNL     1       6.522   0.412   1.219  1.00  0.00     0.080 C 
ENDROOT
BRANCH   1   2
ATOM      2  C   UNL     1       5.223   1.071   1.461  1.00  0.00     0.130 C 
ATOM      3  C   UNL     1       4.782   2.150   0.554  1.00  0.00     0.087 C 
ATOM      4  O   UNL     1       4.548   0.715   2.395  1.00  0.00    -0.300 OA
ENDBRANCH   1   2
BRANCH   1   5
ATOM      5  C   UNL     1       7.013   0.667  -0.190  1.00  0.00     0.043 C 
BRANCH   5   6
ATOM      6  C   UNL     1       7.550  -0.563  -0.780  1.00  0.00    -0.044 A 
ATOM      7  C   UNL     1       7.757  -0.650  -2.141  1.00  0.00     0.008 A 
ATOM      8  C   UNL     1       7.865  -1.668  -0.008  1.00  0.00     0.054 A 
ATOM      9  C   UNL     1       8.265  -1.800  -2.739  1.00  0.00     0.051 A 
ATOM     10  C   UNL     1       8.374  -2.832  -0.579  1.00  0.00     0.166 A 
ATOM     11  C   UNL     1       8.570  -2.888  -1.943  1.00  0.00     0.165 A 
ATOM     12  O   UNL     1       8.772  -4.068  -0.071  1.00  0.00    -0.454 OA
ATOM     13  O   UNL     1       9.078  -4.143  -2.245  1.00  0.00    -0.454 OA
ATOM     14  C   UNL     1       8.958  -4.995  -1.110  1.00  0.00     0.468 C 
ENDBRANCH   5   6
ENDBRANCH   1   5
TORSDOF 3
ENDMDL
MODEL 5
REMARK VINA RESULT:      -6.9      1.225      5.292
REMARK SMILES CC(=O)CCc1ccc2c(c1)OCO2
REMARK SMILES IDX 4 1 2 2 1 3 3 4 5 5 6 6 7 7 11 8 8 9 10 10 9 11 12 12 14 13
REMARK SMILES IDX 13 14
REMARK H PARENT
REMARK Flexibility Score: inf
ROOT
ATOM      1  C   UNL     1       8.441   0.281  -2.610  1.00  0.00     0.080 C 
ENDROOT
BRANCH   1   2
ATOM      2  C   UNL     1       8.510  -1.184  -2.776  1.00  0.00     0.130 C 
ATOM      3  C   UNL     1       7.256  -1.961  -2.853  1.00  0.00     0.087 C 
ATOM      4  O   UNL     1       9.590  -1.717  -2.844  1.00  0.00    -0.300 OA
ENDBRANCH   1   2
BRANCH   1   5
ATOM      5  C   UNL     1       8.952   0.705  -1.249  1.00  0.00     0.043 C 
BRANCH   5   6
ATOM      6  C   UNL     1       7.908   0.543  -0.233  1.00  0.00    -0.044 A 
ATOM      7  C   UNL     1       7.960  -0.508   0.658  1.00  0.00     0.008 A 
ATOM      8  C   UNL     1       6.845   1.423  -0.129  1.00  0.00     0.054 A 
ATOM      9  C   UNL     1       6.989  -0.698   1.637  1.00  0.00     0.051 A 
ATOM     10  C   UNL     1       5.858   1.259   0.840  1.00  0.00     0.166 A 
ATOM     11  C   UNL     1       5.939   0.198   1.717  1.00  0.00     0.165 A 
ATOM     12  O   UNL     1       4.703   1.964   1.178  1.00  0.00    -0.454 OA
ATOM     13  O   UNL     1       4.845   0.268   2.567  1.00  0.00    -0.454 OA
ATOM     14  C   UNL     1       3.910   1.221   2.068  1.00  0.00     0.468 C 
ENDBRANCH   5   6
ENDBRANCH   1   5
TORSDOF 3
ENDMDL
