@<TRIPOS>MOLECULE
/home/cewinharhar/GITHUB/reincatalyze/data/processed/docking_pred/2023-May-31-1603_sub9_nm5_bs15_s42_ex16_mel10_mts1000_k50_ec05_g099_lra3e-4_lrc9e-3/ab317eb7565d030be4138c7249420e244018cf00_ligand_9.pdbqt
 14 15 0 0 0
SMALL
GASTEIGER

@<TRIPOS>ATOM
      1  C          8.4410    0.2810   -2.6100 C.3     1  UNL1        0.0800
      2  C          8.5100   -1.1840   -2.7760 C.2     1  UNL1        0.1300
      3  C          7.2560   -1.9610   -2.8530 C.3     1  UNL1        0.0870
      4  O          9.5900   -1.7170   -2.8440 O.2     1  UNL1       -0.3000
      5  C          8.9520    0.7050   -1.2490 C.3     1  UNL1        0.0430
      6  C          7.9080    0.5430   -0.2330 C.2     1  UNL1       -0.0440
      7  C          7.9600   -0.5080    0.6580 C.2     1  UNL1        0.0080
      8  C          6.8450    1.4230   -0.1290 C.2     1  UNL1        0.0540
      9  C          6.9890   -0.6980    1.6370 C.2     1  UNL1        0.0510
     10  C          5.8580    1.2590    0.8400 C.2     1  UNL1        0.1660
     11  C          5.9390    0.1980    1.7170 C.2     1  UNL1        0.1650
     12  O          4.7030    1.9640    1.1780 O.2     1  UNL1       -0.4540
     13  O          4.8450    0.2680    2.5670 O.2     1  UNL1       -0.4540
     14  C          3.9100    1.2210    2.0680 C.3     1  UNL1        0.4680
@<TRIPOS>BOND
     1     3     2    1
     2     4     2    2
     3     2     1    1
     4     1     5    1
     5     5     6    1
     6     6     8    2
     7     6     7    1
     8     8    10    1
     9     7     9    2
    10    10    12    1
    11    10    11    2
    12    12    14    1
    13     9    11    1
    14    11    13    1
    15    14    13    1
