@<TRIPOS>MOLECULE
/home/cewinharhar/GITHUB/reincatalyze/data/processed/docking_pred/2023-May-31-1603_sub9_nm5_bs15_s42_ex16_mel10_mts1000_k50_ec05_g099_lra3e-4_lrc9e-3/ab317eb7565d030be4138c7249420e244018cf00_ligand_9.pdbqt
 14 15 0 0 0
SMALL
GASTEIGER

@<TRIPOS>ATOM
      1  C          6.5220    0.4120    1.2190 C.3     1  UNL1        0.0800
      2  C          5.2230    1.0710    1.4610 C.2     1  UNL1        0.1300
      3  C          4.7820    2.1500    0.5540 C.3     1  UNL1        0.0870
      4  O          4.5480    0.7150    2.3950 O.2     1  UNL1       -0.3000
      5  C          7.0130    0.6670   -0.1900 C.3     1  UNL1        0.0430
      6  C          7.5500   -0.5630   -0.7800 C.2     1  UNL1       -0.0440
      7  C          7.7570   -0.6500   -2.1410 C.2     1  UNL1        0.0080
      8  C          7.8650   -1.6680   -0.0080 C.2     1  UNL1        0.0540
      9  C          8.2650   -1.8000   -2.7390 C.2     1  UNL1        0.0510
     10  C          8.3740   -2.8320   -0.5790 C.2     1  UNL1        0.1660
     11  C          8.5700   -2.8880   -1.9430 C.2     1  UNL1        0.1650
     12  O          8.7720   -4.0680   -0.0710 O.2     1  UNL1       -0.4540
     13  O          9.0780   -4.1430   -2.2450 O.2     1  UNL1       -0.4540
     14  C          8.9580   -4.9950   -1.1100 C.3     1  UNL1        0.4680
@<TRIPOS>BOND
     1     9     7    1
     2     9    11    2
     3    13    11    1
     4    13    14    1
     5     7     6    2
     6    11    10    1
     7    14    12    1
     8     6     5    1
     9     6     8    1
    10    10    12    1
    11    10     8    2
    12     5     1    1
    13     3     2    1
    14     1     2    1
    15     2     4    2
