@<TRIPOS>MOLECULE
/home/cewinharhar/GITHUB/reincatalyze/data/processed/docking_pred/2023-May-31-1603_sub9_nm5_bs15_s42_ex16_mel10_mts1000_k50_ec05_g099_lra3e-4_lrc9e-3/ab5903e155d5198269deee73f32ad6fb308dffee_ligand_9.pdbqt
 14 15 0 0 0
SMALL
GASTEIGER

@<TRIPOS>ATOM
      1  C          6.2430    1.3430    0.9210 C.3     1  UNL1        0.0800
      2  C          5.5810    0.5080    1.9430 C.2     1  UNL1        0.1300
      3  C          6.3020   -0.6540    2.5020 C.3     1  UNL1        0.0870
      4  O          4.4650    0.7910    2.3010 O.2     1  UNL1       -0.3000
      5  C          5.7400    1.0110   -0.4680 C.3     1  UNL1        0.0430
      6  C          6.7000    0.1550   -1.1720 C.2     1  UNL1       -0.0440
      7  C          7.3740    0.6290   -2.2790 C.2     1  UNL1        0.0080
      8  C          6.9630   -1.1400   -0.7640 C.2     1  UNL1        0.0540
      9  C          8.2920   -0.1520   -2.9760 C.2     1  UNL1        0.0510
     10  C          7.8760   -1.9450   -1.4410 C.2     1  UNL1        0.1660
     11  C          8.5350   -1.4430   -2.5440 C.2     1  UNL1        0.1650
     12  O          8.3350   -3.2510   -1.2680 O.2     1  UNL1       -0.4540
     13  O          9.3750   -2.4370   -3.0230 O.2     1  UNL1       -0.4540
     14  C          9.0610   -3.6750   -2.3920 C.3     1  UNL1        0.4680
@<TRIPOS>BOND
     1    13    11    1
     2    13    14    1
     3     9    11    2
     4     9     7    1
     5    11    10    1
     6    14    12    1
     7     7     6    2
     8    10    12    1
     9    10     8    2
    10     6     8    1
    11     6     5    1
    12     5     1    1
    13     1     2    1
    14     2     4    2
    15     2     3    1
