@<TRIPOS>MOLECULE
/home/cewinharhar/GITHUB/reincatalyze/data/processed/docking_pred/2023-May-31-1603_sub9_nm5_bs15_s42_ex16_mel10_mts1000_k50_ec05_g099_lra3e-4_lrc9e-3/ae45d061dddc84380b8ad6f9293329cc64ca5b9d_ligand_9.pdbqt
 14 15 0 0 0
SMALL
GASTEIGER

@<TRIPOS>ATOM
      1  C          5.6410    1.2750   -0.2690 C.3     1  UNL1        0.0800
      2  C          5.0730    1.2360    1.0930 C.2     1  UNL1        0.1300
      3  C          5.4260    0.1160    1.9890 C.3     1  UNL1        0.0870
      4  O          4.3320    2.1190    1.4470 O.2     1  UNL1       -0.3000
      5  C          7.1500    1.1460   -0.2390 C.3     1  UNL1        0.0430
      6  C          7.5680   -0.1420   -0.8010 C.2     1  UNL1       -0.0440
      7  C          7.5560   -0.3420   -2.1660 C.2     1  UNL1        0.0080
      8  C          7.9850   -1.1900   -0.0000 C.2     1  UNL1        0.0540
      9  C          7.9440   -1.5500   -2.7400 C.2     1  UNL1        0.0510
     10  C          8.3790   -2.4100   -0.5450 C.2     1  UNL1        0.1660
     11  C          8.3550   -2.5790   -1.9140 C.2     1  UNL1        0.1650
     12  O          8.8340   -3.6130   -0.0060 O.2     1  UNL1       -0.4540
     13  O          8.7900   -3.8680   -2.1880 O.2     1  UNL1       -0.4540
     14  C          8.8390   -4.6240   -0.9810 C.3     1  UNL1        0.4680
@<TRIPOS>BOND
     1     9     7    1
     2     9    11    2
     3    13    11    1
     4    13    14    1
     5     7     6    2
     6    11    10    1
     7    14    12    1
     8     6     5    1
     9     6     8    1
    10    10    12    1
    11    10     8    2
    12     1     5    1
    13     1     2    1
    14     2     4    2
    15     2     3    1
