@<TRIPOS>MOLECULE
/home/cewinharhar/GITHUB/reincatalyze/data/processed/docking_pred/2023-May-31-1603_sub9_nm5_bs15_s42_ex16_mel10_mts1000_k50_ec05_g099_lra3e-4_lrc9e-3/ae45d061dddc84380b8ad6f9293329cc64ca5b9d_ligand_9.pdbqt
 14 15 0 0 0
SMALL
GASTEIGER

@<TRIPOS>ATOM
      1  C          6.2680    1.2840    0.9750 C.3     1  UNL1        0.0800
      2  C          5.5810    0.4360    1.9690 C.2     1  UNL1        0.1300
      3  C          6.2770   -0.7490    2.5100 C.3     1  UNL1        0.0870
      4  O          4.4640    0.7280    2.3190 O.2     1  UNL1       -0.3000
      5  C          5.7690    1.0010   -0.4270 C.3     1  UNL1        0.0430
      6  C          6.7100    0.1370   -1.1450 C.2     1  UNL1       -0.0440
      7  C          7.3580    0.5970   -2.2720 C.2     1  UNL1        0.0080
      8  C          6.9820   -1.1550   -0.7280 C.2     1  UNL1        0.0540
      9  C          8.2590   -0.1930   -2.9830 C.2     1  UNL1        0.0510
     10  C          7.8780   -1.9680   -1.4180 C.2     1  UNL1        0.1660
     11  C          8.5100   -1.4780   -2.5420 C.2     1  UNL1        0.1650
     12  O          8.3400   -3.2720   -1.2420 O.2     1  UNL1       -0.4540
     13  O          9.3380   -2.4790   -3.0310 O.2     1  UNL1       -0.4540
     14  C          9.0380   -3.7100   -2.3790 C.3     1  UNL1        0.4680
@<TRIPOS>BOND
     1    13    11    1
     2    13    14    1
     3     9    11    2
     4     9     7    1
     5    11    10    1
     6    14    12    1
     7     7     6    2
     8    10    12    1
     9    10     8    2
    10     6     8    1
    11     6     5    1
    12     5     1    1
    13     1     2    1
    14     2     4    2
    15     2     3    1
