@<TRIPOS>MOLECULE
/home/cewinharhar/GITHUB/reincatalyze/data/processed/docking_pred/2023-May-31-1603_sub9_nm5_bs15_s42_ex16_mel10_mts1000_k50_ec05_g099_lra3e-4_lrc9e-3/ae45d061dddc84380b8ad6f9293329cc64ca5b9d_ligand_9.pdbqt
 14 15 0 0 0
SMALL
GASTEIGER

@<TRIPOS>ATOM
      1  C          5.5900    1.8500    1.3220 C.3     1  UNL1        0.0800
      2  C          5.1230    0.6550    2.0520 C.2     1  UNL1        0.1300
      3  C          6.0440   -0.4860    2.2310 C.3     1  UNL1        0.0870
      4  O          3.9980    0.6340    2.4870 O.2     1  UNL1       -0.3000
      5  C          5.4060    1.6880   -0.1730 C.3     1  UNL1        0.0430
      6  C          6.5370    0.9610   -0.7550 C.2     1  UNL1       -0.0440
      7  C          7.8270    1.4120   -0.5660 C.2     1  UNL1        0.0080
      8  C          6.3610   -0.1870   -1.5070 C.2     1  UNL1        0.0540
      9  C          8.9290    0.7510   -1.1030 C.2     1  UNL1        0.0510
     10  C          7.4430   -0.8700   -2.0570 C.2     1  UNL1        0.1660
     11  C          8.7210   -0.3940   -1.8490 C.2     1  UNL1        0.1650
     12  O          7.5720   -2.0200   -2.8350 O.2     1  UNL1       -0.4540
     13  O          9.6010   -1.2490   -2.4970 O.2     1  UNL1       -0.4540
     14  C          8.8740   -2.1280   -3.3510 C.3     1  UNL1        0.4680
@<TRIPOS>BOND
     1    14    12    1
     2    14    13    1
     3    12    10    1
     4    13    11    1
     5    10    11    2
     6    10     8    1
     7    11     9    1
     8     8     6    2
     9     9     7    2
    10     6     7    1
    11     6     5    1
    12     5     1    1
    13     1     2    1
    14     2     3    1
    15     2     4    2
