MODEL 1
REMARK VINA RESULT:      -7.5      0.000      0.000
REMARK SMILES CC(=O)CCc1ccc2c(c1)OCO2
REMARK SMILES IDX 4 1 2 2 1 3 3 4 5 5 6 6 7 7 11 8 8 9 10 10 9 11 12 12 14 13
REMARK SMILES IDX 13 14
REMARK H PARENT
REMARK Flexibility Score: inf
ROOT
ATOM      1  C   UNL     1       5.590   1.850   1.322  1.00  0.00     0.080 C 
ENDROOT
BRANCH   1   2
ATOM      2  C   UNL     1       5.123   0.655   2.052  1.00  0.00     0.130 C 
ATOM      3  C   UNL     1       6.044  -0.486   2.231  1.00  0.00     0.087 C 
ATOM      4  O   UNL     1       3.998   0.634   2.487  1.00  0.00    -0.300 OA
ENDBRANCH   1   2
BRANCH   1   5
ATOM      5  C   UNL     1       5.406   1.688  -0.173  1.00  0.00     0.043 C 
BRANCH   5   6
ATOM      6  C   UNL     1       6.537   0.961  -0.755  1.00  0.00    -0.044 A 
ATOM      7  C   UNL     1       7.827   1.412  -0.566  1.00  0.00     0.008 A 
ATOM      8  C   UNL     1       6.361  -0.187  -1.507  1.00  0.00     0.054 A 
ATOM      9  C   UNL     1       8.929   0.751  -1.103  1.00  0.00     0.051 A 
ATOM     10  C   UNL     1       7.443  -0.870  -2.057  1.00  0.00     0.166 A 
ATOM     11  C   UNL     1       8.721  -0.394  -1.849  1.00  0.00     0.165 A 
ATOM     12  O   UNL     1       7.572  -2.020  -2.835  1.00  0.00    -0.454 OA
ATOM     13  O   UNL     1       9.601  -1.249  -2.497  1.00  0.00    -0.454 OA
ATOM     14  C   UNL     1       8.874  -2.128  -3.351  1.00  0.00     0.468 C 
ENDBRANCH   5   6
ENDBRANCH   1   5
TORSDOF 3
ENDMDL
MODEL 2
REMARK VINA RESULT:      -7.4      1.904      2.338
REMARK SMILES CC(=O)CCc1ccc2c(c1)OCO2
REMARK SMILES IDX 4 1 2 2 1 3 3 4 5 5 6 6 7 7 11 8 8 9 10 10 9 11 12 12 14 13
REMARK SMILES IDX 13 14
REMARK H PARENT
REMARK Flexibility Score: inf
ROOT
ATOM      1  C   UNL     1       5.641   1.275  -0.269  1.00  0.00     0.080 C 
ENDROOT
BRANCH   1   2
ATOM      2  C   UNL     1       5.073   1.236   1.093  1.00  0.00     0.130 C 
ATOM      3  C   UNL     1       5.426   0.116   1.989  1.00  0.00     0.087 C 
ATOM      4  O   UNL     1       4.332   2.119   1.447  1.00  0.00    -0.300 OA
ENDBRANCH   1   2
BRANCH   1   5
ATOM      5  C   UNL     1       7.150   1.146  -0.239  1.00  0.00     0.043 C 
BRANCH   5   6
ATOM      6  C   UNL     1       7.568  -0.142  -0.801  1.00  0.00    -0.044 A 
ATOM      7  C   UNL     1       7.556  -0.342  -2.166  1.00  0.00     0.008 A 
ATOM      8  C   UNL     1       7.985  -1.190  -0.000  1.00  0.00     0.054 A 
ATOM      9  C   UNL     1       7.944  -1.550  -2.740  1.00  0.00     0.051 A 
ATOM     10  C   UNL     1       8.379  -2.410  -0.545  1.00  0.00     0.166 A 
ATOM     11  C   UNL     1       8.355  -2.579  -1.914  1.00  0.00     0.165 A 
ATOM     12  O   UNL     1       8.834  -3.613  -0.006  1.00  0.00    -0.454 OA
ATOM     13  O   UNL     1       8.790  -3.868  -2.188  1.00  0.00    -0.454 OA
ATOM     14  C   UNL     1       8.839  -4.624  -0.981  1.00  0.00     0.468 C 
ENDBRANCH   5   6
ENDBRANCH   1   5
TORSDOF 3
ENDMDL
MODEL 3
REMARK VINA RESULT:      -7.2      2.127      2.671
REMARK SMILES CC(=O)CCc1ccc2c(c1)OCO2
REMARK SMILES IDX 4 1 2 2 1 3 3 4 5 5 6 6 7 7 11 8 8 9 10 10 9 11 12 12 14 13
REMARK SMILES IDX 13 14
REMARK H PARENT
REMARK Flexibility Score: inf
ROOT
ATOM      1  C   UNL     1       5.411  -0.042   1.858  1.00  0.00     0.080 C 
ENDROOT
BRANCH   1   2
ATOM      2  C   UNL     1       4.607   1.174   1.623  1.00  0.00     0.130 C 
ATOM      3  C   UNL     1       5.006   2.105   0.549  1.00  0.00     0.087 C 
ATOM      4  O   UNL     1       3.641   1.382   2.314  1.00  0.00    -0.300 OA
ENDBRANCH   1   2
BRANCH   1   5
ATOM      5  C   UNL     1       6.871   0.193   1.528  1.00  0.00     0.043 C 
BRANCH   5   6
ATOM      6  C   UNL     1       7.340  -0.789   0.545  1.00  0.00    -0.044 A 
ATOM      7  C   UNL     1       7.200  -0.544  -0.805  1.00  0.00     0.008 A 
ATOM      8  C   UNL     1       7.933  -1.980   0.926  1.00  0.00     0.054 A 
ATOM      9  C   UNL     1       7.632  -1.450  -1.770  1.00  0.00     0.051 A 
ATOM     10  C   UNL     1       8.375  -2.906  -0.017  1.00  0.00     0.166 A 
ATOM     11  C   UNL     1       8.220  -2.632  -1.360  1.00  0.00     0.165 A 
ATOM     12  O   UNL     1       8.991  -4.154   0.063  1.00  0.00    -0.454 OA
ATOM     13  O   UNL     1       8.737  -3.704  -2.072  1.00  0.00    -0.454 OA
ATOM     14  C   UNL     1       8.982  -4.794  -1.187  1.00  0.00     0.468 C 
ENDBRANCH   5   6
ENDBRANCH   1   5
TORSDOF 3
ENDMDL
MODEL 4
REMARK VINA RESULT:      -7.1      1.235      1.396
REMARK SMILES CC(=O)CCc1ccc2c(c1)OCO2
REMARK SMILES IDX 4 1 2 2 1 3 3 4 5 5 6 6 7 7 11 8 8 9 10 10 9 11 12 12 14 13
REMARK SMILES IDX 13 14
REMARK H PARENT
REMARK Flexibility Score: inf
ROOT
ATOM      1  C   UNL     1       6.268   1.284   0.975  1.00  0.00     0.080 C 
ENDROOT
BRANCH   1   2
ATOM      2  C   UNL     1       5.581   0.436   1.969  1.00  0.00     0.130 C 
ATOM      3  C   UNL     1       6.277  -0.749   2.510  1.00  0.00     0.087 C 
ATOM      4  O   UNL     1       4.464   0.728   2.319  1.00  0.00    -0.300 OA
ENDBRANCH   1   2
BRANCH   1   5
ATOM      5  C   UNL     1       5.769   1.001  -0.427  1.00  0.00     0.043 C 
BRANCH   5   6
ATOM      6  C   UNL     1       6.710   0.137  -1.145  1.00  0.00    -0.044 A 
ATOM      7  C   UNL     1       7.358   0.597  -2.272  1.00  0.00     0.008 A 
ATOM      8  C   UNL     1       6.982  -1.155  -0.728  1.00  0.00     0.054 A 
ATOM      9  C   UNL     1       8.259  -0.193  -2.983  1.00  0.00     0.051 A 
ATOM     10  C   UNL     1       7.878  -1.968  -1.418  1.00  0.00     0.166 A 
ATOM     11  C   UNL     1       8.510  -1.478  -2.542  1.00  0.00     0.165 A 
ATOM     12  O   UNL     1       8.340  -3.272  -1.242  1.00  0.00    -0.454 OA
ATOM     13  O   UNL     1       9.338  -2.479  -3.031  1.00  0.00    -0.454 OA
ATOM     14  C   UNL     1       9.038  -3.710  -2.379  1.00  0.00     0.468 C 
ENDBRANCH   5   6
ENDBRANCH   1   5
TORSDOF 3
ENDMDL
MODEL 5
REMARK VINA RESULT:      -7.0      1.947      2.603
REMARK SMILES CC(=O)CCc1ccc2c(c1)OCO2
REMARK SMILES IDX 4 1 2 2 1 3 3 4 5 5 6 6 7 7 11 8 8 9 10 10 9 11 12 12 14 13
REMARK SMILES IDX 13 14
REMARK H PARENT
REMARK Flexibility Score: inf
ROOT
ATOM      1  C   UNL     1       6.844   0.719   0.786  1.00  0.00     0.080 C 
ENDROOT
BRANCH   1   2
ATOM      2  C   UNL     1       5.531   1.039   1.382  1.00  0.00     0.130 C 
ATOM      3  C   UNL     1       4.735   2.148   0.818  1.00  0.00     0.087 C 
ATOM      4  O   UNL     1       5.135   0.388   2.317  1.00  0.00    -0.300 OA
ENDBRANCH   1   2
BRANCH   1   5
ATOM      5  C   UNL     1       6.748   0.600  -0.721  1.00  0.00     0.043 C 
BRANCH   5   6
ATOM      6  C   UNL     1       7.404  -0.627  -1.183  1.00  0.00    -0.044 A 
ATOM      7  C   UNL     1       7.754  -0.772  -2.509  1.00  0.00     0.008 A 
ATOM      8  C   UNL     1       7.693  -1.671  -0.323  1.00  0.00     0.054 A 
ATOM      9  C   UNL     1       8.378  -1.921  -2.989  1.00  0.00     0.051 A 
ATOM     10  C   UNL     1       8.316  -2.833  -0.773  1.00  0.00     0.166 A 
ATOM     11  C   UNL     1       8.653  -2.948  -2.105  1.00  0.00     0.165 A 
ATOM     12  O   UNL     1       8.721  -4.018  -0.159  1.00  0.00    -0.454 OA
ATOM     13  O   UNL     1       9.253  -4.186  -2.284  1.00  0.00    -0.454 OA
ATOM     14  C   UNL     1       9.059  -4.985  -1.120  1.00  0.00     0.468 C 
ENDBRANCH   5   6
ENDBRANCH   1   5
TORSDOF 3
ENDMDL
