@<TRIPOS>MOLECULE
/home/cewinharhar/GITHUB/reincatalyze/data/processed/docking_pred/2023-May-31-1603_sub9_nm5_bs15_s42_ex16_mel10_mts1000_k50_ec05_g099_lra3e-4_lrc9e-3/ae62664a3c9eef67376bdc077c2faa7ac5a69a78_ligand_9.pdbqt
 14 15 0 0 0
SMALL
GASTEIGER

@<TRIPOS>ATOM
      1  C          5.3520   -0.0420    1.9610 C.3     1  UNL1        0.0800
      2  C          4.5310    1.1690    1.7630 C.2     1  UNL1        0.1300
      3  C          4.9180    2.1390    0.7180 C.3     1  UNL1        0.0870
      4  O          3.5610    1.3420    2.4580 O.2     1  UNL1       -0.3000
      5  C          6.8030    0.2150    1.6090 C.3     1  UNL1        0.0430
      6  C          7.2670   -0.7460    0.6040 C.2     1  UNL1       -0.0440
      7  C          7.1000   -0.4830   -0.7400 C.2     1  UNL1        0.0080
      8  C          7.8790   -1.9360    0.9560 C.2     1  UNL1        0.0540
      9  C          7.5260   -1.3690   -1.7260 C.2     1  UNL1        0.0510
     10  C          8.3150   -2.8420   -0.0080 C.2     1  UNL1        0.1660
     11  C          8.1340   -2.5490   -1.3440 C.2     1  UNL1        0.1650
     12  O          8.9470   -4.0840    0.0420 O.2     1  UNL1       -0.4540
     13  O          8.6520   -3.6050   -2.0810 O.2     1  UNL1       -0.4540
     14  C          8.9240   -4.7050   -1.2170 C.3     1  UNL1        0.4680
@<TRIPOS>BOND
     1    13    11    1
     2    13    14    1
     3     9    11    2
     4     9     7    1
     5    11    10    1
     6    14    12    1
     7     7     6    2
     8    10    12    1
     9    10     8    2
    10     6     8    1
    11     6     5    1
    12     3     2    1
    13     5     1    1
    14     2     1    1
    15     2     4    2
