@<TRIPOS>MOLECULE
/home/cewinharhar/GITHUB/reincatalyze/data/processed/docking_pred/2023-May-31-1603_sub9_nm5_bs15_s42_ex16_mel10_mts1000_k50_ec05_g099_lra3e-4_lrc9e-3/ae62664a3c9eef67376bdc077c2faa7ac5a69a78_ligand_9.pdbqt
 14 15 0 0 0
SMALL
GASTEIGER

@<TRIPOS>ATOM
      1  C          6.3090    1.2440    0.9740 C.3     1  UNL1        0.0800
      2  C          5.5980    0.4170    1.9700 C.2     1  UNL1        0.1300
      3  C          6.2670   -0.7780    2.5230 C.3     1  UNL1        0.0870
      4  O          4.4860    0.7340    2.3110 O.2     1  UNL1       -0.3000
      5  C          5.8050    0.9680   -0.4270 C.3     1  UNL1        0.0430
      6  C          6.7390    0.0990   -1.1480 C.2     1  UNL1       -0.0440
      7  C          7.3730    0.5500   -2.2880 C.2     1  UNL1        0.0080
      8  C          7.0190   -1.1880   -0.7230 C.2     1  UNL1        0.0540
      9  C          8.2660   -0.2450   -3.0020 C.2     1  UNL1        0.0510
     10  C          7.9070   -2.0060   -1.4170 C.2     1  UNL1        0.1660
     11  C          8.5250   -1.5260   -2.5530 C.2     1  UNL1        0.1650
     12  O          8.3730   -3.3080   -1.2340 O.2     1  UNL1       -0.4540
     13  O          9.3480   -2.5300   -3.0420 O.2     1  UNL1       -0.4540
     14  C          9.0580   -3.7560   -2.3750 C.3     1  UNL1        0.4680
@<TRIPOS>BOND
     1    13    11    1
     2    13    14    1
     3     9    11    2
     4     9     7    1
     5    11    10    1
     6    14    12    1
     7     7     6    2
     8    10    12    1
     9    10     8    2
    10     6     8    1
    11     6     5    1
    12     5     1    1
    13     1     2    1
    14     2     4    2
    15     2     3    1
