MODEL 1
REMARK VINA RESULT:      -7.5      0.000      0.000
REMARK SMILES CC(=O)CCc1ccc2c(c1)OCO2
REMARK SMILES IDX 4 1 2 2 1 3 3 4 5 5 6 6 7 7 11 8 8 9 10 10 9 11 12 12 14 13
REMARK SMILES IDX 13 14
REMARK H PARENT
REMARK Flexibility Score: inf
ROOT
ATOM      1  C   UNL     1       5.582   1.871   1.316  1.00  0.00     0.080 C 
ENDROOT
BRANCH   1   2
ATOM      2  C   UNL     1       5.115   0.674   2.044  1.00  0.00     0.130 C 
ATOM      3  C   UNL     1       6.035  -0.468   2.220  1.00  0.00     0.087 C 
ATOM      4  O   UNL     1       3.990   0.654   2.480  1.00  0.00    -0.300 OA
ENDBRANCH   1   2
BRANCH   1   5
ATOM      5  C   UNL     1       5.403   1.709  -0.179  1.00  0.00     0.043 C 
BRANCH   5   6
ATOM      6  C   UNL     1       6.534   0.978  -0.758  1.00  0.00    -0.044 A 
ATOM      7  C   UNL     1       7.825   1.422  -0.559  1.00  0.00     0.008 A 
ATOM      8  C   UNL     1       6.357  -0.167  -1.515  1.00  0.00     0.054 A 
ATOM      9  C   UNL     1       8.926   0.758  -1.092  1.00  0.00     0.051 A 
ATOM     10  C   UNL     1       7.439  -0.853  -2.060  1.00  0.00     0.166 A 
ATOM     11  C   UNL     1       8.718  -0.383  -1.843  1.00  0.00     0.165 A 
ATOM     12  O   UNL     1       7.567  -2.000  -2.842  1.00  0.00    -0.454 OA
ATOM     13  O   UNL     1       9.597  -1.240  -2.489  1.00  0.00    -0.454 OA
ATOM     14  C   UNL     1       8.871  -2.113  -3.350  1.00  0.00     0.468 C 
ENDBRANCH   5   6
ENDBRANCH   1   5
TORSDOF 3
ENDMDL
MODEL 2
REMARK VINA RESULT:      -7.4      2.073      2.644
REMARK SMILES CC(=O)CCc1ccc2c(c1)OCO2
REMARK SMILES IDX 4 1 2 2 1 3 3 4 5 5 6 6 7 7 11 8 8 9 10 10 9 11 12 12 14 13
REMARK SMILES IDX 13 14
REMARK H PARENT
REMARK Flexibility Score: inf
ROOT
ATOM      1  C   UNL     1       5.352  -0.042   1.961  1.00  0.00     0.080 C 
ENDROOT
BRANCH   1   2
ATOM      2  C   UNL     1       4.531   1.169   1.763  1.00  0.00     0.130 C 
ATOM      3  C   UNL     1       4.918   2.139   0.718  1.00  0.00     0.087 C 
ATOM      4  O   UNL     1       3.561   1.342   2.458  1.00  0.00    -0.300 OA
ENDBRANCH   1   2
BRANCH   1   5
ATOM      5  C   UNL     1       6.803   0.215   1.609  1.00  0.00     0.043 C 
BRANCH   5   6
ATOM      6  C   UNL     1       7.267  -0.746   0.604  1.00  0.00    -0.044 A 
ATOM      7  C   UNL     1       7.100  -0.483  -0.740  1.00  0.00     0.008 A 
ATOM      8  C   UNL     1       7.879  -1.936   0.956  1.00  0.00     0.054 A 
ATOM      9  C   UNL     1       7.526  -1.369  -1.726  1.00  0.00     0.051 A 
ATOM     10  C   UNL     1       8.315  -2.842  -0.008  1.00  0.00     0.166 A 
ATOM     11  C   UNL     1       8.134  -2.549  -1.344  1.00  0.00     0.165 A 
ATOM     12  O   UNL     1       8.947  -4.084   0.042  1.00  0.00    -0.454 OA
ATOM     13  O   UNL     1       8.652  -3.605  -2.081  1.00  0.00    -0.454 OA
ATOM     14  C   UNL     1       8.924  -4.705  -1.217  1.00  0.00     0.468 C 
ENDBRANCH   5   6
ENDBRANCH   1   5
TORSDOF 3
ENDMDL
MODEL 3
REMARK VINA RESULT:      -7.3      1.871      2.297
REMARK SMILES CC(=O)CCc1ccc2c(c1)OCO2
REMARK SMILES IDX 4 1 2 2 1 3 3 4 5 5 6 6 7 7 11 8 8 9 10 10 9 11 12 12 14 13
REMARK SMILES IDX 13 14
REMARK H PARENT
REMARK Flexibility Score: inf
ROOT
ATOM      1  C   UNL     1       5.599   1.248  -0.271  1.00  0.00     0.080 C 
ENDROOT
BRANCH   1   2
ATOM      2  C   UNL     1       5.044   1.243   1.098  1.00  0.00     0.130 C 
ATOM      3  C   UNL     1       5.437   0.169   2.031  1.00  0.00     0.087 C 
ATOM      4  O   UNL     1       4.280   2.118   1.425  1.00  0.00    -0.300 OA
ENDBRANCH   1   2
BRANCH   1   5
ATOM      5  C   UNL     1       7.110   1.153  -0.250  1.00  0.00     0.043 C 
BRANCH   5   6
ATOM      6  C   UNL     1       7.554  -0.117  -0.832  1.00  0.00    -0.044 A 
ATOM      7  C   UNL     1       7.605  -0.277  -2.201  1.00  0.00     0.008 A 
ATOM      8  C   UNL     1       7.933  -1.191  -0.044  1.00  0.00     0.054 A 
ATOM      9  C   UNL     1       8.020  -1.467  -2.793  1.00  0.00     0.051 A 
ATOM     10  C   UNL     1       8.353  -2.393  -0.607  1.00  0.00     0.166 A 
ATOM     11  C   UNL     1       8.393  -2.521  -1.980  1.00  0.00     0.165 A 
ATOM     12  O   UNL     1       8.782  -3.613  -0.085  1.00  0.00    -0.454 OA
ATOM     13  O   UNL     1       8.840  -3.801  -2.272  1.00  0.00    -0.454 OA
ATOM     14  C   UNL     1       8.833  -4.594  -1.088  1.00  0.00     0.468 C 
ENDBRANCH   5   6
ENDBRANCH   1   5
TORSDOF 3
ENDMDL
MODEL 4
REMARK VINA RESULT:      -7.1      1.261      1.445
REMARK SMILES CC(=O)CCc1ccc2c(c1)OCO2
REMARK SMILES IDX 4 1 2 2 1 3 3 4 5 5 6 6 7 7 11 8 8 9 10 10 9 11 12 12 14 13
REMARK SMILES IDX 13 14
REMARK H PARENT
REMARK Flexibility Score: inf
ROOT
ATOM      1  C   UNL     1       6.309   1.244   0.974  1.00  0.00     0.080 C 
ENDROOT
BRANCH   1   2
ATOM      2  C   UNL     1       5.598   0.417   1.970  1.00  0.00     0.130 C 
ATOM      3  C   UNL     1       6.267  -0.778   2.523  1.00  0.00     0.087 C 
ATOM      4  O   UNL     1       4.486   0.734   2.311  1.00  0.00    -0.300 OA
ENDBRANCH   1   2
BRANCH   1   5
ATOM      5  C   UNL     1       5.805   0.968  -0.427  1.00  0.00     0.043 C 
BRANCH   5   6
ATOM      6  C   UNL     1       6.739   0.099  -1.148  1.00  0.00    -0.044 A 
ATOM      7  C   UNL     1       7.373   0.550  -2.288  1.00  0.00     0.008 A 
ATOM      8  C   UNL     1       7.019  -1.188  -0.723  1.00  0.00     0.054 A 
ATOM      9  C   UNL     1       8.266  -0.245  -3.002  1.00  0.00     0.051 A 
ATOM     10  C   UNL     1       7.907  -2.006  -1.417  1.00  0.00     0.166 A 
ATOM     11  C   UNL     1       8.525  -1.526  -2.553  1.00  0.00     0.165 A 
ATOM     12  O   UNL     1       8.373  -3.308  -1.234  1.00  0.00    -0.454 OA
ATOM     13  O   UNL     1       9.348  -2.530  -3.042  1.00  0.00    -0.454 OA
ATOM     14  C   UNL     1       9.058  -3.756  -2.375  1.00  0.00     0.468 C 
ENDBRANCH   5   6
ENDBRANCH   1   5
TORSDOF 3
ENDMDL
MODEL 5
REMARK VINA RESULT:      -7.1      2.026      2.540
REMARK SMILES CC(=O)CCc1ccc2c(c1)OCO2
REMARK SMILES IDX 4 1 2 2 1 3 3 4 5 5 6 6 7 7 11 8 8 9 10 10 9 11 12 12 14 13
REMARK SMILES IDX 13 14
REMARK H PARENT
REMARK Flexibility Score: inf
ROOT
ATOM      1  C   UNL     1       6.729   0.727   1.354  1.00  0.00     0.080 C 
ENDROOT
BRANCH   1   2
ATOM      2  C   UNL     1       5.307   1.087   1.520  1.00  0.00     0.130 C 
ATOM      3  C   UNL     1       4.717   2.117   0.642  1.00  0.00     0.087 C 
ATOM      4  O   UNL     1       4.655   0.532   2.370  1.00  0.00    -0.300 OA
ENDBRANCH   1   2
BRANCH   1   5
ATOM      5  C   UNL     1       7.183   0.929  -0.076  1.00  0.00     0.043 C 
BRANCH   5   6
ATOM      6  C   UNL     1       7.620  -0.342  -0.662  1.00  0.00    -0.044 A 
ATOM      7  C   UNL     1       7.695  -0.488  -2.032  1.00  0.00     0.008 A 
ATOM      8  C   UNL     1       7.968  -1.429   0.121  1.00  0.00     0.054 A 
ATOM      9  C   UNL     1       8.104  -1.679  -2.628  1.00  0.00     0.051 A 
ATOM     10  C   UNL     1       8.381  -2.632  -0.446  1.00  0.00     0.166 A 
ATOM     11  C   UNL     1       8.446  -2.746  -1.819  1.00  0.00     0.165 A 
ATOM     12  O   UNL     1       8.783  -3.862   0.073  1.00  0.00    -0.454 OA
ATOM     13  O   UNL     1       8.880  -4.030  -2.116  1.00  0.00    -0.454 OA
ATOM     14  C   UNL     1       8.838  -4.834  -0.940  1.00  0.00     0.468 C 
ENDBRANCH   5   6
ENDBRANCH   1   5
TORSDOF 3
ENDMDL
