@<TRIPOS>MOLECULE
/home/cewinharhar/GITHUB/reincatalyze/data/processed/docking_pred/2023-May-31-1603_sub9_nm5_bs15_s42_ex16_mel10_mts1000_k50_ec05_g099_lra3e-4_lrc9e-3/ae62664a3c9eef67376bdc077c2faa7ac5a69a78_ligand_9.pdbqt
 14 15 0 0 0
SMALL
GASTEIGER

@<TRIPOS>ATOM
      1  C          5.5820    1.8710    1.3160 C.3     1  UNL1        0.0800
      2  C          5.1150    0.6740    2.0440 C.2     1  UNL1        0.1300
      3  C          6.0350   -0.4680    2.2200 C.3     1  UNL1        0.0870
      4  O          3.9900    0.6540    2.4800 O.2     1  UNL1       -0.3000
      5  C          5.4030    1.7090   -0.1790 C.3     1  UNL1        0.0430
      6  C          6.5340    0.9780   -0.7580 C.2     1  UNL1       -0.0440
      7  C          7.8250    1.4220   -0.5590 C.2     1  UNL1        0.0080
      8  C          6.3570   -0.1670   -1.5150 C.2     1  UNL1        0.0540
      9  C          8.9260    0.7580   -1.0920 C.2     1  UNL1        0.0510
     10  C          7.4390   -0.8530   -2.0600 C.2     1  UNL1        0.1660
     11  C          8.7180   -0.3830   -1.8430 C.2     1  UNL1        0.1650
     12  O          7.5670   -2.0000   -2.8420 O.2     1  UNL1       -0.4540
     13  O          9.5970   -1.2400   -2.4890 O.2     1  UNL1       -0.4540
     14  C          8.8710   -2.1130   -3.3500 C.3     1  UNL1        0.4680
@<TRIPOS>BOND
     1    14    12    1
     2    14    13    1
     3    12    10    1
     4    13    11    1
     5    10    11    2
     6    10     8    1
     7    11     9    1
     8     8     6    2
     9     9     7    2
    10     6     7    1
    11     6     5    1
    12     5     1    1
    13     1     2    1
    14     2     3    1
    15     2     4    2
