@<TRIPOS>MOLECULE
/home/cewinharhar/GITHUB/reincatalyze/data/processed/docking_pred/2023-May-31-1603_sub9_nm5_bs15_s42_ex16_mel10_mts1000_k50_ec05_g099_lra3e-4_lrc9e-3/ae62664a3c9eef67376bdc077c2faa7ac5a69a78_ligand_9.pdbqt
 14 15 0 0 0
SMALL
GASTEIGER

@<TRIPOS>ATOM
      1  C          5.5990    1.2480   -0.2710 C.3     1  UNL1        0.0800
      2  C          5.0440    1.2430    1.0980 C.2     1  UNL1        0.1300
      3  C          5.4370    0.1690    2.0310 C.3     1  UNL1        0.0870
      4  O          4.2800    2.1180    1.4250 O.2     1  UNL1       -0.3000
      5  C          7.1100    1.1530   -0.2500 C.3     1  UNL1        0.0430
      6  C          7.5540   -0.1170   -0.8320 C.2     1  UNL1       -0.0440
      7  C          7.6050   -0.2770   -2.2010 C.2     1  UNL1        0.0080
      8  C          7.9330   -1.1910   -0.0440 C.2     1  UNL1        0.0540
      9  C          8.0200   -1.4670   -2.7930 C.2     1  UNL1        0.0510
     10  C          8.3530   -2.3930   -0.6070 C.2     1  UNL1        0.1660
     11  C          8.3930   -2.5210   -1.9800 C.2     1  UNL1        0.1650
     12  O          8.7820   -3.6130   -0.0850 O.2     1  UNL1       -0.4540
     13  O          8.8400   -3.8010   -2.2720 O.2     1  UNL1       -0.4540
     14  C          8.8330   -4.5940   -1.0880 C.3     1  UNL1        0.4680
@<TRIPOS>BOND
     1     9     7    1
     2     9    11    2
     3    13    11    1
     4    13    14    1
     5     7     6    2
     6    11    10    1
     7    14    12    1
     8     6     5    1
     9     6     8    1
    10    10    12    1
    11    10     8    2
    12     1     5    1
    13     1     2    1
    14     2     4    2
    15     2     3    1
