@<TRIPOS>MOLECULE
/home/cewinharhar/GITHUB/reincatalyze/data/processed/docking_pred/2023-May-31-1603_sub9_nm5_bs15_s42_ex16_mel10_mts1000_k50_ec05_g099_lra3e-4_lrc9e-3/ae62664a3c9eef67376bdc077c2faa7ac5a69a78_ligand_9.pdbqt
 14 15 0 0 0
SMALL
GASTEIGER

@<TRIPOS>ATOM
      1  C          6.7290    0.7270    1.3540 C.3     1  UNL1        0.0800
      2  C          5.3070    1.0870    1.5200 C.2     1  UNL1        0.1300
      3  C          4.7170    2.1170    0.6420 C.3     1  UNL1        0.0870
      4  O          4.6550    0.5320    2.3700 O.2     1  UNL1       -0.3000
      5  C          7.1830    0.9290   -0.0760 C.3     1  UNL1        0.0430
      6  C          7.6200   -0.3420   -0.6620 C.2     1  UNL1       -0.0440
      7  C          7.6950   -0.4880   -2.0320 C.2     1  UNL1        0.0080
      8  C          7.9680   -1.4290    0.1210 C.2     1  UNL1        0.0540
      9  C          8.1040   -1.6790   -2.6280 C.2     1  UNL1        0.0510
     10  C          8.3810   -2.6320   -0.4460 C.2     1  UNL1        0.1660
     11  C          8.4460   -2.7460   -1.8190 C.2     1  UNL1        0.1650
     12  O          8.7830   -3.8620    0.0730 O.2     1  UNL1       -0.4540
     13  O          8.8800   -4.0300   -2.1160 O.2     1  UNL1       -0.4540
     14  C          8.8380   -4.8340   -0.9400 C.3     1  UNL1        0.4680
@<TRIPOS>BOND
     1     9     7    1
     2     9    11    2
     3    13    11    1
     4    13    14    1
     5     7     6    2
     6    11    10    1
     7    14    12    1
     8     6     5    1
     9     6     8    1
    10    10    12    1
    11    10     8    2
    12     5     1    1
    13     3     2    1
    14     1     2    1
    15     2     4    2
