@<TRIPOS>MOLECULE
/home/cewinharhar/GITHUB/reincatalyze/data/processed/docking_pred/2023-May-31-1603_sub9_nm5_bs15_s42_ex16_mel10_mts1000_k50_ec05_g099_lra3e-4_lrc9e-3/af0dd28332db5651a88784e76b435690c0a42449_ligand_9.pdbqt
 14 15 0 0 0
SMALL
GASTEIGER

@<TRIPOS>ATOM
      1  C          6.5650    1.3100    0.4370 C.3     1  UNL1        0.0800
      2  C          5.3800    1.1400    1.3020 C.2     1  UNL1        0.1300
      3  C          5.2490   -0.0880    2.1110 C.3     1  UNL1        0.0870
      4  O          4.5440    2.0090    1.3300 O.2     1  UNL1       -0.3000
      5  C          6.2600    0.9200   -0.9950 C.3     1  UNL1        0.0430
      6  C          7.0190   -0.2750   -1.3760 C.2     1  UNL1       -0.0440
      7  C          7.4440   -0.4440   -2.6770 C.2     1  UNL1        0.0080
      8  C          7.3330   -1.2650   -0.4620 C.2     1  UNL1        0.0540
      9  C          8.1670   -1.5640   -3.0800 C.2     1  UNL1        0.0510
     10  C          8.0540   -2.3970   -0.8360 C.2     1  UNL1        0.1660
     11  C          8.4660   -2.5360   -2.1450 C.2     1  UNL1        0.1650
     12  O          8.5070   -3.5270   -0.1560 O.2     1  UNL1       -0.4540
     13  O          9.1550   -3.7360   -2.2450 O.2     1  UNL1       -0.4540
     14  C          8.9570   -4.5030   -1.0610 C.3     1  UNL1        0.4680
@<TRIPOS>BOND
     1     9     7    1
     2     9    11    2
     3     7     6    2
     4    13    11    1
     5    13    14    1
     6    11    10    1
     7     6     5    1
     8     6     8    1
     9    14    12    1
    10     5     1    1
    11    10     8    2
    12    10    12    1
    13     1     2    1
    14     2     4    2
    15     2     3    1
