@<TRIPOS>MOLECULE
/home/cewinharhar/GITHUB/reincatalyze/data/processed/docking_pred/2023-May-31-1603_sub9_nm5_bs15_s42_ex16_mel10_mts1000_k50_ec05_g099_lra3e-4_lrc9e-3/af0dd28332db5651a88784e76b435690c0a42449_ligand_9.pdbqt
 14 15 0 0 0
SMALL
GASTEIGER

@<TRIPOS>ATOM
      1  C          5.6530    0.1570    1.9130 C.3     1  UNL1        0.0800
      2  C          4.6940    1.2330    1.5920 C.2     1  UNL1        0.1300
      3  C          4.9880    2.1500    0.4730 C.3     1  UNL1        0.0870
      4  O          3.6890    1.3400    2.2510 O.2     1  UNL1       -0.3000
      5  C          7.0230    0.4530    1.3370 C.3     1  UNL1        0.0430
      6  C          7.4280   -0.6020    0.4040 C.2     1  UNL1       -0.0440
      7  C          7.2500   -0.4370   -0.9540 C.2     1  UNL1        0.0080
      8  C          7.9940   -1.7880    0.8390 C.2     1  UNL1        0.0540
      9  C          7.6200   -1.4150   -1.8730 C.2     1  UNL1        0.0510
     10  C          8.3750   -2.7840   -0.0560 C.2     1  UNL1        0.1660
     11  C          8.1840   -2.5880   -1.4080 C.2     1  UNL1        0.1650
     12  O          8.9530   -4.0450    0.0820 O.2     1  UNL1       -0.4540
     13  O          8.6430   -3.7190   -2.0680 O.2     1  UNL1       -0.4540
     14  C          8.8820   -4.7600   -1.1240 C.3     1  UNL1        0.4680
@<TRIPOS>BOND
     1    13    11    1
     2    13    14    1
     3     9    11    2
     4     9     7    1
     5    11    10    1
     6    14    12    1
     7     7     6    2
     8    10    12    1
     9    10     8    2
    10     6     8    1
    11     6     5    1
    12     3     2    1
    13     5     1    1
    14     2     1    1
    15     2     4    2
