@<TRIPOS>MOLECULE
/home/cewinharhar/GITHUB/reincatalyze/data/processed/docking_pred/2023-May-31-1603_sub9_nm5_bs15_s42_ex16_mel10_mts1000_k50_ec05_g099_lra3e-4_lrc9e-3/af895cae38f50b8ad608cacdd29f7ae1ddca485c_ligand_9.pdbqt
 14 15 0 0 0
SMALL
GASTEIGER

@<TRIPOS>ATOM
      1  C          5.6300    1.1290   -0.2970 C.3     1  UNL1        0.0800
      2  C          5.1010    1.2270    1.0790 C.2     1  UNL1        0.1300
      3  C          5.4710    0.1950    2.0680 C.3     1  UNL1        0.0870
      4  O          4.3780    2.1490    1.3660 O.2     1  UNL1       -0.3000
      5  C          7.1420    1.0470   -0.2990 C.3     1  UNL1        0.0430
      6  C          7.5870   -0.2390   -0.8430 C.2     1  UNL1       -0.0440
      7  C          7.6730   -0.4270   -2.2070 C.2     1  UNL1        0.0080
      8  C          7.9330   -1.3000   -0.0250 C.2     1  UNL1        0.0540
      9  C          8.0900   -1.6330   -2.7640 C.2     1  UNL1        0.0510
     10  C          8.3540   -2.5190   -0.5530 C.2     1  UNL1        0.1660
     11  C          8.4290   -2.6740   -1.9210 C.2     1  UNL1        0.1650
     12  O          8.7560   -3.7320    0.0060 O.2     1  UNL1       -0.4540
     13  O          8.8700   -3.9650   -2.1760 O.2     1  UNL1       -0.4540
     14  C          8.8220   -4.7330   -0.9770 C.3     1  UNL1        0.4680
@<TRIPOS>BOND
     1     9     7    1
     2     9    11    2
     3     7     6    2
     4    13    11    1
     5    13    14    1
     6    11    10    1
     7    14    12    1
     8     6     5    1
     9     6     8    1
    10    10     8    2
    11    10    12    1
    12     5     1    1
    13     1     2    1
    14     2     4    2
    15     2     3    1
