@<TRIPOS>MOLECULE
/home/cewinharhar/GITHUB/reincatalyze/data/processed/docking_pred/2023-May-31-1603_sub9_nm5_bs15_s42_ex16_mel10_mts1000_k50_ec05_g099_lra3e-4_lrc9e-3/af895cae38f50b8ad608cacdd29f7ae1ddca485c_ligand_9.pdbqt
 14 15 0 0 0
SMALL
GASTEIGER

@<TRIPOS>ATOM
      1  C          6.3660    1.1610    0.9990 C.3     1  UNL1        0.0800
      2  C          5.6160    0.3560    1.9840 C.2     1  UNL1        0.1300
      3  C          6.2480   -0.8480    2.5610 C.3     1  UNL1        0.0870
      4  O          4.5030    0.6990    2.2980 O.2     1  UNL1       -0.3000
      5  C          5.8660    0.9100   -0.4090 C.3     1  UNL1        0.0430
      6  C          6.7780    0.0130   -1.1260 C.2     1  UNL1       -0.0440
      7  C          7.3310    0.4000   -2.3290 C.2     1  UNL1        0.0080
      8  C          7.1140   -1.2360   -0.6350 C.2     1  UNL1        0.0540
      9  C          8.2000   -0.4210   -3.0420 C.2     1  UNL1        0.0510
     10  C          7.9810   -2.0800   -1.3260 C.2     1  UNL1        0.1660
     11  C          8.5180   -1.6640   -2.5260 C.2     1  UNL1        0.1650
     12  O          8.4890   -3.3560   -1.0870 O.2     1  UNL1       -0.4540
     13  O          9.3360   -2.6800   -2.9980 O.2     1  UNL1       -0.4540
     14  C          9.1170   -3.8640   -2.2360 C.3     1  UNL1        0.4680
@<TRIPOS>BOND
     1     9    11    2
     2     9     7    1
     3    13    11    1
     4    13    14    1
     5    11    10    1
     6     7     6    2
     7    14    12    1
     8    10    12    1
     9    10     8    2
    10     6     8    1
    11     6     5    1
    12     5     1    1
    13     1     2    1
    14     2     4    2
    15     2     3    1
