MODEL 1
REMARK VINA RESULT:      -7.5      0.000      0.000
REMARK SMILES CC(=O)CCc1ccc2c(c1)OCO2
REMARK SMILES IDX 4 1 2 2 1 3 3 4 5 5 6 6 7 7 11 8 8 9 10 10 9 11 12 12 14 13
REMARK SMILES IDX 13 14
REMARK H PARENT
REMARK Flexibility Score: inf
ROOT
ATOM      1  C   UNL     1       5.603   1.820   1.336  1.00  0.00     0.080 C 
ENDROOT
BRANCH   1   2
ATOM      2  C   UNL     1       5.116   0.631   2.064  1.00  0.00     0.130 C 
ATOM      3  C   UNL     1       6.019  -0.522   2.247  1.00  0.00     0.087 C 
ATOM      4  O   UNL     1       3.989   0.627   2.495  1.00  0.00    -0.300 OA
ENDBRANCH   1   2
BRANCH   1   5
ATOM      5  C   UNL     1       5.418   1.662  -0.159  1.00  0.00     0.043 C 
BRANCH   5   6
ATOM      6  C   UNL     1       6.552   0.942  -0.745  1.00  0.00    -0.044 A 
ATOM      7  C   UNL     1       7.839   1.406  -0.566  1.00  0.00     0.008 A 
ATOM      8  C   UNL     1       6.382  -0.211  -1.491  1.00  0.00     0.054 A 
ATOM      9  C   UNL     1       8.943   0.753  -1.107  1.00  0.00     0.051 A 
ATOM     10  C   UNL     1       7.468  -0.886  -2.044  1.00  0.00     0.166 A 
ATOM     11  C   UNL     1       8.742  -0.397  -1.846  1.00  0.00     0.165 A 
ATOM     12  O   UNL     1       7.602  -2.038  -2.818  1.00  0.00    -0.454 OA
ATOM     13  O   UNL     1       9.626  -1.247  -2.495  1.00  0.00    -0.454 OA
ATOM     14  C   UNL     1       8.902  -2.137  -3.340  1.00  0.00     0.468 C 
ENDBRANCH   5   6
ENDBRANCH   1   5
TORSDOF 3
ENDMDL
MODEL 2
REMARK VINA RESULT:      -7.3      1.926      2.382
REMARK SMILES CC(=O)CCc1ccc2c(c1)OCO2
REMARK SMILES IDX 4 1 2 2 1 3 3 4 5 5 6 6 7 7 11 8 8 9 10 10 9 11 12 12 14 13
REMARK SMILES IDX 13 14
REMARK H PARENT
REMARK Flexibility Score: inf
ROOT
ATOM      1  C   UNL     1       5.630   1.129  -0.297  1.00  0.00     0.080 C 
ENDROOT
BRANCH   1   2
ATOM      2  C   UNL     1       5.101   1.227   1.079  1.00  0.00     0.130 C 
ATOM      3  C   UNL     1       5.471   0.195   2.068  1.00  0.00     0.087 C 
ATOM      4  O   UNL     1       4.378   2.149   1.366  1.00  0.00    -0.300 OA
ENDBRANCH   1   2
BRANCH   1   5
ATOM      5  C   UNL     1       7.142   1.047  -0.299  1.00  0.00     0.043 C 
BRANCH   5   6
ATOM      6  C   UNL     1       7.587  -0.239  -0.843  1.00  0.00    -0.044 A 
ATOM      7  C   UNL     1       7.673  -0.427  -2.207  1.00  0.00     0.008 A 
ATOM      8  C   UNL     1       7.933  -1.300  -0.025  1.00  0.00     0.054 A 
ATOM      9  C   UNL     1       8.090  -1.633  -2.764  1.00  0.00     0.051 A 
ATOM     10  C   UNL     1       8.354  -2.519  -0.553  1.00  0.00     0.166 A 
ATOM     11  C   UNL     1       8.429  -2.674  -1.921  1.00  0.00     0.165 A 
ATOM     12  O   UNL     1       8.756  -3.732   0.006  1.00  0.00    -0.454 OA
ATOM     13  O   UNL     1       8.870  -3.965  -2.176  1.00  0.00    -0.454 OA
ATOM     14  C   UNL     1       8.822  -4.733  -0.977  1.00  0.00     0.468 C 
ENDBRANCH   5   6
ENDBRANCH   1   5
TORSDOF 3
ENDMDL
MODEL 3
REMARK VINA RESULT:      -7.3      2.063      2.635
REMARK SMILES CC(=O)CCc1ccc2c(c1)OCO2
REMARK SMILES IDX 4 1 2 2 1 3 3 4 5 5 6 6 7 7 11 8 8 9 10 10 9 11 12 12 14 13
REMARK SMILES IDX 13 14
REMARK H PARENT
REMARK Flexibility Score: inf
ROOT
ATOM      1  C   UNL     1       5.369  -0.074   1.948  1.00  0.00     0.080 C 
ENDROOT
BRANCH   1   2
ATOM      2  C   UNL     1       4.544   1.133   1.744  1.00  0.00     0.130 C 
ATOM      3  C   UNL     1       4.921   2.094   0.688  1.00  0.00     0.087 C 
ATOM      4  O   UNL     1       3.578   1.310   2.444  1.00  0.00    -0.300 OA
ENDBRANCH   1   2
BRANCH   1   5
ATOM      5  C   UNL     1       6.817   0.184   1.586  1.00  0.00     0.043 C 
BRANCH   5   6
ATOM      6  C   UNL     1       7.275  -0.778   0.578  1.00  0.00    -0.044 A 
ATOM      7  C   UNL     1       7.080  -0.527  -0.764  1.00  0.00     0.008 A 
ATOM      8  C   UNL     1       7.909  -1.958   0.927  1.00  0.00     0.054 A 
ATOM      9  C   UNL     1       7.498  -1.415  -1.751  1.00  0.00     0.051 A 
ATOM     10  C   UNL     1       8.339  -2.865  -0.038  1.00  0.00     0.166 A 
ATOM     11  C   UNL     1       8.129  -2.585  -1.372  1.00  0.00     0.165 A 
ATOM     12  O   UNL     1       8.988  -4.098   0.009  1.00  0.00    -0.454 OA
ATOM     13  O   UNL     1       8.647  -3.639  -2.112  1.00  0.00    -0.454 OA
ATOM     14  C   UNL     1       8.950  -4.729  -1.245  1.00  0.00     0.468 C 
ENDBRANCH   5   6
ENDBRANCH   1   5
TORSDOF 3
ENDMDL
MODEL 4
REMARK VINA RESULT:      -7.1      1.311      1.530
REMARK SMILES CC(=O)CCc1ccc2c(c1)OCO2
REMARK SMILES IDX 4 1 2 2 1 3 3 4 5 5 6 6 7 7 11 8 8 9 10 10 9 11 12 12 14 13
REMARK SMILES IDX 13 14
REMARK H PARENT
REMARK Flexibility Score: inf
ROOT
ATOM      1  C   UNL     1       6.366   1.161   0.999  1.00  0.00     0.080 C 
ENDROOT
BRANCH   1   2
ATOM      2  C   UNL     1       5.616   0.356   1.984  1.00  0.00     0.130 C 
ATOM      3  C   UNL     1       6.248  -0.848   2.561  1.00  0.00     0.087 C 
ATOM      4  O   UNL     1       4.503   0.699   2.298  1.00  0.00    -0.300 OA
ENDBRANCH   1   2
BRANCH   1   5
ATOM      5  C   UNL     1       5.866   0.910  -0.409  1.00  0.00     0.043 C 
BRANCH   5   6
ATOM      6  C   UNL     1       6.778   0.013  -1.126  1.00  0.00    -0.044 A 
ATOM      7  C   UNL     1       7.331   0.400  -2.329  1.00  0.00     0.008 A 
ATOM      8  C   UNL     1       7.114  -1.236  -0.635  1.00  0.00     0.054 A 
ATOM      9  C   UNL     1       8.200  -0.421  -3.042  1.00  0.00     0.051 A 
ATOM     10  C   UNL     1       7.981  -2.080  -1.326  1.00  0.00     0.166 A 
ATOM     11  C   UNL     1       8.518  -1.664  -2.526  1.00  0.00     0.165 A 
ATOM     12  O   UNL     1       8.489  -3.356  -1.087  1.00  0.00    -0.454 OA
ATOM     13  O   UNL     1       9.336  -2.680  -2.998  1.00  0.00    -0.454 OA
ATOM     14  C   UNL     1       9.117  -3.864  -2.236  1.00  0.00     0.468 C 
ENDBRANCH   5   6
ENDBRANCH   1   5
TORSDOF 3
ENDMDL
MODEL 5
REMARK VINA RESULT:      -7.0      1.963      2.626
REMARK SMILES CC(=O)CCc1ccc2c(c1)OCO2
REMARK SMILES IDX 4 1 2 2 1 3 3 4 5 5 6 6 7 7 11 8 8 9 10 10 9 11 12 12 14 13
REMARK SMILES IDX 13 14
REMARK H PARENT
REMARK Flexibility Score: inf
ROOT
ATOM      1  C   UNL     1       6.665   0.548   0.854  1.00  0.00     0.080 C 
ENDROOT
BRANCH   1   2
ATOM      2  C   UNL     1       5.371   1.088   1.317  1.00  0.00     0.130 C 
ATOM      3  C   UNL     1       4.711   2.150   0.532  1.00  0.00     0.087 C 
ATOM      4  O   UNL     1       4.880   0.650   2.328  1.00  0.00    -0.300 OA
ENDBRANCH   1   2
BRANCH   1   5
ATOM      5  C   UNL     1       6.744   0.534  -0.659  1.00  0.00     0.043 C 
BRANCH   5   6
ATOM      6  C   UNL     1       7.410  -0.684  -1.128  1.00  0.00    -0.044 A 
ATOM      7  C   UNL     1       7.785  -0.808  -2.450  1.00  0.00     0.008 A 
ATOM      8  C   UNL     1       7.686  -1.742  -0.279  1.00  0.00     0.054 A 
ATOM      9  C   UNL     1       8.419  -1.949  -2.936  1.00  0.00     0.051 A 
ATOM     10  C   UNL     1       8.320  -2.895  -0.736  1.00  0.00     0.166 A 
ATOM     11  C   UNL     1       8.681  -2.988  -2.064  1.00  0.00     0.165 A 
ATOM     12  O   UNL     1       8.717  -4.088  -0.134  1.00  0.00    -0.454 OA
ATOM     13  O   UNL     1       9.287  -4.223  -2.251  1.00  0.00    -0.454 OA
ATOM     14  C   UNL     1       9.074  -5.040  -1.103  1.00  0.00     0.468 C 
ENDBRANCH   5   6
ENDBRANCH   1   5
TORSDOF 3
ENDMDL
