@<TRIPOS>MOLECULE
/home/cewinharhar/GITHUB/reincatalyze/data/processed/docking_pred/2023-May-31-1603_sub9_nm5_bs15_s42_ex16_mel10_mts1000_k50_ec05_g099_lra3e-4_lrc9e-3/af895cae38f50b8ad608cacdd29f7ae1ddca485c_ligand_9.pdbqt
 14 15 0 0 0
SMALL
GASTEIGER

@<TRIPOS>ATOM
      1  C          6.6650    0.5480    0.8540 C.3     1  UNL1        0.0800
      2  C          5.3710    1.0880    1.3170 C.2     1  UNL1        0.1300
      3  C          4.7110    2.1500    0.5320 C.3     1  UNL1        0.0870
      4  O          4.8800    0.6500    2.3280 O.2     1  UNL1       -0.3000
      5  C          6.7440    0.5340   -0.6590 C.3     1  UNL1        0.0430
      6  C          7.4100   -0.6840   -1.1280 C.2     1  UNL1       -0.0440
      7  C          7.7850   -0.8080   -2.4500 C.2     1  UNL1        0.0080
      8  C          7.6860   -1.7420   -0.2790 C.2     1  UNL1        0.0540
      9  C          8.4190   -1.9490   -2.9360 C.2     1  UNL1        0.0510
     10  C          8.3200   -2.8950   -0.7360 C.2     1  UNL1        0.1660
     11  C          8.6810   -2.9880   -2.0640 C.2     1  UNL1        0.1650
     12  O          8.7170   -4.0880   -0.1340 O.2     1  UNL1       -0.4540
     13  O          9.2870   -4.2230   -2.2510 O.2     1  UNL1       -0.4540
     14  C          9.0740   -5.0400   -1.1030 C.3     1  UNL1        0.4680
@<TRIPOS>BOND
     1     9     7    1
     2     9    11    2
     3     7     6    2
     4    13    11    1
     5    13    14    1
     6    11    10    1
     7     6     5    1
     8     6     8    1
     9    14    12    1
    10    10     8    2
    11    10    12    1
    12     5     1    1
    13     3     2    1
    14     1     2    1
    15     2     4    2
