@<TRIPOS>MOLECULE
/home/cewinharhar/GITHUB/reincatalyze/data/processed/docking_pred/2023-May-31-1603_sub9_nm5_bs15_s42_ex16_mel10_mts1000_k50_ec05_g099_lra3e-4_lrc9e-3/b0253e2818c1de1129519fa2afa58b59888d8d60_ligand_9.pdbqt
 14 15 0 0 0
SMALL
GASTEIGER

@<TRIPOS>ATOM
      1  C          5.3960   -0.0310    1.9320 C.3     1  UNL1        0.0800
      2  C          4.5710    1.1690    1.6850 C.2     1  UNL1        0.1300
      3  C          4.9960    2.1350    0.6530 C.3     1  UNL1        0.0870
      4  O          3.5670    1.3350    2.3330 O.2     1  UNL1       -0.3000
      5  C          6.8440    0.2130    1.5620 C.3     1  UNL1        0.0430
      6  C          7.2920   -0.7640    0.5650 C.2     1  UNL1       -0.0440
      7  C          7.0960   -0.5260   -0.7800 C.2     1  UNL1        0.0080
      8  C          7.9190   -1.9430    0.9250 C.2     1  UNL1        0.0540
      9  C          7.5060   -1.4280   -1.7580 C.2     1  UNL1        0.0510
     10  C          8.3410   -2.8650   -0.0310 C.2     1  UNL1        0.1660
     11  C          8.1300   -2.5980   -1.3670 C.2     1  UNL1        0.1650
     12  O          8.9810   -4.1020    0.0290 O.2     1  UNL1       -0.4540
     13  O          8.6380   -3.6640   -2.0960 O.2     1  UNL1       -0.4540
     14  C          8.9350   -4.7460   -1.2180 C.3     1  UNL1        0.4680
@<TRIPOS>BOND
     1    13    11    1
     2    13    14    1
     3     9    11    2
     4     9     7    1
     5    11    10    1
     6    14    12    1
     7     7     6    2
     8    10    12    1
     9    10     8    2
    10     6     8    1
    11     6     5    1
    12     3     2    1
    13     5     1    1
    14     2     1    1
    15     2     4    2
