@<TRIPOS>MOLECULE
/home/cewinharhar/GITHUB/reincatalyze/data/processed/docking_pred/2023-May-31-1603_sub9_nm5_bs15_s42_ex16_mel10_mts1000_k50_ec05_g099_lra3e-4_lrc9e-3/b0253e2818c1de1129519fa2afa58b59888d8d60_ligand_9.pdbqt
 14 15 0 0 0
SMALL
GASTEIGER

@<TRIPOS>ATOM
      1  C          5.6480    1.7860    1.3980 C.3     1  UNL1        0.0800
      2  C          5.1400    0.5730    2.0700 C.2     1  UNL1        0.1300
      3  C          6.0300   -0.5950    2.2190 C.3     1  UNL1        0.0870
      4  O          4.0070    0.5620    2.4850 O.2     1  UNL1       -0.3000
      5  C          5.4670    1.6970   -0.1030 C.3     1  UNL1        0.0430
      6  C          6.5800    0.9660   -0.7140 C.2     1  UNL1       -0.0440
      7  C          7.8760    1.4110   -0.5550 C.2     1  UNL1        0.0080
      8  C          6.3800   -0.1800   -1.4630 C.2     1  UNL1        0.0540
      9  C          8.9610    0.7460   -1.1200 C.2     1  UNL1        0.0510
     10  C          7.4460   -0.8670   -2.0400 C.2     1  UNL1        0.1660
     11  C          8.7300   -0.3970   -1.8630 C.2     1  UNL1        0.1650
     12  O          7.5500   -2.0170   -2.8230 O.2     1  UNL1       -0.4540
     13  O          9.5900   -1.2550   -2.5320 O.2     1  UNL1       -0.4540
     14  C          8.8390   -2.1300   -3.3700 C.3     1  UNL1        0.4680
@<TRIPOS>BOND
     1    14    12    1
     2    14    13    1
     3    12    10    1
     4    13    11    1
     5    10    11    2
     6    10     8    1
     7    11     9    1
     8     8     6    2
     9     9     7    2
    10     6     7    1
    11     6     5    1
    12     5     1    1
    13     1     2    1
    14     2     3    1
    15     2     4    2
