@<TRIPOS>MOLECULE
/home/cewinharhar/GITHUB/reincatalyze/data/processed/docking_pred/2023-May-31-1603_sub9_nm5_bs15_s42_ex16_mel10_mts1000_k50_ec05_g099_lra3e-4_lrc9e-3/b0253e2818c1de1129519fa2afa58b59888d8d60_ligand_9.pdbqt
 14 15 0 0 0
SMALL
GASTEIGER

@<TRIPOS>ATOM
      1  C          6.6590    0.6070    1.3440 C.3     1  UNL1        0.0800
      2  C          5.2760    1.1080    1.4790 C.2     1  UNL1        0.1300
      3  C          4.7940    2.1500    0.5500 C.3     1  UNL1        0.0870
      4  O          4.5690    0.6550    2.3450 O.2     1  UNL1       -0.3000
      5  C          7.2000    0.8570   -0.0480 C.3     1  UNL1        0.0430
      6  C          7.6370   -0.4000   -0.6640 C.2     1  UNL1       -0.0440
      7  C          7.7130   -0.5130   -2.0370 C.2     1  UNL1        0.0080
      8  C          7.9840   -1.5050    0.0930 C.2     1  UNL1        0.0540
      9  C          8.1220   -1.6890   -2.6610 C.2     1  UNL1        0.0510
     10  C          8.3970   -2.6940   -0.5030 C.2     1  UNL1        0.1660
     11  C          8.4620   -2.7760   -1.8780 C.2     1  UNL1        0.1650
     12  O          8.7980   -3.9370   -0.0140 O.2     1  UNL1       -0.4540
     13  O          8.8970   -4.0520   -2.2050 O.2     1  UNL1       -0.4540
     14  C          8.8540   -4.8840   -1.0490 C.3     1  UNL1        0.4680
@<TRIPOS>BOND
     1     9     7    1
     2     9    11    2
     3    13    11    1
     4    13    14    1
     5     7     6    2
     6    11    10    1
     7    14    12    1
     8     6     5    1
     9     6     8    1
    10    10    12    1
    11    10     8    2
    12     5     1    1
    13     3     2    1
    14     1     2    1
    15     2     4    2
