@<TRIPOS>MOLECULE
/home/cewinharhar/GITHUB/reincatalyze/data/processed/docking_pred/2023-May-31-1603_sub9_nm5_bs15_s42_ex16_mel10_mts1000_k50_ec05_g099_lra3e-4_lrc9e-3/b0253e2818c1de1129519fa2afa58b59888d8d60_ligand_9.pdbqt
 14 15 0 0 0
SMALL
GASTEIGER

@<TRIPOS>ATOM
      1  C          5.6390    1.2390   -0.2720 C.3     1  UNL1        0.0800
      2  C          5.0940    1.2050    1.1000 C.2     1  UNL1        0.1300
      3  C          5.3340    0.0140    1.9410 C.3     1  UNL1        0.0870
      4  O          4.4640    2.1500    1.5060 O.2     1  UNL1       -0.3000
      5  C          7.1510    1.1480   -0.2640 C.3     1  UNL1        0.0430
      6  C          7.5940   -0.1150   -0.8610 C.2     1  UNL1       -0.0440
      7  C          7.6700   -0.2490   -2.2320 C.2     1  UNL1        0.0080
      8  C          7.9480   -1.2070   -0.0880 C.2     1  UNL1        0.0540
      9  C          8.0850   -1.4310   -2.8390 C.2     1  UNL1        0.0510
     10  C          8.3670   -2.4020   -0.6660 C.2     1  UNL1        0.1660
     11  C          8.4320   -2.5040   -2.0400 C.2     1  UNL1        0.1650
     12  O          8.7750   -3.6360   -0.1580 O.2     1  UNL1       -0.4540
     13  O          8.8730   -3.7830   -2.3480 O.2     1  UNL1       -0.4540
     14  C          8.8350   -4.5980   -1.1790 C.3     1  UNL1        0.4680
@<TRIPOS>BOND
     1     9     7    1
     2     9    11    2
     3    13    11    1
     4    13    14    1
     5     7     6    2
     6    11    10    1
     7    14    12    1
     8     6     5    1
     9     6     8    1
    10    10    12    1
    11    10     8    2
    12     1     5    1
    13     1     2    1
    14     2     4    2
    15     2     3    1
