@<TRIPOS>MOLECULE
/home/cewinharhar/GITHUB/reincatalyze/data/processed/docking_pred/2023-May-31-1603_sub9_nm5_bs15_s42_ex16_mel10_mts1000_k50_ec05_g099_lra3e-4_lrc9e-3/b0dbf451e4e891e0fb60bf6ca530f921e690d9da_ligand_9.pdbqt
 14 15 0 0 0
SMALL
GASTEIGER

@<TRIPOS>ATOM
      1  C          5.8410    1.1320   -0.2560 C.3     1  UNL1        0.0800
      2  C          5.3370    1.0450    1.1290 C.2     1  UNL1        0.1300
      3  C          5.7560   -0.0880    1.9780 C.3     1  UNL1        0.0870
      4  O          4.5930    1.9010    1.5390 O.2     1  UNL1       -0.3000
      5  C          7.3470    1.2850   -0.2840 C.3     1  UNL1        0.0430
      6  C          7.9620    0.1930   -1.0450 C.2     1  UNL1       -0.0440
      7  C          7.3160   -0.3420   -2.1400 C.2     1  UNL1        0.0080
      8  C          9.1930   -0.3370   -0.7010 C.2     1  UNL1        0.0540
      9  C          7.8650   -1.3800   -2.8890 C.2     1  UNL1        0.0510
     10  C          9.7670   -1.3760   -1.4300 C.2     1  UNL1        0.1660
     11  C          9.0960   -1.8890   -2.5210 C.2     1  UNL1        0.1650
     12  O         10.9590   -2.0920   -1.3260 O.2     1  UNL1       -0.4540
     13  O          9.8780   -2.9000   -3.0600 O.2     1  UNL1       -0.4540
     14  C         10.9320   -3.2240   -2.1580 C.3     1  UNL1        0.4680
@<TRIPOS>BOND
     1    13    11    1
     2    13    14    1
     3     9    11    2
     4     9     7    1
     5    11    10    1
     6    14    12    1
     7     7     6    2
     8    10    12    1
     9    10     8    2
    10     6     8    1
    11     6     5    1
    12     5     1    1
    13     1     2    1
    14     2     4    2
    15     2     3    1
