@<TRIPOS>MOLECULE
/home/cewinharhar/GITHUB/reincatalyze/data/processed/docking_pred/2023-May-31-1603_sub9_nm5_bs15_s42_ex16_mel10_mts1000_k50_ec05_g099_lra3e-4_lrc9e-3/b0dbf451e4e891e0fb60bf6ca530f921e690d9da_ligand_9.pdbqt
 14 15 0 0 0
SMALL
GASTEIGER

@<TRIPOS>ATOM
      1  C          6.1110    1.4120    1.0460 C.3     1  UNL1        0.0800
      2  C          5.3930    0.4310    1.8850 C.2     1  UNL1        0.1300
      3  C          6.0280   -0.8700    2.1740 C.3     1  UNL1        0.0870
      4  O          4.3030    0.7140    2.3160 O.2     1  UNL1       -0.3000
      5  C          5.9400    1.1050   -0.4270 C.3     1  UNL1        0.0430
      6  C          7.0490    0.2800   -0.9140 C.2     1  UNL1       -0.0440
      7  C          6.8670   -0.5720   -1.9830 C.2     1  UNL1        0.0080
      8  C          8.3030    0.3210   -0.3300 C.2     1  UNL1        0.0540
      9  C          7.8940   -1.3730   -2.4750 C.2     1  UNL1        0.0510
     10  C          9.3510   -0.4670   -0.8010 C.2     1  UNL1        0.1660
     11  C          9.1360   -1.3100   -1.8720 C.2     1  UNL1        0.1650
     12  O         10.6840   -0.6350   -0.4270 O.2     1  UNL1       -0.4540
     13  O         10.3270   -1.9720   -2.1330 O.2     1  UNL1       -0.4540
     14  C         11.2400   -1.7590   -1.0600 C.3     1  UNL1        0.4680
@<TRIPOS>BOND
     1     9     7    1
     2     9    11    2
     3    13    11    1
     4    13    14    1
     5     7     6    2
     6    11    10    1
     7    14    12    1
     8     6     5    1
     9     6     8    1
    10    10    12    1
    11    10     8    2
    12     5     1    1
    13     1     2    1
    14     2     3    1
    15     2     4    2
