MODEL 1
REMARK VINA RESULT:      -8.2      0.000      0.000
REMARK SMILES CC(=O)CCc1ccc2c(c1)OCO2
REMARK SMILES IDX 4 1 2 2 1 3 3 4 5 5 6 6 7 7 11 8 8 9 10 10 9 11 12 12 14 13
REMARK SMILES IDX 13 14
REMARK H PARENT
REMARK Flexibility Score: inf
ROOT
ATOM      1  C   UNL     1       5.850   1.612   1.002  1.00  0.00     0.080 C 
ENDROOT
BRANCH   1   2
ATOM      2  C   UNL     1       5.365   0.580   1.941  1.00  0.00     0.130 C 
ATOM      3  C   UNL     1       6.262  -0.532   2.316  1.00  0.00     0.087 C 
ATOM      4  O   UNL     1       4.246   0.666   2.383  1.00  0.00    -0.300 OA
ENDBRANCH   1   2
BRANCH   1   5
ATOM      5  C   UNL     1       5.718   1.152  -0.435  1.00  0.00     0.043 C 
BRANCH   5   6
ATOM      6  C   UNL     1       6.929   0.445  -0.863  1.00  0.00    -0.044 A 
ATOM      7  C   UNL     1       8.167   1.035  -0.719  1.00  0.00     0.008 A 
ATOM      8  C   UNL     1       6.880  -0.821  -1.419  1.00  0.00     0.054 A 
ATOM      9  C   UNL     1       9.341   0.398  -1.113  1.00  0.00     0.051 A 
ATOM     10  C   UNL     1       8.036  -1.483  -1.823  1.00  0.00     0.166 A 
ATOM     11  C   UNL     1       9.260  -0.866  -1.666  1.00  0.00     0.165 A 
ATOM     12  O   UNL     1       8.292  -2.727  -2.399  1.00  0.00    -0.454 OA
ATOM     13  O   UNL     1      10.234  -1.732  -2.143  1.00  0.00    -0.454 OA
ATOM     14  C   UNL     1       9.618  -2.799  -2.858  1.00  0.00     0.468 C 
ENDBRANCH   5   6
ENDBRANCH   1   5
TORSDOF 3
ENDMDL
MODEL 2
REMARK VINA RESULT:      -7.8      1.070      1.834
REMARK SMILES CC(=O)CCc1ccc2c(c1)OCO2
REMARK SMILES IDX 4 1 2 2 1 3 3 4 5 5 6 6 7 7 11 8 8 9 10 10 9 11 12 12 14 13
REMARK SMILES IDX 13 14
REMARK H PARENT
REMARK Flexibility Score: inf
ROOT
ATOM      1  C   UNL     1       5.841   1.132  -0.256  1.00  0.00     0.080 C 
ENDROOT
BRANCH   1   2
ATOM      2  C   UNL     1       5.337   1.045   1.129  1.00  0.00     0.130 C 
ATOM      3  C   UNL     1       5.756  -0.088   1.978  1.00  0.00     0.087 C 
ATOM      4  O   UNL     1       4.593   1.901   1.539  1.00  0.00    -0.300 OA
ENDBRANCH   1   2
BRANCH   1   5
ATOM      5  C   UNL     1       7.347   1.285  -0.284  1.00  0.00     0.043 C 
BRANCH   5   6
ATOM      6  C   UNL     1       7.962   0.193  -1.045  1.00  0.00    -0.044 A 
ATOM      7  C   UNL     1       7.316  -0.342  -2.140  1.00  0.00     0.008 A 
ATOM      8  C   UNL     1       9.193  -0.337  -0.701  1.00  0.00     0.054 A 
ATOM      9  C   UNL     1       7.865  -1.380  -2.889  1.00  0.00     0.051 A 
ATOM     10  C   UNL     1       9.767  -1.376  -1.430  1.00  0.00     0.166 A 
ATOM     11  C   UNL     1       9.096  -1.889  -2.521  1.00  0.00     0.165 A 
ATOM     12  O   UNL     1      10.959  -2.092  -1.326  1.00  0.00    -0.454 OA
ATOM     13  O   UNL     1       9.878  -2.900  -3.060  1.00  0.00    -0.454 OA
ATOM     14  C   UNL     1      10.932  -3.224  -2.158  1.00  0.00     0.468 C 
ENDBRANCH   5   6
ENDBRANCH   1   5
TORSDOF 3
ENDMDL
MODEL 3
REMARK VINA RESULT:      -7.4      0.947      1.752
REMARK SMILES CC(=O)CCc1ccc2c(c1)OCO2
REMARK SMILES IDX 4 1 2 2 1 3 3 4 5 5 6 6 7 7 11 8 8 9 10 10 9 11 12 12 14 13
REMARK SMILES IDX 13 14
REMARK H PARENT
REMARK Flexibility Score: inf
ROOT
ATOM      1  C   UNL     1       6.111   1.412   1.046  1.00  0.00     0.080 C 
ENDROOT
BRANCH   1   2
ATOM      2  C   UNL     1       5.393   0.431   1.885  1.00  0.00     0.130 C 
ATOM      3  C   UNL     1       6.028  -0.870   2.174  1.00  0.00     0.087 C 
ATOM      4  O   UNL     1       4.303   0.714   2.316  1.00  0.00    -0.300 OA
ENDBRANCH   1   2
BRANCH   1   5
ATOM      5  C   UNL     1       5.940   1.105  -0.427  1.00  0.00     0.043 C 
BRANCH   5   6
ATOM      6  C   UNL     1       7.049   0.280  -0.914  1.00  0.00    -0.044 A 
ATOM      7  C   UNL     1       6.867  -0.572  -1.983  1.00  0.00     0.008 A 
ATOM      8  C   UNL     1       8.303   0.321  -0.330  1.00  0.00     0.054 A 
ATOM      9  C   UNL     1       7.894  -1.373  -2.475  1.00  0.00     0.051 A 
ATOM     10  C   UNL     1       9.351  -0.467  -0.801  1.00  0.00     0.166 A 
ATOM     11  C   UNL     1       9.136  -1.310  -1.872  1.00  0.00     0.165 A 
ATOM     12  O   UNL     1      10.684  -0.635  -0.427  1.00  0.00    -0.454 OA
ATOM     13  O   UNL     1      10.327  -1.972  -2.133  1.00  0.00    -0.454 OA
ATOM     14  C   UNL     1      11.240  -1.759  -1.060  1.00  0.00     0.468 C 
ENDBRANCH   5   6
ENDBRANCH   1   5
TORSDOF 3
ENDMDL
MODEL 4
REMARK VINA RESULT:      -7.4      1.448      2.187
REMARK SMILES CC(=O)CCc1ccc2c(c1)OCO2
REMARK SMILES IDX 4 1 2 2 1 3 3 4 5 5 6 6 7 7 11 8 8 9 10 10 9 11 12 12 14 13
REMARK SMILES IDX 13 14
REMARK H PARENT
REMARK Flexibility Score: inf
ROOT
ATOM      1  C   UNL     1       6.654   0.197   1.779  1.00  0.00     0.080 C 
ENDROOT
BRANCH   1   2
ATOM      2  C   UNL     1       5.355   0.879   1.606  1.00  0.00     0.130 C 
ATOM      3  C   UNL     1       5.182   1.825   0.486  1.00  0.00     0.087 C 
ATOM      4  O   UNL     1       4.463   0.649   2.384  1.00  0.00    -0.300 OA
ENDBRANCH   1   2
BRANCH   1   5
ATOM      5  C   UNL     1       6.550  -1.275   1.438  1.00  0.00     0.043 C 
BRANCH   5   6
ATOM      6  C   UNL     1       7.323  -1.580   0.231  1.00  0.00    -0.044 A 
ATOM      7  C   UNL     1       6.855  -1.199  -1.010  1.00  0.00     0.008 A 
ATOM      8  C   UNL     1       8.531  -2.252   0.285  1.00  0.00     0.054 A 
ATOM      9  C   UNL     1       7.558  -1.470  -2.181  1.00  0.00     0.051 A 
ATOM     10  C   UNL     1       9.257  -2.537  -0.869  1.00  0.00     0.166 A 
ATOM     11  C   UNL     1       8.763  -2.143  -2.095  1.00  0.00     0.165 A 
ATOM     12  O   UNL     1      10.469  -3.180  -1.120  1.00  0.00    -0.454 OA
ATOM     13  O   UNL     1       9.669  -2.546  -3.065  1.00  0.00    -0.454 OA
ATOM     14  C   UNL     1      10.619  -3.440  -2.492  1.00  0.00     0.468 C 
ENDBRANCH   5   6
ENDBRANCH   1   5
TORSDOF 3
ENDMDL
MODEL 5
REMARK VINA RESULT:      -7.3      1.521      1.943
REMARK SMILES CC(=O)CCc1ccc2c(c1)OCO2
REMARK SMILES IDX 4 1 2 2 1 3 3 4 5 5 6 6 7 7 11 8 8 9 10 10 9 11 12 12 14 13
REMARK SMILES IDX 13 14
REMARK H PARENT
REMARK Flexibility Score: inf
ROOT
ATOM      1  C   UNL     1       5.871   0.995  -0.360  1.00  0.00     0.080 C 
ENDROOT
BRANCH   1   2
ATOM      2  C   UNL     1       5.283   1.140   0.987  1.00  0.00     0.130 C 
ATOM      3  C   UNL     1       5.443   0.045   1.965  1.00  0.00     0.087 C 
ATOM      4  O   UNL     1       4.683   2.150   1.260  1.00  0.00    -0.300 OA
ENDBRANCH   1   2
BRANCH   1   5
ATOM      5  C   UNL     1       7.384   0.942  -0.295  1.00  0.00     0.043 C 
BRANCH   5   6
ATOM      6  C   UNL     1       7.881  -0.304  -0.886  1.00  0.00    -0.044 A 
ATOM      7  C   UNL     1       8.196  -0.362  -2.228  1.00  0.00     0.008 A 
ATOM      8  C   UNL     1       8.051  -1.454  -0.134  1.00  0.00     0.054 A 
ATOM      9  C   UNL     1       8.670  -1.526  -2.827  1.00  0.00     0.051 A 
ATOM     10  C   UNL     1       8.524  -2.632  -0.706  1.00  0.00     0.166 A 
ATOM     11  C   UNL     1       8.830  -2.658  -2.051  1.00  0.00     0.165 A 
ATOM     12  O   UNL     1       8.790  -3.911  -0.216  1.00  0.00    -0.454 OA
ATOM     13  O   UNL     1       9.273  -3.936  -2.359  1.00  0.00    -0.454 OA
ATOM     14  C   UNL     1       8.998  -4.814  -1.271  1.00  0.00     0.468 C 
ENDBRANCH   5   6
ENDBRANCH   1   5
TORSDOF 3
ENDMDL
