@<TRIPOS>MOLECULE
/home/cewinharhar/GITHUB/reincatalyze/data/processed/docking_pred/2023-May-31-1603_sub9_nm5_bs15_s42_ex16_mel10_mts1000_k50_ec05_g099_lra3e-4_lrc9e-3/b0dbf451e4e891e0fb60bf6ca530f921e690d9da_ligand_9.pdbqt
 14 15 0 0 0
SMALL
GASTEIGER

@<TRIPOS>ATOM
      1  C          6.6540    0.1970    1.7790 C.3     1  UNL1        0.0800
      2  C          5.3550    0.8790    1.6060 C.2     1  UNL1        0.1300
      3  C          5.1820    1.8250    0.4860 C.3     1  UNL1        0.0870
      4  O          4.4630    0.6490    2.3840 O.2     1  UNL1       -0.3000
      5  C          6.5500   -1.2750    1.4380 C.3     1  UNL1        0.0430
      6  C          7.3230   -1.5800    0.2310 C.2     1  UNL1       -0.0440
      7  C          6.8550   -1.1990   -1.0100 C.2     1  UNL1        0.0080
      8  C          8.5310   -2.2520    0.2850 C.2     1  UNL1        0.0540
      9  C          7.5580   -1.4700   -2.1810 C.2     1  UNL1        0.0510
     10  C          9.2570   -2.5370   -0.8690 C.2     1  UNL1        0.1660
     11  C          8.7630   -2.1430   -2.0950 C.2     1  UNL1        0.1650
     12  O         10.4690   -3.1800   -1.1200 O.2     1  UNL1       -0.4540
     13  O          9.6690   -2.5460   -3.0650 O.2     1  UNL1       -0.4540
     14  C         10.6190   -3.4400   -2.4920 C.3     1  UNL1        0.4680
@<TRIPOS>BOND
     1    13    14    1
     2    13    11    1
     3    14    12    1
     4     9    11    2
     5     9     7    1
     6    11    10    1
     7    12    10    1
     8     7     6    2
     9    10     8    2
    10     6     8    1
    11     6     5    1
    12     3     2    1
    13     5     1    1
    14     2     1    1
    15     2     4    2
