@<TRIPOS>MOLECULE
/home/cewinharhar/GITHUB/reincatalyze/data/processed/docking_pred/2023-May-31-1603_sub9_nm5_bs15_s42_ex16_mel10_mts1000_k50_ec05_g099_lra3e-4_lrc9e-3/b0dbf451e4e891e0fb60bf6ca530f921e690d9da_ligand_9.pdbqt
 14 15 0 0 0
SMALL
GASTEIGER

@<TRIPOS>ATOM
      1  C          5.8500    1.6120    1.0020 C.3     1  UNL1        0.0800
      2  C          5.3650    0.5800    1.9410 C.2     1  UNL1        0.1300
      3  C          6.2620   -0.5320    2.3160 C.3     1  UNL1        0.0870
      4  O          4.2460    0.6660    2.3830 O.2     1  UNL1       -0.3000
      5  C          5.7180    1.1520   -0.4350 C.3     1  UNL1        0.0430
      6  C          6.9290    0.4450   -0.8630 C.2     1  UNL1       -0.0440
      7  C          8.1670    1.0350   -0.7190 C.2     1  UNL1        0.0080
      8  C          6.8800   -0.8210   -1.4190 C.2     1  UNL1        0.0540
      9  C          9.3410    0.3980   -1.1130 C.2     1  UNL1        0.0510
     10  C          8.0360   -1.4830   -1.8230 C.2     1  UNL1        0.1660
     11  C          9.2600   -0.8660   -1.6660 C.2     1  UNL1        0.1650
     12  O          8.2920   -2.7270   -2.3990 O.2     1  UNL1       -0.4540
     13  O         10.2340   -1.7320   -2.1430 O.2     1  UNL1       -0.4540
     14  C          9.6180   -2.7990   -2.8580 C.3     1  UNL1        0.4680
@<TRIPOS>BOND
     1    14    12    1
     2    14    13    1
     3    12    10    1
     4    13    11    1
     5    10    11    2
     6    10     8    1
     7    11     9    1
     8     8     6    2
     9     9     7    2
    10     6     7    1
    11     6     5    1
    12     5     1    1
    13     1     2    1
    14     2     3    1
    15     2     4    2
