@<TRIPOS>MOLECULE
/home/cewinharhar/GITHUB/reincatalyze/data/processed/docking_pred/2023-May-31-1603_sub9_nm5_bs15_s42_ex16_mel10_mts1000_k50_ec05_g099_lra3e-4_lrc9e-3/b393d0f0af23d36e99ef7bf88514b4beffd0378d_ligand_9.pdbqt
 14 15 0 0 0
SMALL
GASTEIGER

@<TRIPOS>ATOM
      1  C          8.1650    0.1360   -2.7310 C.3     1  UNL1        0.0800
      2  C          7.8750   -1.3110   -2.7170 C.2     1  UNL1        0.1300
      3  C          8.9790   -2.2700   -2.9250 C.3     1  UNL1        0.0870
      4  O          6.7410   -1.6820   -2.5370 O.2     1  UNL1       -0.3000
      5  C          8.7500    0.5910   -1.4090 C.3     1  UNL1        0.0430
      6  C          7.7530    0.4850   -0.3410 C.2     1  UNL1       -0.0440
      7  C          7.8710   -0.4910    0.6280 C.2     1  UNL1        0.0080
      8  C          6.6700    1.3430   -0.2620 C.2     1  UNL1        0.0540
      9  C          6.9440   -0.6260    1.6590 C.2     1  UNL1        0.0510
     10  C          5.7280    1.2320    0.7580 C.2     1  UNL1        0.1660
     11  C          5.8740    0.2470    1.7110 C.2     1  UNL1        0.1650
     12  O          4.5670    1.9320    1.0870 O.2     1  UNL1       -0.4540
     13  O          4.8130    0.3570    2.5990 O.2     1  UNL1       -0.4540
     14  C          3.8320    1.2430    2.0660 C.3     1  UNL1        0.4680
@<TRIPOS>BOND
     1     3     2    1
     2     1     2    1
     3     1     5    1
     4     2     4    2
     5     5     6    1
     6     6     8    2
     7     6     7    1
     8     8    10    1
     9     7     9    2
    10    10    12    1
    11    10    11    2
    12    12    14    1
    13     9    11    1
    14    11    13    1
    15    14    13    1
