@<TRIPOS>MOLECULE
/home/cewinharhar/GITHUB/reincatalyze/data/processed/docking_pred/2023-May-31-1603_sub9_nm5_bs15_s42_ex16_mel10_mts1000_k50_ec05_g099_lra3e-4_lrc9e-3/b3ccd1df948aefc26948fdc9bbc960af2f6fd47d_ligand_9.pdbqt
 14 15 0 0 0
SMALL
GASTEIGER

@<TRIPOS>ATOM
      1  C          5.8160    1.5480    1.2650 C.3     1  UNL1        0.0800
      2  C          5.2960    0.4140    2.0550 C.2     1  UNL1        0.1300
      3  C          6.1620   -0.7590    2.2890 C.3     1  UNL1        0.0870
      4  O          4.1740    0.4690    2.4940 O.2     1  UNL1       -0.3000
      5  C          5.5770    1.3410   -0.2160 C.3     1  UNL1        0.0430
      6  C          6.7130    0.6460   -0.8290 C.2     1  UNL1       -0.0440
      7  C          7.9710    1.2090   -0.8020 C.2     1  UNL1        0.0080
      8  C          6.5710   -0.5830   -1.4490 C.2     1  UNL1        0.0540
      9  C          9.0750    0.5820   -1.3730 C.2     1  UNL1        0.0510
     10  C          7.6570   -1.2350   -2.0290 C.2     1  UNL1        0.1660
     11  C          8.9030   -0.6450   -1.9860 C.2     1  UNL1        0.1650
     12  O          7.8150   -2.4440   -2.7040 O.2     1  UNL1       -0.4540
     13  O          9.7940   -1.4930   -2.6280 O.2     1  UNL1       -0.4540
     14  C          9.0740   -2.5060   -3.3240 C.3     1  UNL1        0.4680
@<TRIPOS>BOND
     1    14    12    1
     2    14    13    1
     3    12    10    1
     4    13    11    1
     5    10    11    2
     6    10     8    1
     7    11     9    1
     8     8     6    2
     9     9     7    2
    10     6     7    1
    11     6     5    1
    12     5     1    1
    13     1     2    1
    14     2     3    1
    15     2     4    2
