MODEL 1
REMARK VINA RESULT:      -7.2      0.000      0.000
REMARK SMILES CC(=O)CCc1ccc2c(c1)OCO2
REMARK SMILES IDX 4 1 2 2 1 3 3 4 5 5 6 6 7 7 11 8 8 9 10 10 9 11 12 12 14 13
REMARK SMILES IDX 13 14
REMARK H PARENT
REMARK Flexibility Score: inf
ROOT
ATOM      1  C   UNL     1       6.318   1.188   1.001  1.00  0.00     0.080 C 
ENDROOT
BRANCH   1   2
ATOM      2  C   UNL     1       5.587   0.369   1.989  1.00  0.00     0.130 C 
ATOM      3  C   UNL     1       6.222  -0.853   2.523  1.00  0.00     0.087 C 
ATOM      4  O   UNL     1       4.487   0.716   2.340  1.00  0.00    -0.300 OA
ENDBRANCH   1   2
BRANCH   1   5
ATOM      5  C   UNL     1       5.819   0.926  -0.405  1.00  0.00     0.043 C 
BRANCH   5   6
ATOM      6  C   UNL     1       6.744   0.046  -1.125  1.00  0.00    -0.044 A 
ATOM      7  C   UNL     1       7.317   0.457  -2.310  1.00  0.00     0.008 A 
ATOM      8  C   UNL     1       7.072  -1.213  -0.653  1.00  0.00     0.054 A 
ATOM      9  C   UNL     1       8.200  -0.349  -3.024  1.00  0.00     0.051 A 
ATOM     10  C   UNL     1       7.952  -2.042  -1.346  1.00  0.00     0.166 A 
ATOM     11  C   UNL     1       8.509  -1.601  -2.528  1.00  0.00     0.165 A 
ATOM     12  O   UNL     1       8.458  -3.323  -1.124  1.00  0.00    -0.454 OA
ATOM     13  O   UNL     1       9.337  -2.607  -3.006  1.00  0.00    -0.454 OA
ATOM     14  C   UNL     1       9.106  -3.807  -2.272  1.00  0.00     0.468 C 
ENDBRANCH   5   6
ENDBRANCH   1   5
TORSDOF 3
ENDMDL
MODEL 2
REMARK VINA RESULT:      -7.2      1.110      1.227
REMARK SMILES CC(=O)CCc1ccc2c(c1)OCO2
REMARK SMILES IDX 4 1 2 2 1 3 3 4 5 5 6 6 7 7 11 8 8 9 10 10 9 11 12 12 14 13
REMARK SMILES IDX 13 14
REMARK H PARENT
REMARK Flexibility Score: inf
ROOT
ATOM      1  C   UNL     1       5.816   1.548   1.265  1.00  0.00     0.080 C 
ENDROOT
BRANCH   1   2
ATOM      2  C   UNL     1       5.296   0.414   2.055  1.00  0.00     0.130 C 
ATOM      3  C   UNL     1       6.162  -0.759   2.289  1.00  0.00     0.087 C 
ATOM      4  O   UNL     1       4.174   0.469   2.494  1.00  0.00    -0.300 OA
ENDBRANCH   1   2
BRANCH   1   5
ATOM      5  C   UNL     1       5.577   1.341  -0.216  1.00  0.00     0.043 C 
BRANCH   5   6
ATOM      6  C   UNL     1       6.713   0.646  -0.829  1.00  0.00    -0.044 A 
ATOM      7  C   UNL     1       7.971   1.209  -0.802  1.00  0.00     0.008 A 
ATOM      8  C   UNL     1       6.571  -0.583  -1.449  1.00  0.00     0.054 A 
ATOM      9  C   UNL     1       9.075   0.582  -1.373  1.00  0.00     0.051 A 
ATOM     10  C   UNL     1       7.657  -1.235  -2.029  1.00  0.00     0.166 A 
ATOM     11  C   UNL     1       8.903  -0.645  -1.986  1.00  0.00     0.165 A 
ATOM     12  O   UNL     1       7.815  -2.444  -2.704  1.00  0.00    -0.454 OA
ATOM     13  O   UNL     1       9.794  -1.493  -2.628  1.00  0.00    -0.454 OA
ATOM     14  C   UNL     1       9.074  -2.506  -3.324  1.00  0.00     0.468 C 
ENDBRANCH   5   6
ENDBRANCH   1   5
TORSDOF 3
ENDMDL
MODEL 3
REMARK VINA RESULT:      -7.1      1.086      1.353
REMARK SMILES CC(=O)CCc1ccc2c(c1)OCO2
REMARK SMILES IDX 4 1 2 2 1 3 3 4 5 5 6 6 7 7 11 8 8 9 10 10 9 11 12 12 14 13
REMARK SMILES IDX 13 14
REMARK H PARENT
REMARK Flexibility Score: inf
ROOT
ATOM      1  C   UNL     1       5.644   0.781   0.040  1.00  0.00     0.080 C 
ENDROOT
BRANCH   1   2
ATOM      2  C   UNL     1       5.858   1.002   1.484  1.00  0.00     0.130 C 
ATOM      3  C   UNL     1       7.094   1.673   1.935  1.00  0.00     0.087 C 
ATOM      4  O   UNL     1       5.019   0.630   2.266  1.00  0.00    -0.300 OA
ENDBRANCH   1   2
BRANCH   1   5
ATOM      5  C   UNL     1       6.928   0.973  -0.741  1.00  0.00     0.043 C 
BRANCH   5   6
ATOM      6  C   UNL     1       7.471  -0.320  -1.166  1.00  0.00    -0.044 A 
ATOM      7  C   UNL     1       7.699  -0.575  -2.502  1.00  0.00     0.008 A 
ATOM      8  C   UNL     1       7.771  -1.322  -0.259  1.00  0.00     0.054 A 
ATOM      9  C   UNL     1       8.212  -1.790  -2.947  1.00  0.00     0.051 A 
ATOM     10  C   UNL     1       8.286  -2.547  -0.674  1.00  0.00     0.166 A 
ATOM     11  C   UNL     1       8.503  -2.771  -2.018  1.00  0.00     0.165 A 
ATOM     12  O   UNL     1       8.674  -3.712  -0.012  1.00  0.00    -0.454 OA
ATOM     13  O   UNL     1       9.013  -4.054  -2.155  1.00  0.00    -0.454 OA
ATOM     14  C   UNL     1       8.873  -4.760  -0.925  1.00  0.00     0.468 C 
ENDBRANCH   5   6
ENDBRANCH   1   5
TORSDOF 3
ENDMDL
MODEL 4
REMARK VINA RESULT:      -6.7      1.148      1.232
REMARK SMILES CC(=O)CCc1ccc2c(c1)OCO2
REMARK SMILES IDX 4 1 2 2 1 3 3 4 5 5 6 6 7 7 11 8 8 9 10 10 9 11 12 12 14 13
REMARK SMILES IDX 13 14
REMARK H PARENT
REMARK Flexibility Score: inf
ROOT
ATOM      1  C   UNL     1       6.825   1.690   0.147  1.00  0.00     0.080 C 
ENDROOT
BRANCH   1   2
ATOM      2  C   UNL     1       6.694   1.066   1.479  1.00  0.00     0.130 C 
ATOM      3  C   UNL     1       5.372   0.577   1.919  1.00  0.00     0.087 C 
ATOM      4  O   UNL     1       7.671   0.969   2.180  1.00  0.00    -0.300 OA
ENDBRANCH   1   2
BRANCH   1   5
ATOM      5  C   UNL     1       6.094   0.888  -0.909  1.00  0.00     0.043 C 
BRANCH   5   6
ATOM      6  C   UNL     1       6.934  -0.211  -1.395  1.00  0.00    -0.044 A 
ATOM      7  C   UNL     1       7.448  -0.181  -2.674  1.00  0.00     0.008 A 
ATOM      8  C   UNL     1       7.239  -1.304  -0.603  1.00  0.00     0.054 A 
ATOM      9  C   UNL     1       8.249  -1.204  -3.174  1.00  0.00     0.051 A 
ATOM     10  C   UNL     1       8.038  -2.343  -1.075  1.00  0.00     0.166 A 
ATOM     11  C   UNL     1       8.537  -2.283  -2.360  1.00  0.00     0.165 A 
ATOM     12  O   UNL     1       8.503  -3.537  -0.526  1.00  0.00    -0.454 OA
ATOM     13  O   UNL     1       9.290  -3.429  -2.573  1.00  0.00    -0.454 OA
ATOM     14  C   UNL     1       9.057  -4.360  -1.520  1.00  0.00     0.468 C 
ENDBRANCH   5   6
ENDBRANCH   1   5
TORSDOF 3
ENDMDL
MODEL 5
REMARK VINA RESULT:      -6.7      1.343      1.954
REMARK SMILES CC(=O)CCc1ccc2c(c1)OCO2
REMARK SMILES IDX 4 1 2 2 1 3 3 4 5 5 6 6 7 7 11 8 8 9 10 10 9 11 12 12 14 13
REMARK SMILES IDX 13 14
REMARK H PARENT
REMARK Flexibility Score: inf
ROOT
ATOM      1  C   UNL     1       6.153  -0.349   2.148  1.00  0.00     0.080 C 
ENDROOT
BRANCH   1   2
ATOM      2  C   UNL     1       5.115   0.636   1.785  1.00  0.00     0.130 C 
ATOM      3  C   UNL     1       5.270   1.424   0.546  1.00  0.00     0.087 C 
ATOM      4  O   UNL     1       4.160   0.777   2.509  1.00  0.00    -0.300 OA
ENDBRANCH   1   2
BRANCH   1   5
ATOM      5  C   UNL     1       7.478  -0.017   1.493  1.00  0.00     0.043 C 
BRANCH   5   6
ATOM      6  C   UNL     1       7.826  -1.031   0.493  1.00  0.00    -0.044 A 
ATOM      7  C   UNL     1       7.701  -0.754  -0.853  1.00  0.00     0.008 A 
ATOM      8  C   UNL     1       8.286  -2.286   0.852  1.00  0.00     0.054 A 
ATOM      9  C   UNL     1       8.020  -1.690  -1.833  1.00  0.00     0.051 A 
ATOM     10  C   UNL     1       8.613  -3.242  -0.107  1.00  0.00     0.166 A 
ATOM     11  C   UNL     1       8.477  -2.935  -1.444  1.00  0.00     0.165 A 
ATOM     12  O   UNL     1       9.088  -4.552  -0.049  1.00  0.00    -0.454 OA
ATOM     13  O   UNL     1       8.865  -4.048  -2.175  1.00  0.00    -0.454 OA
ATOM     14  C   UNL     1       8.996  -5.170  -1.306  1.00  0.00     0.468 C 
ENDBRANCH   5   6
ENDBRANCH   1   5
TORSDOF 3
ENDMDL
