@<TRIPOS>MOLECULE
/home/cewinharhar/GITHUB/reincatalyze/data/processed/docking_pred/2023-May-31-1603_sub9_nm5_bs15_s42_ex16_mel10_mts1000_k50_ec05_g099_lra3e-4_lrc9e-3/b3ccd1df948aefc26948fdc9bbc960af2f6fd47d_ligand_9.pdbqt
 14 15 0 0 0
SMALL
GASTEIGER

@<TRIPOS>ATOM
      1  C          5.6440    0.7810    0.0400 C.3     1  UNL1        0.0800
      2  C          5.8580    1.0020    1.4840 C.2     1  UNL1        0.1300
      3  C          7.0940    1.6730    1.9350 C.3     1  UNL1        0.0870
      4  O          5.0190    0.6300    2.2660 O.2     1  UNL1       -0.3000
      5  C          6.9280    0.9730   -0.7410 C.3     1  UNL1        0.0430
      6  C          7.4710   -0.3200   -1.1660 C.2     1  UNL1       -0.0440
      7  C          7.6990   -0.5750   -2.5020 C.2     1  UNL1        0.0080
      8  C          7.7710   -1.3220   -0.2590 C.2     1  UNL1        0.0540
      9  C          8.2120   -1.7900   -2.9470 C.2     1  UNL1        0.0510
     10  C          8.2860   -2.5470   -0.6740 C.2     1  UNL1        0.1660
     11  C          8.5030   -2.7710   -2.0180 C.2     1  UNL1        0.1650
     12  O          8.6740   -3.7120   -0.0120 O.2     1  UNL1       -0.4540
     13  O          9.0130   -4.0540   -2.1550 O.2     1  UNL1       -0.4540
     14  C          8.8730   -4.7600   -0.9250 C.3     1  UNL1        0.4680
@<TRIPOS>BOND
     1     9     7    1
     2     9    11    2
     3     7     6    2
     4    13    11    1
     5    13    14    1
     6    11    10    1
     7     6     5    1
     8     6     8    1
     9    14    12    1
    10     5     1    1
    11    10     8    2
    12    10    12    1
    13     1     2    1
    14     2     3    1
    15     2     4    2
