@<TRIPOS>MOLECULE
/home/cewinharhar/GITHUB/reincatalyze/data/processed/docking_pred/2023-May-31-1603_sub9_nm5_bs15_s42_ex16_mel10_mts1000_k50_ec05_g099_lra3e-4_lrc9e-3/b3ccd1df948aefc26948fdc9bbc960af2f6fd47d_ligand_9.pdbqt
 14 15 0 0 0
SMALL
GASTEIGER

@<TRIPOS>ATOM
      1  C          6.8250    1.6900    0.1470 C.3     1  UNL1        0.0800
      2  C          6.6940    1.0660    1.4790 C.2     1  UNL1        0.1300
      3  C          5.3720    0.5770    1.9190 C.3     1  UNL1        0.0870
      4  O          7.6710    0.9690    2.1800 O.2     1  UNL1       -0.3000
      5  C          6.0940    0.8880   -0.9090 C.3     1  UNL1        0.0430
      6  C          6.9340   -0.2110   -1.3950 C.2     1  UNL1       -0.0440
      7  C          7.4480   -0.1810   -2.6740 C.2     1  UNL1        0.0080
      8  C          7.2390   -1.3040   -0.6030 C.2     1  UNL1        0.0540
      9  C          8.2490   -1.2040   -3.1740 C.2     1  UNL1        0.0510
     10  C          8.0380   -2.3430   -1.0750 C.2     1  UNL1        0.1660
     11  C          8.5370   -2.2830   -2.3600 C.2     1  UNL1        0.1650
     12  O          8.5030   -3.5370   -0.5260 O.2     1  UNL1       -0.4540
     13  O          9.2900   -3.4290   -2.5730 O.2     1  UNL1       -0.4540
     14  C          9.0570   -4.3600   -1.5200 C.3     1  UNL1        0.4680
@<TRIPOS>BOND
     1     9     7    1
     2     9    11    2
     3     7     6    2
     4    13    11    1
     5    13    14    1
     6    11    10    1
     7    14    12    1
     8     6     5    1
     9     6     8    1
    10    10     8    2
    11    10    12    1
    12     5     1    1
    13     1     2    1
    14     2     3    1
    15     2     4    2
