@<TRIPOS>MOLECULE
/home/cewinharhar/GITHUB/reincatalyze/data/processed/docking_pred/2023-May-31-1603_sub9_nm5_bs15_s42_ex16_mel10_mts1000_k50_ec05_g099_lra3e-4_lrc9e-3/b3ccd1df948aefc26948fdc9bbc960af2f6fd47d_ligand_9.pdbqt
 14 15 0 0 0
SMALL
GASTEIGER

@<TRIPOS>ATOM
      1  C          6.3180    1.1880    1.0010 C.3     1  UNL1        0.0800
      2  C          5.5870    0.3690    1.9890 C.2     1  UNL1        0.1300
      3  C          6.2220   -0.8530    2.5230 C.3     1  UNL1        0.0870
      4  O          4.4870    0.7160    2.3400 O.2     1  UNL1       -0.3000
      5  C          5.8190    0.9260   -0.4050 C.3     1  UNL1        0.0430
      6  C          6.7440    0.0460   -1.1250 C.2     1  UNL1       -0.0440
      7  C          7.3170    0.4570   -2.3100 C.2     1  UNL1        0.0080
      8  C          7.0720   -1.2130   -0.6530 C.2     1  UNL1        0.0540
      9  C          8.2000   -0.3490   -3.0240 C.2     1  UNL1        0.0510
     10  C          7.9520   -2.0420   -1.3460 C.2     1  UNL1        0.1660
     11  C          8.5090   -1.6010   -2.5280 C.2     1  UNL1        0.1650
     12  O          8.4580   -3.3230   -1.1240 O.2     1  UNL1       -0.4540
     13  O          9.3370   -2.6070   -3.0060 O.2     1  UNL1       -0.4540
     14  C          9.1060   -3.8070   -2.2720 C.3     1  UNL1        0.4680
@<TRIPOS>BOND
     1     9    11    2
     2     9     7    1
     3    13    11    1
     4    13    14    1
     5    11    10    1
     6     7     6    2
     7    14    12    1
     8    10    12    1
     9    10     8    2
    10     6     8    1
    11     6     5    1
    12     5     1    1
    13     1     2    1
    14     2     4    2
    15     2     3    1
