@<TRIPOS>MOLECULE
/home/cewinharhar/GITHUB/reincatalyze/data/processed/docking_pred/2023-May-31-1603_sub9_nm5_bs15_s42_ex16_mel10_mts1000_k50_ec05_g099_lra3e-4_lrc9e-3/b3efa5aa79561967f2a1346927635c3d7bfec8a2_ligand_9.pdbqt
 14 15 0 0 0
SMALL
GASTEIGER

@<TRIPOS>ATOM
      1  C          5.8150    2.0910    1.2640 C.3     1  UNL1        0.0800
      2  C          5.2100    1.0510    2.1220 C.2     1  UNL1        0.1300
      3  C          3.7470    1.0450    2.3230 C.3     1  UNL1        0.0870
      4  O          5.9240    0.2290    2.6400 O.2     1  UNL1       -0.3000
      5  C          5.5270    1.8300   -0.2000 C.3     1  UNL1        0.0430
      6  C          6.5920    1.0210   -0.7990 C.2     1  UNL1       -0.0440
      7  C          7.9160    1.3650   -0.6120 C.2     1  UNL1        0.0080
      8  C          6.3200   -0.1000   -1.5630 C.2     1  UNL1        0.0540
      9  C          8.9570    0.6240   -1.1650 C.2     1  UNL1        0.0510
     10  C          7.3400   -0.8610   -2.1270 C.2     1  UNL1        0.1660
     11  C          8.6530   -0.4910   -1.9230 C.2     1  UNL1        0.1650
     12  O          7.3710   -2.0080   -2.9200 O.2     1  UNL1       -0.4540
     13  O          9.4580   -1.4070   -2.5860 O.2     1  UNL1       -0.4540
     14  C          8.6580   -2.2140   -3.4450 C.3     1  UNL1        0.4680
@<TRIPOS>BOND
     1    14    12    1
     2    14    13    1
     3    12    10    1
     4    13    11    1
     5    10    11    2
     6    10     8    1
     7    11     9    1
     8     8     6    2
     9     9     7    2
    10     6     7    1
    11     6     5    1
    12     5     1    1
    13     1     2    1
    14     2     3    1
    15     2     4    2
