@<TRIPOS>MOLECULE
/home/cewinharhar/GITHUB/reincatalyze/data/processed/docking_pred/2023-May-31-1603_sub9_nm5_bs15_s42_ex16_mel10_mts1000_k50_ec05_g099_lra3e-4_lrc9e-3/b58c38953477011b0b30fd8623da0ee842eab33b_ligand_9.pdbqt
 14 15 0 0 0
SMALL
GASTEIGER

@<TRIPOS>ATOM
      1  C          6.6680    0.1500    1.6520 C.3     1  UNL1        0.0800
      2  C          5.3970    0.8900    1.5250 C.2     1  UNL1        0.1300
      3  C          5.2080    1.8080    0.3850 C.3     1  UNL1        0.0870
      4  O          4.5380    0.7280    2.3570 O.2     1  UNL1       -0.3000
      5  C          6.5040   -1.2990    1.2410 C.3     1  UNL1        0.0430
      6  C          7.3420   -1.6030    0.0780 C.2     1  UNL1       -0.0440
      7  C          6.9580   -1.1960   -1.1830 C.2     1  UNL1        0.0080
      8  C          8.5330   -2.2990    0.1950 C.2     1  UNL1        0.0540
      9  C          7.7250   -1.4650   -2.3130 C.2     1  UNL1        0.0510
     10  C          9.3210   -2.5830   -0.9180 C.2     1  UNL1        0.1660
     11  C          8.9090   -2.1620   -2.1650 C.2     1  UNL1        0.1650
     12  O         10.5340   -3.2460   -1.1040 O.2     1  UNL1       -0.4540
     13  O          9.8650   -2.5700   -3.0850 O.2     1  UNL1       -0.4540
     14  C         10.7610   -3.4900   -2.4690 C.3     1  UNL1        0.4680
@<TRIPOS>BOND
     1    13    14    1
     2    13    11    1
     3    14    12    1
     4     9    11    2
     5     9     7    1
     6    11    10    1
     7     7     6    2
     8    12    10    1
     9    10     8    2
    10     6     8    1
    11     6     5    1
    12     3     2    1
    13     5     1    1
    14     2     1    1
    15     2     4    2
