@<TRIPOS>MOLECULE
/home/cewinharhar/GITHUB/reincatalyze/data/processed/docking_pred/2023-May-31-1603_sub9_nm5_bs15_s42_ex16_mel10_mts1000_k50_ec05_g099_lra3e-4_lrc9e-3/b58c38953477011b0b30fd8623da0ee842eab33b_ligand_9.pdbqt
 14 15 0 0 0
SMALL
GASTEIGER

@<TRIPOS>ATOM
      1  C          6.0990    1.4010    1.0220 C.3     1  UNL1        0.0800
      2  C          5.4040    0.4250    1.8850 C.2     1  UNL1        0.1300
      3  C          6.0620   -0.8600    2.1940 C.3     1  UNL1        0.0870
      4  O          4.3120    0.6980    2.3200 O.2     1  UNL1       -0.3000
      5  C          5.9250    1.0600   -0.4430 C.3     1  UNL1        0.0430
      6  C          7.0220    0.2040   -0.9050 C.2     1  UNL1       -0.0440
      7  C          6.8000   -0.7450   -1.8820 C.2     1  UNL1        0.0080
      8  C          8.3010    0.3090   -0.3900 C.2     1  UNL1        0.0540
      9  C          7.8130   -1.5790   -2.3480 C.2     1  UNL1        0.0510
     10  C          9.3350   -0.5100   -0.8360 C.2     1  UNL1        0.1660
     11  C          9.0820   -1.4490   -1.8130 C.2     1  UNL1        0.1650
     12  O         10.6870   -0.6310   -0.5130 O.2     1  UNL1       -0.4540
     13  O         10.2670   -2.1220   -2.0700 O.2     1  UNL1       -0.4540
     14  C         11.2270   -1.8030   -1.0670 C.3     1  UNL1        0.4680
@<TRIPOS>BOND
     1     9     7    1
     2     9    11    2
     3    13    11    1
     4    13    14    1
     5     7     6    2
     6    11    10    1
     7    14    12    1
     8     6     5    1
     9     6     8    1
    10    10    12    1
    11    10     8    2
    12     5     1    1
    13     1     2    1
    14     2     3    1
    15     2     4    2
