MODEL 1
REMARK VINA RESULT:      -8.2      0.000      0.000
REMARK SMILES CC(=O)CCc1ccc2c(c1)OCO2
REMARK SMILES IDX 4 1 2 2 1 3 3 4 5 5 6 6 7 7 11 8 8 9 10 10 9 11 12 12 14 13
REMARK SMILES IDX 13 14
REMARK H PARENT
REMARK Flexibility Score: inf
ROOT
ATOM      1  C   UNL     1       5.847   1.582   0.963  1.00  0.00     0.080 C 
ENDROOT
BRANCH   1   2
ATOM      2  C   UNL     1       5.317   0.563   1.892  1.00  0.00     0.130 C 
ATOM      3  C   UNL     1       6.150  -0.610   2.227  1.00  0.00     0.087 C 
ATOM      4  O   UNL     1       4.215   0.711   2.359  1.00  0.00    -0.300 OA
ENDBRANCH   1   2
BRANCH   1   5
ATOM      5  C   UNL     1       5.738   1.123  -0.476  1.00  0.00     0.043 C 
BRANCH   5   6
ATOM      6  C   UNL     1       6.956   0.417  -0.885  1.00  0.00    -0.044 A 
ATOM      7  C   UNL     1       8.192   1.004  -0.711  1.00  0.00     0.008 A 
ATOM      8  C   UNL     1       6.916  -0.843  -1.455  1.00  0.00     0.054 A 
ATOM      9  C   UNL     1       9.372   0.368  -1.088  1.00  0.00     0.051 A 
ATOM     10  C   UNL     1       8.080  -1.504  -1.841  1.00  0.00     0.166 A 
ATOM     11  C   UNL     1       9.301  -0.890  -1.654  1.00  0.00     0.165 A 
ATOM     12  O   UNL     1       8.345  -2.743  -2.423  1.00  0.00    -0.454 OA
ATOM     13  O   UNL     1      10.283  -1.754  -2.119  1.00  0.00    -0.454 OA
ATOM     14  C   UNL     1       9.679  -2.813  -2.856  1.00  0.00     0.468 C 
ENDBRANCH   5   6
ENDBRANCH   1   5
TORSDOF 3
ENDMDL
MODEL 2
REMARK VINA RESULT:      -7.8      1.048      1.811
REMARK SMILES CC(=O)CCc1ccc2c(c1)OCO2
REMARK SMILES IDX 4 1 2 2 1 3 3 4 5 5 6 6 7 7 11 8 8 9 10 10 9 11 12 12 14 13
REMARK SMILES IDX 13 14
REMARK H PARENT
REMARK Flexibility Score: inf
ROOT
ATOM      1  C   UNL     1       5.845   1.120  -0.257  1.00  0.00     0.080 C 
ENDROOT
BRANCH   1   2
ATOM      2  C   UNL     1       5.353   1.011   1.131  1.00  0.00     0.130 C 
ATOM      3  C   UNL     1       5.781  -0.134   1.960  1.00  0.00     0.087 C 
ATOM      4  O   UNL     1       4.610   1.860   1.560  1.00  0.00    -0.300 OA
ENDBRANCH   1   2
BRANCH   1   5
ATOM      5  C   UNL     1       7.351   1.277  -0.295  1.00  0.00     0.043 C 
BRANCH   5   6
ATOM      6  C   UNL     1       7.963   0.184  -1.057  1.00  0.00    -0.044 A 
ATOM      7  C   UNL     1       7.316  -0.348  -2.153  1.00  0.00     0.008 A 
ATOM      8  C   UNL     1       9.192  -0.350  -0.713  1.00  0.00     0.054 A 
ATOM      9  C   UNL     1       7.863  -1.386  -2.903  1.00  0.00     0.051 A 
ATOM     10  C   UNL     1       9.764  -1.388  -1.444  1.00  0.00     0.166 A 
ATOM     11  C   UNL     1       9.093  -1.898  -2.535  1.00  0.00     0.165 A 
ATOM     12  O   UNL     1      10.954  -2.108  -1.340  1.00  0.00    -0.454 OA
ATOM     13  O   UNL     1       9.873  -2.910  -3.075  1.00  0.00    -0.454 OA
ATOM     14  C   UNL     1      10.926  -3.238  -2.173  1.00  0.00     0.468 C 
ENDBRANCH   5   6
ENDBRANCH   1   5
TORSDOF 3
ENDMDL
MODEL 3
REMARK VINA RESULT:      -7.4      1.967      2.412
REMARK SMILES CC(=O)CCc1ccc2c(c1)OCO2
REMARK SMILES IDX 4 1 2 2 1 3 3 4 5 5 6 6 7 7 11 8 8 9 10 10 9 11 12 12 14 13
REMARK SMILES IDX 13 14
REMARK H PARENT
REMARK Flexibility Score: inf
ROOT
ATOM      1  C   UNL     1       6.008   0.330   1.822  1.00  0.00     0.080 C 
ENDROOT
BRANCH   1   2
ATOM      2  C   UNL     1       4.902   1.256   1.509  1.00  0.00     0.130 C 
ATOM      3  C   UNL     1       5.019   2.150   0.340  1.00  0.00     0.087 C 
ATOM      4  O   UNL     1       3.924   1.263   2.215  1.00  0.00    -0.300 OA
ENDBRANCH   1   2
BRANCH   1   5
ATOM      5  C   UNL     1       6.284  -0.608   0.665  1.00  0.00     0.043 C 
BRANCH   5   6
ATOM      6  C   UNL     1       7.694  -0.538   0.270  1.00  0.00    -0.044 A 
ATOM      7  C   UNL     1       8.121   0.423  -0.623  1.00  0.00     0.008 A 
ATOM      8  C   UNL     1       8.638  -1.419   0.768  1.00  0.00     0.054 A 
ATOM      9  C   UNL     1       9.450   0.522  -1.024  1.00  0.00     0.051 A 
ATOM     10  C   UNL     1       9.975  -1.344   0.386  1.00  0.00     0.166 A 
ATOM     11  C   UNL     1      10.371  -0.372  -0.509  1.00  0.00     0.165 A 
ATOM     12  O   UNL     1      11.120  -2.071   0.710  1.00  0.00    -0.454 OA
ATOM     13  O   UNL     1      11.735  -0.518  -0.717  1.00  0.00    -0.454 OA
ATOM     14  C   UNL     1      12.174  -1.755  -0.163  1.00  0.00     0.468 C 
ENDBRANCH   5   6
ENDBRANCH   1   5
TORSDOF 3
ENDMDL
MODEL 4
REMARK VINA RESULT:      -7.4      0.913      1.756
REMARK SMILES CC(=O)CCc1ccc2c(c1)OCO2
REMARK SMILES IDX 4 1 2 2 1 3 3 4 5 5 6 6 7 7 11 8 8 9 10 10 9 11 12 12 14 13
REMARK SMILES IDX 13 14
REMARK H PARENT
REMARK Flexibility Score: inf
ROOT
ATOM      1  C   UNL     1       6.099   1.401   1.022  1.00  0.00     0.080 C 
ENDROOT
BRANCH   1   2
ATOM      2  C   UNL     1       5.404   0.425   1.885  1.00  0.00     0.130 C 
ATOM      3  C   UNL     1       6.062  -0.860   2.194  1.00  0.00     0.087 C 
ATOM      4  O   UNL     1       4.312   0.698   2.320  1.00  0.00    -0.300 OA
ENDBRANCH   1   2
BRANCH   1   5
ATOM      5  C   UNL     1       5.925   1.060  -0.443  1.00  0.00     0.043 C 
BRANCH   5   6
ATOM      6  C   UNL     1       7.022   0.204  -0.905  1.00  0.00    -0.044 A 
ATOM      7  C   UNL     1       6.800  -0.745  -1.882  1.00  0.00     0.008 A 
ATOM      8  C   UNL     1       8.301   0.309  -0.390  1.00  0.00     0.054 A 
ATOM      9  C   UNL     1       7.813  -1.579  -2.348  1.00  0.00     0.051 A 
ATOM     10  C   UNL     1       9.335  -0.510  -0.836  1.00  0.00     0.166 A 
ATOM     11  C   UNL     1       9.082  -1.449  -1.813  1.00  0.00     0.165 A 
ATOM     12  O   UNL     1      10.687  -0.631  -0.513  1.00  0.00    -0.454 OA
ATOM     13  O   UNL     1      10.267  -2.122  -2.070  1.00  0.00    -0.454 OA
ATOM     14  C   UNL     1      11.227  -1.803  -1.067  1.00  0.00     0.468 C 
ENDBRANCH   5   6
ENDBRANCH   1   5
TORSDOF 3
ENDMDL
MODEL 5
REMARK VINA RESULT:      -7.4      1.447      2.168
REMARK SMILES CC(=O)CCc1ccc2c(c1)OCO2
REMARK SMILES IDX 4 1 2 2 1 3 3 4 5 5 6 6 7 7 11 8 8 9 10 10 9 11 12 12 14 13
REMARK SMILES IDX 13 14
REMARK H PARENT
REMARK Flexibility Score: inf
ROOT
ATOM      1  C   UNL     1       6.668   0.150   1.652  1.00  0.00     0.080 C 
ENDROOT
BRANCH   1   2
ATOM      2  C   UNL     1       5.397   0.890   1.525  1.00  0.00     0.130 C 
ATOM      3  C   UNL     1       5.208   1.808   0.385  1.00  0.00     0.087 C 
ATOM      4  O   UNL     1       4.538   0.728   2.357  1.00  0.00    -0.300 OA
ENDBRANCH   1   2
BRANCH   1   5
ATOM      5  C   UNL     1       6.504  -1.299   1.241  1.00  0.00     0.043 C 
BRANCH   5   6
ATOM      6  C   UNL     1       7.342  -1.603   0.078  1.00  0.00    -0.044 A 
ATOM      7  C   UNL     1       6.958  -1.196  -1.183  1.00  0.00     0.008 A 
ATOM      8  C   UNL     1       8.533  -2.299   0.195  1.00  0.00     0.054 A 
ATOM      9  C   UNL     1       7.725  -1.465  -2.313  1.00  0.00     0.051 A 
ATOM     10  C   UNL     1       9.321  -2.583  -0.918  1.00  0.00     0.166 A 
ATOM     11  C   UNL     1       8.909  -2.162  -2.165  1.00  0.00     0.165 A 
ATOM     12  O   UNL     1      10.534  -3.246  -1.104  1.00  0.00    -0.454 OA
ATOM     13  O   UNL     1       9.865  -2.570  -3.085  1.00  0.00    -0.454 OA
ATOM     14  C   UNL     1      10.761  -3.490  -2.469  1.00  0.00     0.468 C 
ENDBRANCH   5   6
ENDBRANCH   1   5
TORSDOF 3
ENDMDL
