@<TRIPOS>MOLECULE
/home/cewinharhar/GITHUB/reincatalyze/data/processed/docking_pred/2023-May-31-1603_sub9_nm5_bs15_s42_ex16_mel10_mts1000_k50_ec05_g099_lra3e-4_lrc9e-3/b58c38953477011b0b30fd8623da0ee842eab33b_ligand_9.pdbqt
 14 15 0 0 0
SMALL
GASTEIGER

@<TRIPOS>ATOM
      1  C          6.0080    0.3300    1.8220 C.3     1  UNL1        0.0800
      2  C          4.9020    1.2560    1.5090 C.2     1  UNL1        0.1300
      3  C          5.0190    2.1500    0.3400 C.3     1  UNL1        0.0870
      4  O          3.9240    1.2630    2.2150 O.2     1  UNL1       -0.3000
      5  C          6.2840   -0.6080    0.6650 C.3     1  UNL1        0.0430
      6  C          7.6940   -0.5380    0.2700 C.2     1  UNL1       -0.0440
      7  C          8.1210    0.4230   -0.6230 C.2     1  UNL1        0.0080
      8  C          8.6380   -1.4190    0.7680 C.2     1  UNL1        0.0540
      9  C          9.4500    0.5220   -1.0240 C.2     1  UNL1        0.0510
     10  C          9.9750   -1.3440    0.3860 C.2     1  UNL1        0.1660
     11  C         10.3710   -0.3720   -0.5090 C.2     1  UNL1        0.1650
     12  O         11.1200   -2.0710    0.7100 O.2     1  UNL1       -0.4540
     13  O         11.7350   -0.5180   -0.7170 O.2     1  UNL1       -0.4540
     14  C         12.1740   -1.7550   -0.1630 C.3     1  UNL1        0.4680
@<TRIPOS>BOND
     1     9     7    1
     2     9    11    2
     3    13    11    1
     4    13    14    1
     5     7     6    2
     6    11    10    1
     7    14    12    1
     8     6     5    1
     9     6     8    1
    10     3     2    1
    11    10    12    1
    12    10     8    2
    13     5     1    1
    14     2     1    1
    15     2     4    2
