@<TRIPOS>MOLECULE
/home/cewinharhar/GITHUB/reincatalyze/data/processed/docking_pred/2023-May-31-1603_sub9_nm5_bs15_s42_ex16_mel10_mts1000_k50_ec05_g099_lra3e-4_lrc9e-3/b58c38953477011b0b30fd8623da0ee842eab33b_ligand_9.pdbqt
 14 15 0 0 0
SMALL
GASTEIGER

@<TRIPOS>ATOM
      1  C          5.8450    1.1200   -0.2570 C.3     1  UNL1        0.0800
      2  C          5.3530    1.0110    1.1310 C.2     1  UNL1        0.1300
      3  C          5.7810   -0.1340    1.9600 C.3     1  UNL1        0.0870
      4  O          4.6100    1.8600    1.5600 O.2     1  UNL1       -0.3000
      5  C          7.3510    1.2770   -0.2950 C.3     1  UNL1        0.0430
      6  C          7.9630    0.1840   -1.0570 C.2     1  UNL1       -0.0440
      7  C          7.3160   -0.3480   -2.1530 C.2     1  UNL1        0.0080
      8  C          9.1920   -0.3500   -0.7130 C.2     1  UNL1        0.0540
      9  C          7.8630   -1.3860   -2.9030 C.2     1  UNL1        0.0510
     10  C          9.7640   -1.3880   -1.4440 C.2     1  UNL1        0.1660
     11  C          9.0930   -1.8980   -2.5350 C.2     1  UNL1        0.1650
     12  O         10.9540   -2.1080   -1.3400 O.2     1  UNL1       -0.4540
     13  O          9.8730   -2.9100   -3.0750 O.2     1  UNL1       -0.4540
     14  C         10.9260   -3.2380   -2.1730 C.3     1  UNL1        0.4680
@<TRIPOS>BOND
     1    13    11    1
     2    13    14    1
     3     9    11    2
     4     9     7    1
     5    11    10    1
     6    14    12    1
     7     7     6    2
     8    10    12    1
     9    10     8    2
    10     6     8    1
    11     6     5    1
    12     5     1    1
    13     1     2    1
    14     2     4    2
    15     2     3    1
