@<TRIPOS>MOLECULE
/home/cewinharhar/GITHUB/reincatalyze/data/processed/docking_pred/2023-May-31-1603_sub9_nm5_bs15_s42_ex16_mel10_mts1000_k50_ec05_g099_lra3e-4_lrc9e-3/b590df4aad401e291154b1741be08749940afe84_ligand_9.pdbqt
 14 15 0 0 0
SMALL
GASTEIGER

@<TRIPOS>ATOM
      1  C          5.5830    1.8740    1.3050 C.3     1  UNL1        0.0800
      2  C          5.1240    0.6820    2.0460 C.2     1  UNL1        0.1300
      3  C          6.0500   -0.4550    2.2270 C.3     1  UNL1        0.0870
      4  O          4.0020    0.6600    2.4880 O.2     1  UNL1       -0.3000
      5  C          5.4000    1.6960   -0.1880 C.3     1  UNL1        0.0430
      6  C          6.5350    0.9670   -0.7630 C.2     1  UNL1       -0.0440
      7  C          7.8230    1.4220   -0.5720 C.2     1  UNL1        0.0080
      8  C          6.3630   -0.1860   -1.5080 C.2     1  UNL1        0.0540
      9  C          8.9280    0.7600   -1.1010 C.2     1  UNL1        0.0510
     10  C          7.4480   -0.8700   -2.0500 C.2     1  UNL1        0.1660
     11  C          8.7240   -0.3900   -1.8410 C.2     1  UNL1        0.1650
     12  O          7.5820   -2.0240   -2.8210 O.2     1  UNL1       -0.4540
     13  O          9.6080   -1.2470   -2.4810 O.2     1  UNL1       -0.4540
     14  C          8.8860   -2.1330   -3.3310 C.3     1  UNL1        0.4680
@<TRIPOS>BOND
     1    14    12    1
     2    14    13    1
     3    12    10    1
     4    13    11    1
     5    10    11    2
     6    10     8    1
     7    11     9    1
     8     8     6    2
     9     9     7    2
    10     6     7    1
    11     6     5    1
    12     5     1    1
    13     1     2    1
    14     2     3    1
    15     2     4    2
