@<TRIPOS>MOLECULE
/home/cewinharhar/GITHUB/reincatalyze/data/processed/docking_pred/2023-May-31-1603_sub9_nm5_bs15_s42_ex16_mel10_mts1000_k50_ec05_g099_lra3e-4_lrc9e-3/b590df4aad401e291154b1741be08749940afe84_ligand_9.pdbqt
 14 15 0 0 0
SMALL
GASTEIGER

@<TRIPOS>ATOM
      1  C          6.2840    1.2460    0.9990 C.3     1  UNL1        0.0800
      2  C          5.5860    0.3940    1.9830 C.2     1  UNL1        0.1300
      3  C          6.2750   -0.7950    2.5240 C.3     1  UNL1        0.0870
      4  O          4.4670    0.6880    2.3250 O.2     1  UNL1       -0.3000
      5  C          5.7860    0.9810   -0.4070 C.3     1  UNL1        0.0430
      6  C          6.7240    0.1180   -1.1310 C.2     1  UNL1       -0.0440
      7  C          7.3580    0.5780   -2.2670 C.2     1  UNL1        0.0080
      8  C          7.0060   -1.1710   -0.7140 C.2     1  UNL1        0.0540
      9  C          8.2550   -0.2090   -2.9840 C.2     1  UNL1        0.0510
     10  C          7.8980   -1.9820   -1.4110 C.2     1  UNL1        0.1660
     11  C          8.5160   -1.4930   -2.5420 C.2     1  UNL1        0.1650
     12  O          8.3670   -3.2840   -1.2350 O.2     1  UNL1       -0.4540
     13  O          9.3440   -2.4910   -3.0370 O.2     1  UNL1       -0.4540
     14  C          9.0560   -3.7220   -2.3780 C.3     1  UNL1        0.4680
@<TRIPOS>BOND
     1    13    11    1
     2    13    14    1
     3     9    11    2
     4     9     7    1
     5    11    10    1
     6    14    12    1
     7     7     6    2
     8    10    12    1
     9    10     8    2
    10     6     8    1
    11     6     5    1
    12     5     1    1
    13     1     2    1
    14     2     4    2
    15     2     3    1
