@<TRIPOS>MOLECULE
/home/cewinharhar/GITHUB/reincatalyze/data/processed/docking_pred/2023-May-31-1603_sub9_nm5_bs15_s42_ex16_mel10_mts1000_k50_ec05_g099_lra3e-4_lrc9e-3/b590df4aad401e291154b1741be08749940afe84_ligand_9.pdbqt
 14 15 0 0 0
SMALL
GASTEIGER

@<TRIPOS>ATOM
      1  C          6.6560    0.4650    0.9640 C.3     1  UNL1        0.0800
      2  C          5.3530    1.0280    1.3690 C.2     1  UNL1        0.1300
      3  C          4.7810    2.1500    0.5970 C.3     1  UNL1        0.0870
      4  O          4.7810    0.5600    2.3230 O.2     1  UNL1       -0.3000
      5  C          6.8580    0.5680   -0.5330 C.3     1  UNL1        0.0430
      6  C          7.5000   -0.6430   -1.0520 C.2     1  UNL1       -0.0440
      7  C          7.8770   -0.7190   -2.3760 C.2     1  UNL1        0.0080
      8  C          7.7480   -1.7420   -0.2470 C.2     1  UNL1        0.0540
      9  C          8.4880   -1.8520   -2.9080 C.2     1  UNL1        0.0510
     10  C          8.3590   -2.8880   -0.7510 C.2     1  UNL1        0.1660
     11  C          8.7240   -2.9330   -2.0800 C.2     1  UNL1        0.1650
     12  O          8.7270   -4.1150   -0.1980 O.2     1  UNL1       -0.4540
     13  O          9.3030   -4.1720   -2.3170 O.2     1  UNL1       -0.4540
     14  C          9.0670   -5.0320   -1.2060 C.3     1  UNL1        0.4680
@<TRIPOS>BOND
     1     9     7    1
     2     9    11    2
     3     7     6    2
     4    13    11    1
     5    13    14    1
     6    11    10    1
     7    14    12    1
     8     6     5    1
     9     6     8    1
    10    10     8    2
    11    10    12    1
    12     5     1    1
    13     3     2    1
    14     1     2    1
    15     2     4    2
