@<TRIPOS>MOLECULE
/home/cewinharhar/GITHUB/reincatalyze/data/processed/docking_pred/2023-May-31-1603_sub9_nm5_bs15_s42_ex16_mel10_mts1000_k50_ec05_g099_lra3e-4_lrc9e-3/b590df4aad401e291154b1741be08749940afe84_ligand_9.pdbqt
 14 15 0 0 0
SMALL
GASTEIGER

@<TRIPOS>ATOM
      1  C          5.6860    1.1030   -0.2590 C.3     1  UNL1        0.0800
      2  C          5.2160    1.1450    1.1400 C.2     1  UNL1        0.1300
      3  C          5.4060   -0.0400    2.0000 C.3     1  UNL1        0.0870
      4  O          4.6860    2.1470    1.5520 O.2     1  UNL1       -0.3000
      5  C          7.1980    1.0330   -0.3280 C.3     1  UNL1        0.0430
      6  C          7.6290   -0.2690   -0.8460 C.2     1  UNL1       -0.0440
      7  C          7.6900   -0.4930   -2.2050 C.2     1  UNL1        0.0080
      8  C          7.9860   -1.3090   -0.0050 C.2     1  UNL1        0.0540
      9  C          8.0940   -1.7150   -2.7370 C.2     1  UNL1        0.0510
     10  C          8.3950   -2.5420   -0.5080 C.2     1  UNL1        0.1660
     11  C          8.4450   -2.7350   -1.8730 C.2     1  UNL1        0.1650
     12  O          8.8030   -3.7410    0.0760 O.2     1  UNL1       -0.4540
     13  O          8.8770   -4.0330   -2.1000 O.2     1  UNL1       -0.4540
     14  C          8.8480   -4.7690   -0.8810 C.3     1  UNL1        0.4680
@<TRIPOS>BOND
     1     9     7    1
     2     9    11    2
     3     7     6    2
     4    13    11    1
     5    13    14    1
     6    11    10    1
     7    14    12    1
     8     6     5    1
     9     6     8    1
    10    10     8    2
    11    10    12    1
    12     5     1    1
    13     1     2    1
    14     2     4    2
    15     2     3    1
