@<TRIPOS>MOLECULE
/home/cewinharhar/GITHUB/reincatalyze/data/processed/docking_pred/2023-May-31-1603_sub9_nm5_bs15_s42_ex16_mel10_mts1000_k50_ec05_g099_lra3e-4_lrc9e-3/b658f69152bbaa0d4df6d0fc1d77222c9f34aa3c_ligand_9.pdbqt
 14 15 0 0 0
SMALL
GASTEIGER

@<TRIPOS>ATOM
      1  C          8.2820    0.2120   -2.6350 C.3     1  UNL1        0.0800
      2  C          7.9740   -1.2280   -2.7420 C.2     1  UNL1        0.1300
      3  C          9.0660   -2.1790   -3.0330 C.3     1  UNL1        0.0870
      4  O          6.8360   -1.5990   -2.5900 O.2     1  UNL1       -0.3000
      5  C          8.8480    0.5520   -1.2720 C.3     1  UNL1        0.0430
      6  C          7.8080    0.4550   -0.2440 C.2     1  UNL1       -0.0440
      7  C          7.8530   -0.5500    0.7000 C.2     1  UNL1        0.0080
      8  C          6.7560    1.3520   -0.1790 C.2     1  UNL1        0.0540
      9  C          6.8850   -0.6780    1.6920 C.2     1  UNL1        0.0510
     10  C          5.7730    1.2500    0.8020 C.2     1  UNL1        0.1660
     11  C          5.8460    0.2330    1.7310 C.2     1  UNL1        0.1650
     12  O          4.6280    1.9840    1.1090 O.2     1  UNL1       -0.4540
     13  O          4.7580    0.3600    2.5820 O.2     1  UNL1       -0.4540
     14  C          3.8320    1.2970    2.0400 C.3     1  UNL1        0.4680
@<TRIPOS>BOND
     1     3     2    1
     2     2     1    1
     3     2     4    2
     4     1     5    1
     5     5     6    1
     6     6     8    2
     7     6     7    1
     8     8    10    1
     9     7     9    2
    10    10    12    1
    11    10    11    2
    12    12    14    1
    13     9    11    1
    14    11    13    1
    15    14    13    1
