MODEL 1
REMARK VINA RESULT:      -7.5      0.000      0.000
REMARK SMILES CC(=O)CCc1ccc2c(c1)OCO2
REMARK SMILES IDX 4 1 2 2 1 3 3 4 5 5 6 6 7 7 11 8 8 9 10 10 9 11 12 12 14 13
REMARK SMILES IDX 13 14
REMARK H PARENT
REMARK Flexibility Score: inf
ROOT
ATOM      1  C   UNL     1       5.560   1.881   1.319  1.00  0.00     0.080 C 
ENDROOT
BRANCH   1   2
ATOM      2  C   UNL     1       5.096   0.680   2.043  1.00  0.00     0.130 C 
ATOM      3  C   UNL     1       6.021  -0.458   2.219  1.00  0.00     0.087 C 
ATOM      4  O   UNL     1       3.970   0.653   2.475  1.00  0.00    -0.300 OA
ENDBRANCH   1   2
BRANCH   1   5
ATOM      5  C   UNL     1       5.391   1.719  -0.177  1.00  0.00     0.043 C 
BRANCH   5   6
ATOM      6  C   UNL     1       6.526   0.988  -0.748  1.00  0.00    -0.044 A 
ATOM      7  C   UNL     1       7.815   1.434  -0.545  1.00  0.00     0.008 A 
ATOM      8  C   UNL     1       6.353  -0.160  -1.501  1.00  0.00     0.054 A 
ATOM      9  C   UNL     1       8.920   0.769  -1.070  1.00  0.00     0.051 A 
ATOM     10  C   UNL     1       7.439  -0.847  -2.038  1.00  0.00     0.166 A 
ATOM     11  C   UNL     1       8.716  -0.375  -1.818  1.00  0.00     0.165 A 
ATOM     12  O   UNL     1       7.572  -1.998  -2.815  1.00  0.00    -0.454 OA
ATOM     13  O   UNL     1       9.600  -1.234  -2.456  1.00  0.00    -0.454 OA
ATOM     14  C   UNL     1       8.879  -2.111  -3.317  1.00  0.00     0.468 C 
ENDBRANCH   5   6
ENDBRANCH   1   5
TORSDOF 3
ENDMDL
MODEL 2
REMARK VINA RESULT:      -7.3      1.947      2.378
REMARK SMILES CC(=O)CCc1ccc2c(c1)OCO2
REMARK SMILES IDX 4 1 2 2 1 3 3 4 5 5 6 6 7 7 11 8 8 9 10 10 9 11 12 12 14 13
REMARK SMILES IDX 13 14
REMARK H PARENT
REMARK Flexibility Score: inf
ROOT
ATOM      1  C   UNL     1       5.695   1.210  -0.275  1.00  0.00     0.080 C 
ENDROOT
BRANCH   1   2
ATOM      2  C   UNL     1       5.106   1.200   1.079  1.00  0.00     0.130 C 
ATOM      3  C   UNL     1       5.323   0.027   1.951  1.00  0.00     0.087 C 
ATOM      4  O   UNL     1       4.460   2.149   1.446  1.00  0.00    -0.300 OA
ENDBRANCH   1   2
BRANCH   1   5
ATOM      5  C   UNL     1       7.204   1.088  -0.218  1.00  0.00     0.043 C 
BRANCH   5   6
ATOM      6  C   UNL     1       7.637  -0.197  -0.775  1.00  0.00    -0.044 A 
ATOM      7  C   UNL     1       7.741  -0.365  -2.140  1.00  0.00     0.008 A 
ATOM      8  C   UNL     1       7.955  -1.275   0.032  1.00  0.00     0.054 A 
ATOM      9  C   UNL     1       8.148  -1.569  -2.709  1.00  0.00     0.051 A 
ATOM     10  C   UNL     1       8.365  -2.491  -0.508  1.00  0.00     0.166 A 
ATOM     11  C   UNL     1       8.459  -2.628  -1.877  1.00  0.00     0.165 A 
ATOM     12  O   UNL     1       8.740  -3.719   0.038  1.00  0.00    -0.454 OA
ATOM     13  O   UNL     1       8.884  -3.921  -2.145  1.00  0.00    -0.454 OA
ATOM     14  C   UNL     1       8.806  -4.707  -0.959  1.00  0.00     0.468 C 
ENDBRANCH   5   6
ENDBRANCH   1   5
TORSDOF 3
ENDMDL
MODEL 3
REMARK VINA RESULT:      -7.3      2.066      2.640
REMARK SMILES CC(=O)CCc1ccc2c(c1)OCO2
REMARK SMILES IDX 4 1 2 2 1 3 3 4 5 5 6 6 7 7 11 8 8 9 10 10 9 11 12 12 14 13
REMARK SMILES IDX 13 14
REMARK H PARENT
REMARK Flexibility Score: inf
ROOT
ATOM      1  C   UNL     1       5.374  -0.012   1.999  1.00  0.00     0.080 C 
ENDROOT
BRANCH   1   2
ATOM      2  C   UNL     1       4.532   1.178   1.767  1.00  0.00     0.130 C 
ATOM      3  C   UNL     1       4.914   2.136   0.710  1.00  0.00     0.087 C 
ATOM      4  O   UNL     1       3.549   1.344   2.445  1.00  0.00    -0.300 OA
ENDBRANCH   1   2
BRANCH   1   5
ATOM      5  C   UNL     1       6.815   0.252   1.617  1.00  0.00     0.043 C 
BRANCH   5   6
ATOM      6  C   UNL     1       7.269  -0.718   0.616  1.00  0.00    -0.044 A 
ATOM      7  C   UNL     1       7.081  -0.471  -0.728  1.00  0.00     0.008 A 
ATOM      8  C   UNL     1       7.893  -1.900   0.972  1.00  0.00     0.054 A 
ATOM      9  C   UNL     1       7.497  -1.366  -1.710  1.00  0.00     0.051 A 
ATOM     10  C   UNL     1       8.320  -2.815   0.013  1.00  0.00     0.166 A 
ATOM     11  C   UNL     1       8.117  -2.539  -1.323  1.00  0.00     0.165 A 
ATOM     12  O   UNL     1       8.959  -4.053   0.068  1.00  0.00    -0.454 OA
ATOM     13  O   UNL     1       8.629  -3.601  -2.056  1.00  0.00    -0.454 OA
ATOM     14  C   UNL     1       8.921  -4.689  -1.184  1.00  0.00     0.468 C 
ENDBRANCH   5   6
ENDBRANCH   1   5
TORSDOF 3
ENDMDL
MODEL 4
REMARK VINA RESULT:      -7.1      1.228      1.391
REMARK SMILES CC(=O)CCc1ccc2c(c1)OCO2
REMARK SMILES IDX 4 1 2 2 1 3 3 4 5 5 6 6 7 7 11 8 8 9 10 10 9 11 12 12 14 13
REMARK SMILES IDX 13 14
REMARK H PARENT
REMARK Flexibility Score: inf
ROOT
ATOM      1  C   UNL     1       6.248   1.281   0.991  1.00  0.00     0.080 C 
ENDROOT
BRANCH   1   2
ATOM      2  C   UNL     1       5.563   0.419   1.975  1.00  0.00     0.130 C 
ATOM      3  C   UNL     1       6.262  -0.770   2.501  1.00  0.00     0.087 C 
ATOM      4  O   UNL     1       4.446   0.705   2.329  1.00  0.00    -0.300 OA
ENDBRANCH   1   2
BRANCH   1   5
ATOM      5  C   UNL     1       5.754   1.010  -0.414  1.00  0.00     0.043 C 
BRANCH   5   6
ATOM      6  C   UNL     1       6.699   0.154  -1.137  1.00  0.00    -0.044 A 
ATOM      7  C   UNL     1       7.354   0.628  -2.255  1.00  0.00     0.008 A 
ATOM      8  C   UNL     1       6.968  -1.142  -0.735  1.00  0.00     0.054 A 
ATOM      9  C   UNL     1       8.259  -0.152  -2.969  1.00  0.00     0.051 A 
ATOM     10  C   UNL     1       7.868  -1.947  -1.429  1.00  0.00     0.166 A 
ATOM     11  C   UNL     1       8.507  -1.444  -2.543  1.00  0.00     0.165 A 
ATOM     12  O   UNL     1       8.328  -3.253  -1.266  1.00  0.00    -0.454 OA
ATOM     13  O   UNL     1       9.338  -2.438  -3.039  1.00  0.00    -0.454 OA
ATOM     14  C   UNL     1       9.034  -3.677  -2.404  1.00  0.00     0.468 C 
ENDBRANCH   5   6
ENDBRANCH   1   5
TORSDOF 3
ENDMDL
MODEL 5
REMARK VINA RESULT:      -7.0      1.220      5.163
REMARK SMILES CC(=O)CCc1ccc2c(c1)OCO2
REMARK SMILES IDX 4 1 2 2 1 3 3 4 5 5 6 6 7 7 11 8 8 9 10 10 9 11 12 12 14 13
REMARK SMILES IDX 13 14
REMARK H PARENT
REMARK Flexibility Score: inf
ROOT
ATOM      1  C   UNL     1       8.282   0.212  -2.635  1.00  0.00     0.080 C 
ENDROOT
BRANCH   1   2
ATOM      2  C   UNL     1       7.974  -1.228  -2.742  1.00  0.00     0.130 C 
ATOM      3  C   UNL     1       9.066  -2.179  -3.033  1.00  0.00     0.087 C 
ATOM      4  O   UNL     1       6.836  -1.599  -2.590  1.00  0.00    -0.300 OA
ENDBRANCH   1   2
BRANCH   1   5
ATOM      5  C   UNL     1       8.848   0.552  -1.272  1.00  0.00     0.043 C 
BRANCH   5   6
ATOM      6  C   UNL     1       7.808   0.455  -0.244  1.00  0.00    -0.044 A 
ATOM      7  C   UNL     1       7.853  -0.550   0.700  1.00  0.00     0.008 A 
ATOM      8  C   UNL     1       6.756   1.352  -0.179  1.00  0.00     0.054 A 
ATOM      9  C   UNL     1       6.885  -0.678   1.692  1.00  0.00     0.051 A 
ATOM     10  C   UNL     1       5.773   1.250   0.802  1.00  0.00     0.166 A 
ATOM     11  C   UNL     1       5.846   0.233   1.731  1.00  0.00     0.165 A 
ATOM     12  O   UNL     1       4.628   1.984   1.109  1.00  0.00    -0.454 OA
ATOM     13  O   UNL     1       4.758   0.360   2.582  1.00  0.00    -0.454 OA
ATOM     14  C   UNL     1       3.832   1.297   2.040  1.00  0.00     0.468 C 
ENDBRANCH   5   6
ENDBRANCH   1   5
TORSDOF 3
ENDMDL
