@<TRIPOS>MOLECULE
/home/cewinharhar/GITHUB/reincatalyze/data/processed/docking_pred/2023-May-31-1603_sub9_nm5_bs15_s42_ex16_mel10_mts1000_k50_ec05_g099_lra3e-4_lrc9e-3/b658f69152bbaa0d4df6d0fc1d77222c9f34aa3c_ligand_9.pdbqt
 14 15 0 0 0
SMALL
GASTEIGER

@<TRIPOS>ATOM
      1  C          5.6950    1.2100   -0.2750 C.3     1  UNL1        0.0800
      2  C          5.1060    1.2000    1.0790 C.2     1  UNL1        0.1300
      3  C          5.3230    0.0270    1.9510 C.3     1  UNL1        0.0870
      4  O          4.4600    2.1490    1.4460 O.2     1  UNL1       -0.3000
      5  C          7.2040    1.0880   -0.2180 C.3     1  UNL1        0.0430
      6  C          7.6370   -0.1970   -0.7750 C.2     1  UNL1       -0.0440
      7  C          7.7410   -0.3650   -2.1400 C.2     1  UNL1        0.0080
      8  C          7.9550   -1.2750    0.0320 C.2     1  UNL1        0.0540
      9  C          8.1480   -1.5690   -2.7090 C.2     1  UNL1        0.0510
     10  C          8.3650   -2.4910   -0.5080 C.2     1  UNL1        0.1660
     11  C          8.4590   -2.6280   -1.8770 C.2     1  UNL1        0.1650
     12  O          8.7400   -3.7190    0.0380 O.2     1  UNL1       -0.4540
     13  O          8.8840   -3.9210   -2.1450 O.2     1  UNL1       -0.4540
     14  C          8.8060   -4.7070   -0.9590 C.3     1  UNL1        0.4680
@<TRIPOS>BOND
     1     9     7    1
     2     9    11    2
     3    13    11    1
     4    13    14    1
     5     7     6    2
     6    11    10    1
     7    14    12    1
     8     6     5    1
     9     6     8    1
    10    10     8    2
    11    10    12    1
    12     1     5    1
    13     1     2    1
    14     2     4    2
    15     2     3    1
