@<TRIPOS>MOLECULE
/home/cewinharhar/GITHUB/reincatalyze/data/processed/docking_pred/2023-May-31-1603_sub9_nm5_bs15_s42_ex16_mel10_mts1000_k50_ec05_g099_lra3e-4_lrc9e-3/b658f69152bbaa0d4df6d0fc1d77222c9f34aa3c_ligand_9.pdbqt
 14 15 0 0 0
SMALL
GASTEIGER

@<TRIPOS>ATOM
      1  C          5.5600    1.8810    1.3190 C.3     1  UNL1        0.0800
      2  C          5.0960    0.6800    2.0430 C.2     1  UNL1        0.1300
      3  C          6.0210   -0.4580    2.2190 C.3     1  UNL1        0.0870
      4  O          3.9700    0.6530    2.4750 O.2     1  UNL1       -0.3000
      5  C          5.3910    1.7190   -0.1770 C.3     1  UNL1        0.0430
      6  C          6.5260    0.9880   -0.7480 C.2     1  UNL1       -0.0440
      7  C          7.8150    1.4340   -0.5450 C.2     1  UNL1        0.0080
      8  C          6.3530   -0.1600   -1.5010 C.2     1  UNL1        0.0540
      9  C          8.9200    0.7690   -1.0700 C.2     1  UNL1        0.0510
     10  C          7.4390   -0.8470   -2.0380 C.2     1  UNL1        0.1660
     11  C          8.7160   -0.3750   -1.8180 C.2     1  UNL1        0.1650
     12  O          7.5720   -1.9980   -2.8150 O.2     1  UNL1       -0.4540
     13  O          9.6000   -1.2340   -2.4560 O.2     1  UNL1       -0.4540
     14  C          8.8790   -2.1110   -3.3170 C.3     1  UNL1        0.4680
@<TRIPOS>BOND
     1    14    12    1
     2    14    13    1
     3    12    10    1
     4    13    11    1
     5    10    11    2
     6    10     8    1
     7    11     9    1
     8     8     6    2
     9     9     7    2
    10     6     7    1
    11     6     5    1
    12     5     1    1
    13     1     2    1
    14     2     3    1
    15     2     4    2
