@<TRIPOS>MOLECULE
/home/cewinharhar/GITHUB/reincatalyze/data/processed/docking_pred/2023-May-31-1603_sub9_nm5_bs15_s42_ex16_mel10_mts1000_k50_ec05_g099_lra3e-4_lrc9e-3/b8d8050f43b71ccf975db7ed0a80e234855f027b_ligand_9.pdbqt
 14 15 0 0 0
SMALL
GASTEIGER

@<TRIPOS>ATOM
      1  C          5.9470    1.2120    1.9830 C.3     1  UNL1        0.0800
      2  C          4.8360    1.7500    1.1720 C.2     1  UNL1        0.1300
      3  C          5.0920    2.1500   -0.2260 C.3     1  UNL1        0.0870
      4  O          3.7410    1.8510    1.6690 O.2     1  UNL1       -0.3000
      5  C          5.7470   -0.2600    2.2800 C.3     1  UNL1        0.0430
      6  C          6.9290   -1.0300    1.8830 C.2     1  UNL1       -0.0440
      7  C          8.1860   -0.4650    1.9560 C.2     1  UNL1        0.0080
      8  C          6.8350   -2.3330    1.4260 C.2     1  UNL1        0.0540
      9  C          9.3330   -1.1620    1.5880 C.2     1  UNL1        0.0510
     10  C          7.9660   -3.0560    1.0510 C.2     1  UNL1        0.1660
     11  C          9.2080   -2.4620    1.1360 C.2     1  UNL1        0.1650
     12  O          8.1770   -4.3470    0.5680 O.2     1  UNL1       -0.4540
     13  O         10.1480   -3.3880    0.7070 O.2     1  UNL1       -0.4540
     14  C          9.4890   -4.4900    0.0890 C.3     1  UNL1        0.4680
@<TRIPOS>BOND
     1     3     2    1
     2    14    12    1
     3    14    13    1
     4    12    10    1
     5    13    11    1
     6    10    11    2
     7    10     8    1
     8    11     9    1
     9     2     4    2
    10     2     1    1
    11     8     6    2
    12     9     7    2
    13     6     7    1
    14     6     5    1
    15     1     5    1
