@<TRIPOS>MOLECULE
/home/cewinharhar/GITHUB/reincatalyze/data/processed/docking_pred/2023-May-31-1603_sub9_nm5_bs15_s42_ex16_mel10_mts1000_k50_ec05_g099_lra3e-4_lrc9e-3/b8d8050f43b71ccf975db7ed0a80e234855f027b_ligand_9.pdbqt
 14 15 0 0 0
SMALL
GASTEIGER

@<TRIPOS>ATOM
      1  C          2.2210    0.1450    3.0480 C.3     1  UNL1        0.0800
      2  C          0.7640    0.3570    2.9400 C.2     1  UNL1        0.1300
      3  C         -0.1510   -0.5240    3.6940 C.3     1  UNL1        0.0870
      4  O          0.3500    1.2460    2.2370 O.2     1  UNL1       -0.3000
      5  C          2.9850    1.1320    2.1900 C.3     1  UNL1        0.0430
      6  C          4.3830    0.7160    2.0460 C.2     1  UNL1       -0.0440
      7  C          5.3700    1.6540    1.8250 C.2     1  UNL1        0.0080
      8  C          4.7630   -0.6130    2.1240 C.2     1  UNL1        0.0540
      9  C          6.7090    1.2990    1.6810 C.2     1  UNL1        0.0510
     10  C          6.0940   -0.9970    1.9850 C.2     1  UNL1        0.1660
     11  C          7.0580   -0.0360    1.7640 C.2     1  UNL1        0.1650
     12  O          6.7590   -2.2230    2.0150 O.2     1  UNL1       -0.4540
     13  O          8.2830   -0.6800    1.6640 O.2     1  UNL1       -0.4540
     14  C          8.0770   -2.0850    1.5490 C.3     1  UNL1        0.4680
@<TRIPOS>BOND
     1    14    13    1
     2    14    12    1
     3    13    11    1
     4     9    11    2
     5     9     7    1
     6    11    10    1
     7     7     6    2
     8    10    12    1
     9    10     8    2
    10     6     8    1
    11     6     5    1
    12     5     1    1
    13     4     2    2
    14     2     1    1
    15     2     3    1
