@<TRIPOS>MOLECULE
/home/cewinharhar/GITHUB/reincatalyze/data/processed/docking_pred/2023-May-31-1603_sub9_nm5_bs15_s42_ex16_mel10_mts1000_k50_ec05_g099_lra3e-4_lrc9e-3/b8d8050f43b71ccf975db7ed0a80e234855f027b_ligand_9.pdbqt
 14 15 0 0 0
SMALL
GASTEIGER

@<TRIPOS>ATOM
      1  C          7.9950   -3.0500    1.1620 C.3     1  UNL1        0.0800
      2  C          9.1100   -3.8510    0.6180 C.2     1  UNL1        0.1300
      3  C          8.9190   -4.5870   -0.6480 C.3     1  UNL1        0.0870
      4  O         10.1550   -3.8870    1.2190 O.2     1  UNL1       -0.3000
      5  C          8.4920   -1.7480    1.7550 C.3     1  UNL1        0.0430
      6  C          7.4190   -0.7500    1.7790 C.2     1  UNL1       -0.0440
      7  C          7.6990    0.5800    1.5450 C.2     1  UNL1        0.0080
      8  C          6.1030   -1.0960    2.0330 C.2     1  UNL1        0.0540
      9  C          6.7090    1.5590    1.5600 C.2     1  UNL1        0.0510
     10  C          5.0910   -0.1390    2.0540 C.2     1  UNL1        0.1660
     11  C          5.4030    1.1830    1.8160 C.2     1  UNL1        0.1650
     12  O          3.7150   -0.1870    2.2740 O.2     1  UNL1       -0.4540
     13  O          4.2280    1.9160    1.8950 O.2     1  UNL1       -0.4540
     14  C          3.1950    1.1060    2.4500 C.3     1  UNL1        0.4680
@<TRIPOS>BOND
     1     3     2    1
     2     2     1    1
     3     2     4    2
     4     1     5    1
     5     7     9    1
     6     7     6    2
     7     9    11    2
     8     5     6    1
     9     6     8    1
    10    11    13    1
    11    11    10    1
    12    13    14    1
    13     8    10    2
    14    10    12    1
    15    12    14    1
