MODEL 1
REMARK VINA RESULT:       1.2      0.000      0.000
REMARK SMILES CC(=O)CCc1ccc2c(c1)OCO2
REMARK SMILES IDX 4 1 2 2 1 3 3 4 5 5 6 6 7 7 11 8 8 9 10 10 9 11 12 12 14 13
REMARK SMILES IDX 13 14
REMARK H PARENT
REMARK Flexibility Score: inf
ROOT
ATOM      1  C   UNL     1       6.397   2.058   1.537  1.00  0.00     0.080 C 
ENDROOT
BRANCH   1   2
ATOM      2  C   UNL     1       5.068   2.051   0.892  1.00  0.00     0.130 C 
ATOM      3  C   UNL     1       4.980   2.150  -0.579  1.00  0.00     0.087 C 
ATOM      4  O   UNL     1       4.082   1.965   1.581  1.00  0.00    -0.300 OA
ENDBRANCH   1   2
BRANCH   1   5
ATOM      5  C   UNL     1       6.469   1.042   2.658  1.00  0.00     0.043 C 
BRANCH   5   6
ATOM      6  C   UNL     1       6.877  -0.267   2.140  1.00  0.00    -0.044 A 
ATOM      7  C   UNL     1       5.932  -1.232   1.862  1.00  0.00     0.008 A 
ATOM      8  C   UNL     1       8.206  -0.583   1.915  1.00  0.00     0.054 A 
ATOM      9  C   UNL     1       6.279  -2.488   1.371  1.00  0.00     0.051 A 
ATOM     10  C   UNL     1       8.583  -1.831   1.424  1.00  0.00     0.166 A 
ATOM     11  C   UNL     1       7.614  -2.775   1.155  1.00  0.00     0.165 A 
ATOM     12  O   UNL     1       9.807  -2.419   1.106  1.00  0.00    -0.454 OA
ATOM     13  O   UNL     1       8.252  -3.913   0.683  1.00  0.00    -0.454 OA
ATOM     14  C   UNL     1       9.655  -3.801   0.901  1.00  0.00     0.468 C 
ENDBRANCH   5   6
ENDBRANCH   1   5
TORSDOF 3
ENDMDL
MODEL 2
REMARK VINA RESULT:       1.5      2.988      3.901
REMARK SMILES CC(=O)CCc1ccc2c(c1)OCO2
REMARK SMILES IDX 4 1 2 2 1 3 3 4 5 5 6 6 7 7 11 8 8 9 10 10 9 11 12 12 14 13
REMARK SMILES IDX 13 14
REMARK H PARENT
REMARK Flexibility Score: inf
ROOT
ATOM      1  C   UNL     1       2.221   0.145   3.048  1.00  0.00     0.080 C 
ENDROOT
BRANCH   1   2
ATOM      2  C   UNL     1       0.764   0.357   2.940  1.00  0.00     0.130 C 
ATOM      3  C   UNL     1      -0.151  -0.524   3.694  1.00  0.00     0.087 C 
ATOM      4  O   UNL     1       0.350   1.246   2.237  1.00  0.00    -0.300 OA
ENDBRANCH   1   2
BRANCH   1   5
ATOM      5  C   UNL     1       2.985   1.132   2.190  1.00  0.00     0.043 C 
BRANCH   5   6
ATOM      6  C   UNL     1       4.383   0.716   2.046  1.00  0.00    -0.044 A 
ATOM      7  C   UNL     1       5.370   1.654   1.825  1.00  0.00     0.008 A 
ATOM      8  C   UNL     1       4.763  -0.613   2.124  1.00  0.00     0.054 A 
ATOM      9  C   UNL     1       6.709   1.299   1.681  1.00  0.00     0.051 A 
ATOM     10  C   UNL     1       6.094  -0.997   1.985  1.00  0.00     0.166 A 
ATOM     11  C   UNL     1       7.058  -0.036   1.764  1.00  0.00     0.165 A 
ATOM     12  O   UNL     1       6.759  -2.223   2.015  1.00  0.00    -0.454 OA
ATOM     13  O   UNL     1       8.283  -0.680   1.664  1.00  0.00    -0.454 OA
ATOM     14  C   UNL     1       8.077  -2.085   1.549  1.00  0.00     0.468 C 
ENDBRANCH   5   6
ENDBRANCH   1   5
TORSDOF 3
ENDMDL
MODEL 3
REMARK VINA RESULT:       1.7      9.419     11.204
REMARK SMILES CC(=O)CCc1ccc2c(c1)OCO2
REMARK SMILES IDX 4 1 2 2 1 3 3 4 5 5 6 6 7 7 11 8 8 9 10 10 9 11 12 12 14 13
REMARK SMILES IDX 13 14
REMARK H PARENT
REMARK Flexibility Score: inf
ROOT
ATOM      1  C   UNL     1       1.930  -7.544  -0.589  1.00  0.00     0.080 C 
ENDROOT
BRANCH   1   2
ATOM      2  C   UNL     1       2.288  -6.144  -0.286  1.00  0.00     0.130 C 
ATOM      3  C   UNL     1       2.135  -5.117  -1.336  1.00  0.00     0.087 C 
ATOM      4  O   UNL     1       2.700  -5.868   0.814  1.00  0.00    -0.300 OA
ENDBRANCH   1   2
BRANCH   1   5
ATOM      5  C   UNL     1       2.680  -8.509   0.305  1.00  0.00     0.043 C 
BRANCH   5   6
ATOM      6  C   UNL     1       1.791  -9.577   0.771  1.00  0.00    -0.044 A 
ATOM      7  C   UNL     1       2.314 -10.730   1.319  1.00  0.00     0.008 A 
ATOM      8  C   UNL     1       0.414  -9.476   0.680  1.00  0.00     0.054 A 
ATOM      9  C   UNL     1       1.504 -11.768   1.772  1.00  0.00     0.051 A 
ATOM     10  C   UNL     1      -0.422 -10.497   1.125  1.00  0.00     0.166 A 
ATOM     11  C   UNL     1       0.132 -11.637   1.668  1.00  0.00     0.165 A 
ATOM     12  O   UNL     1      -1.805 -10.674   1.162  1.00  0.00    -0.454 OA
ATOM     13  O   UNL     1      -0.908 -12.484   2.025  1.00  0.00    -0.454 OA
ATOM     14  C   UNL     1      -2.128 -12.006   1.465  1.00  0.00     0.468 C 
ENDBRANCH   5   6
ENDBRANCH   1   5
TORSDOF 3
ENDMDL
MODEL 4
REMARK VINA RESULT:       1.8      1.343      5.689
REMARK SMILES CC(=O)CCc1ccc2c(c1)OCO2
REMARK SMILES IDX 4 1 2 2 1 3 3 4 5 5 6 6 7 7 11 8 8 9 10 10 9 11 12 12 14 13
REMARK SMILES IDX 13 14
REMARK H PARENT
REMARK Flexibility Score: inf
ROOT
ATOM      1  C   UNL     1       7.995  -3.050   1.162  1.00  0.00     0.080 C 
ENDROOT
BRANCH   1   2
ATOM      2  C   UNL     1       9.110  -3.851   0.618  1.00  0.00     0.130 C 
ATOM      3  C   UNL     1       8.919  -4.587  -0.648  1.00  0.00     0.087 C 
ATOM      4  O   UNL     1      10.155  -3.887   1.219  1.00  0.00    -0.300 OA
ENDBRANCH   1   2
BRANCH   1   5
ATOM      5  C   UNL     1       8.492  -1.748   1.755  1.00  0.00     0.043 C 
BRANCH   5   6
ATOM      6  C   UNL     1       7.419  -0.750   1.779  1.00  0.00    -0.044 A 
ATOM      7  C   UNL     1       7.699   0.580   1.545  1.00  0.00     0.008 A 
ATOM      8  C   UNL     1       6.103  -1.096   2.033  1.00  0.00     0.054 A 
ATOM      9  C   UNL     1       6.709   1.559   1.560  1.00  0.00     0.051 A 
ATOM     10  C   UNL     1       5.091  -0.139   2.054  1.00  0.00     0.166 A 
ATOM     11  C   UNL     1       5.403   1.183   1.816  1.00  0.00     0.165 A 
ATOM     12  O   UNL     1       3.715  -0.187   2.274  1.00  0.00    -0.454 OA
ATOM     13  O   UNL     1       4.228   1.916   1.895  1.00  0.00    -0.454 OA
ATOM     14  C   UNL     1       3.195   1.106   2.450  1.00  0.00     0.468 C 
ENDBRANCH   5   6
ENDBRANCH   1   5
TORSDOF 3
ENDMDL
MODEL 5
REMARK VINA RESULT:       1.8      0.761      1.752
REMARK SMILES CC(=O)CCc1ccc2c(c1)OCO2
REMARK SMILES IDX 4 1 2 2 1 3 3 4 5 5 6 6 7 7 11 8 8 9 10 10 9 11 12 12 14 13
REMARK SMILES IDX 13 14
REMARK H PARENT
REMARK Flexibility Score: inf
ROOT
ATOM      1  C   UNL     1       5.947   1.212   1.983  1.00  0.00     0.080 C 
ENDROOT
BRANCH   1   2
ATOM      2  C   UNL     1       4.836   1.750   1.172  1.00  0.00     0.130 C 
ATOM      3  C   UNL     1       5.092   2.150  -0.226  1.00  0.00     0.087 C 
ATOM      4  O   UNL     1       3.741   1.851   1.669  1.00  0.00    -0.300 OA
ENDBRANCH   1   2
BRANCH   1   5
ATOM      5  C   UNL     1       5.747  -0.260   2.280  1.00  0.00     0.043 C 
BRANCH   5   6
ATOM      6  C   UNL     1       6.929  -1.030   1.883  1.00  0.00    -0.044 A 
ATOM      7  C   UNL     1       8.186  -0.465   1.956  1.00  0.00     0.008 A 
ATOM      8  C   UNL     1       6.835  -2.333   1.426  1.00  0.00     0.054 A 
ATOM      9  C   UNL     1       9.333  -1.162   1.588  1.00  0.00     0.051 A 
ATOM     10  C   UNL     1       7.966  -3.056   1.051  1.00  0.00     0.166 A 
ATOM     11  C   UNL     1       9.208  -2.462   1.136  1.00  0.00     0.165 A 
ATOM     12  O   UNL     1       8.177  -4.347   0.568  1.00  0.00    -0.454 OA
ATOM     13  O   UNL     1      10.148  -3.388   0.707  1.00  0.00    -0.454 OA
ATOM     14  C   UNL     1       9.489  -4.490   0.089  1.00  0.00     0.468 C 
ENDBRANCH   5   6
ENDBRANCH   1   5
TORSDOF 3
ENDMDL
