@<TRIPOS>MOLECULE
/home/cewinharhar/GITHUB/reincatalyze/data/processed/docking_pred/2023-May-31-1603_sub9_nm5_bs15_s42_ex16_mel10_mts1000_k50_ec05_g099_lra3e-4_lrc9e-3/b8d8050f43b71ccf975db7ed0a80e234855f027b_ligand_9.pdbqt
 14 15 0 0 0
SMALL
GASTEIGER

@<TRIPOS>ATOM
      1  C          1.9300   -7.5440   -0.5890 C.3     1  UNL1        0.0800
      2  C          2.2880   -6.1440   -0.2860 C.2     1  UNL1        0.1300
      3  C          2.1350   -5.1170   -1.3360 C.3     1  UNL1        0.0870
      4  O          2.7000   -5.8680    0.8140 O.2     1  UNL1       -0.3000
      5  C          2.6800   -8.5090    0.3050 C.3     1  UNL1        0.0430
      6  C          1.7910   -9.5770    0.7710 C.2     1  UNL1       -0.0440
      7  C          2.3140  -10.7300    1.3190 C.2     1  UNL1        0.0080
      8  C          0.4140   -9.4760    0.6800 C.2     1  UNL1        0.0540
      9  C          1.5040  -11.7680    1.7720 C.2     1  UNL1        0.0510
     10  C         -0.4220  -10.4970    1.1250 C.2     1  UNL1        0.1660
     11  C          0.1320  -11.6370    1.6680 C.2     1  UNL1        0.1650
     12  O         -1.8050  -10.6740    1.1620 O.2     1  UNL1       -0.4540
     13  O         -0.9080  -12.4840    2.0250 O.2     1  UNL1       -0.4540
     14  C         -2.1280  -12.0060    1.4650 C.3     1  UNL1        0.4680
@<TRIPOS>BOND
     1     3     2    1
     2     1     2    1
     3     1     5    1
     4     2     4    2
     5     5     6    1
     6     8     6    2
     7     8    10    1
     8     6     7    1
     9    10    12    1
    10    10    11    2
    11    12    14    1
    12     7     9    2
    13    14    13    1
    14    11     9    1
    15    11    13    1
