@<TRIPOS>MOLECULE
/home/cewinharhar/GITHUB/reincatalyze/data/processed/docking_pred/2023-May-31-1603_sub9_nm5_bs15_s42_ex16_mel10_mts1000_k50_ec05_g099_lra3e-4_lrc9e-3/b9a0748b4c4cb53be71f33acfe76cbadf25e0c0f_ligand_9.pdbqt
 14 15 0 0 0
SMALL
GASTEIGER

@<TRIPOS>ATOM
      1  C          6.8520    0.8300    1.1130 C.3     1  UNL1        0.0800
      2  C          5.4400    1.1430    1.4110 C.2     1  UNL1        0.1300
      3  C          4.7360    2.1500    0.5920 C.3     1  UNL1        0.0870
      4  O          4.8900    0.5690    2.3180 O.2     1  UNL1       -0.3000
      5  C          7.1360    0.9350   -0.3710 C.3     1  UNL1        0.0430
      6  C          7.6200   -0.3450   -0.8950 C.2     1  UNL1       -0.0440
      7  C          7.7990   -0.5200   -2.2510 C.2     1  UNL1        0.0080
      8  C          7.9130   -1.4130   -0.0640 C.2     1  UNL1        0.0540
      9  C          8.2560   -1.7210   -2.7890 C.2     1  UNL1        0.0510
     10  C          8.3720   -2.6250   -0.5720 C.2     1  UNL1        0.1660
     11  C          8.5400   -2.7690   -1.9340 C.2     1  UNL1        0.1650
     12  O          8.7380   -3.8420    0.0020 O.2     1  UNL1       -0.4540
     13  O          9.0010   -4.0560   -2.1690 O.2     1  UNL1       -0.4540
     14  C          8.8740   -4.8350   -0.9830 C.3     1  UNL1        0.4680
@<TRIPOS>BOND
     1     9     7    1
     2     9    11    2
     3     7     6    2
     4    13    11    1
     5    13    14    1
     6    11    10    1
     7    14    12    1
     8     6     5    1
     9     6     8    1
    10    10     8    2
    11    10    12    1
    12     5     1    1
    13     3     2    1
    14     1     2    1
    15     2     4    2
