@<TRIPOS>MOLECULE
/home/cewinharhar/GITHUB/reincatalyze/data/processed/docking_pred/2023-May-31-1603_sub9_nm5_bs15_s42_ex16_mel10_mts1000_k50_ec05_g099_lra3e-4_lrc9e-3/ba254a63d1f23417312e0ffefa4719b754a9a4bf_ligand_9.pdbqt
 14 15 0 0 0
SMALL
GASTEIGER

@<TRIPOS>ATOM
      1  C          5.6170    1.8470    1.3430 C.3     1  UNL1        0.0800
      2  C          5.1420    0.6480    2.0610 C.2     1  UNL1        0.1300
      3  C          6.0650   -0.4890    2.2550 C.3     1  UNL1        0.0870
      4  O          4.0090    0.6210    2.4750 O.2     1  UNL1       -0.3000
      5  C          5.4300    1.7010   -0.1530 C.3     1  UNL1        0.0430
      6  C          6.5550    0.9700   -0.7440 C.2     1  UNL1       -0.0440
      7  C          7.8470    1.4190   -0.5660 C.2     1  UNL1        0.0080
      8  C          6.3700   -0.1790   -1.4920 C.2     1  UNL1        0.0540
      9  C          8.9430    0.7550   -1.1100 C.2     1  UNL1        0.0510
     10  C          7.4470   -0.8650   -2.0490 C.2     1  UNL1        0.1660
     11  C          8.7270   -0.3910   -1.8530 C.2     1  UNL1        0.1650
     12  O          7.5670   -2.0160   -2.8270 O.2     1  UNL1       -0.4540
     13  O          9.6000   -1.2490   -2.5060 O.2     1  UNL1       -0.4540
     14  C          8.8650   -2.1280   -3.3520 C.3     1  UNL1        0.4680
@<TRIPOS>BOND
     1    14    12    1
     2    14    13    1
     3    12    10    1
     4    13    11    1
     5    10    11    2
     6    10     8    1
     7    11     9    1
     8     8     6    2
     9     9     7    2
    10     6     7    1
    11     6     5    1
    12     5     1    1
    13     1     2    1
    14     2     3    1
    15     2     4    2
