MODEL 1
REMARK VINA RESULT:      -7.5      0.000      0.000
REMARK SMILES CC(=O)CCc1ccc2c(c1)OCO2
REMARK SMILES IDX 4 1 2 2 1 3 3 4 5 5 6 6 7 7 11 8 8 9 10 10 9 11 12 12 14 13
REMARK SMILES IDX 13 14
REMARK H PARENT
REMARK Flexibility Score: inf
ROOT
ATOM      1  C   UNL     1       5.617   1.847   1.343  1.00  0.00     0.080 C 
ENDROOT
BRANCH   1   2
ATOM      2  C   UNL     1       5.142   0.648   2.061  1.00  0.00     0.130 C 
ATOM      3  C   UNL     1       6.065  -0.489   2.255  1.00  0.00     0.087 C 
ATOM      4  O   UNL     1       4.009   0.621   2.475  1.00  0.00    -0.300 OA
ENDBRANCH   1   2
BRANCH   1   5
ATOM      5  C   UNL     1       5.430   1.701  -0.153  1.00  0.00     0.043 C 
BRANCH   5   6
ATOM      6  C   UNL     1       6.555   0.970  -0.744  1.00  0.00    -0.044 A 
ATOM      7  C   UNL     1       7.847   1.419  -0.566  1.00  0.00     0.008 A 
ATOM      8  C   UNL     1       6.370  -0.179  -1.492  1.00  0.00     0.054 A 
ATOM      9  C   UNL     1       8.943   0.755  -1.110  1.00  0.00     0.051 A 
ATOM     10  C   UNL     1       7.447  -0.865  -2.049  1.00  0.00     0.166 A 
ATOM     11  C   UNL     1       8.727  -0.391  -1.853  1.00  0.00     0.165 A 
ATOM     12  O   UNL     1       7.567  -2.016  -2.827  1.00  0.00    -0.454 OA
ATOM     13  O   UNL     1       9.600  -1.249  -2.506  1.00  0.00    -0.454 OA
ATOM     14  C   UNL     1       8.865  -2.128  -3.352  1.00  0.00     0.468 C 
ENDBRANCH   5   6
ENDBRANCH   1   5
TORSDOF 3
ENDMDL
MODEL 2
REMARK VINA RESULT:      -7.3      1.727      2.172
REMARK SMILES CC(=O)CCc1ccc2c(c1)OCO2
REMARK SMILES IDX 4 1 2 2 1 3 3 4 5 5 6 6 7 7 11 8 8 9 10 10 9 11 12 12 14 13
REMARK SMILES IDX 13 14
REMARK H PARENT
REMARK Flexibility Score: inf
ROOT
ATOM      1  C   UNL     1       6.565   1.406   0.368  1.00  0.00     0.080 C 
ENDROOT
BRANCH   1   2
ATOM      2  C   UNL     1       5.454   1.242   1.327  1.00  0.00     0.130 C 
ATOM      3  C   UNL     1       5.374   0.008   2.134  1.00  0.00     0.087 C 
ATOM      4  O   UNL     1       4.634   2.121   1.432  1.00  0.00    -0.300 OA
ENDBRANCH   1   2
BRANCH   1   5
ATOM      5  C   UNL     1       6.169   0.935  -1.016  1.00  0.00     0.043 C 
BRANCH   5   6
ATOM      6  C   UNL     1       6.960  -0.236  -1.407  1.00  0.00    -0.044 A 
ATOM      7  C   UNL     1       7.412  -0.370  -2.703  1.00  0.00     0.008 A 
ATOM      8  C   UNL     1       7.279  -1.238  -0.507  1.00  0.00     0.054 A 
ATOM      9  C   UNL     1       8.164  -1.467  -3.115  1.00  0.00     0.051 A 
ATOM     10  C   UNL     1       8.030  -2.347  -0.890  1.00  0.00     0.166 A 
ATOM     11  C   UNL     1       8.467  -2.452  -2.194  1.00  0.00     0.165 A 
ATOM     12  O   UNL     1       8.494  -3.481  -0.225  1.00  0.00    -0.454 OA
ATOM     13  O   UNL     1       9.183  -3.635  -2.305  1.00  0.00    -0.454 OA
ATOM     14  C   UNL     1       8.980  -4.430  -1.140  1.00  0.00     0.468 C 
ENDBRANCH   5   6
ENDBRANCH   1   5
TORSDOF 3
ENDMDL
MODEL 3
REMARK VINA RESULT:      -7.3      2.110      2.646
REMARK SMILES CC(=O)CCc1ccc2c(c1)OCO2
REMARK SMILES IDX 4 1 2 2 1 3 3 4 5 5 6 6 7 7 11 8 8 9 10 10 9 11 12 12 14 13
REMARK SMILES IDX 13 14
REMARK H PARENT
REMARK Flexibility Score: inf
ROOT
ATOM      1  C   UNL     1       5.480   0.033   1.895  1.00  0.00     0.080 C 
ENDROOT
BRANCH   1   2
ATOM      2  C   UNL     1       4.623   1.202   1.616  1.00  0.00     0.130 C 
ATOM      3  C   UNL     1       4.981   2.111   0.509  1.00  0.00     0.087 C 
ATOM      4  O   UNL     1       3.646   1.391   2.299  1.00  0.00    -0.300 OA
ENDBRANCH   1   2
BRANCH   1   5
ATOM      5  C   UNL     1       6.913   0.292   1.477  1.00  0.00     0.043 C 
BRANCH   5   6
ATOM      6  C   UNL     1       7.355  -0.713   0.506  1.00  0.00    -0.044 A 
ATOM      7  C   UNL     1       7.195  -0.493  -0.846  1.00  0.00     0.008 A 
ATOM      8  C   UNL     1       7.941  -1.904   0.899  1.00  0.00     0.054 A 
ATOM      9  C   UNL     1       7.600  -1.422  -1.801  1.00  0.00     0.051 A 
ATOM     10  C   UNL     1       8.357  -2.852  -0.032  1.00  0.00     0.166 A 
ATOM     11  C   UNL     1       8.183  -2.602  -1.377  1.00  0.00     0.165 A 
ATOM     12  O   UNL     1       8.961  -4.106   0.062  1.00  0.00    -0.454 OA
ATOM     13  O   UNL     1       8.676  -3.694  -2.077  1.00  0.00    -0.454 OA
ATOM     14  C   UNL     1       8.924  -4.769  -1.175  1.00  0.00     0.468 C 
ENDBRANCH   5   6
ENDBRANCH   1   5
TORSDOF 3
ENDMDL
MODEL 4
REMARK VINA RESULT:      -6.9      1.211      5.167
REMARK SMILES CC(=O)CCc1ccc2c(c1)OCO2
REMARK SMILES IDX 4 1 2 2 1 3 3 4 5 5 6 6 7 7 11 8 8 9 10 10 9 11 12 12 14 13
REMARK SMILES IDX 13 14
REMARK H PARENT
REMARK Flexibility Score: inf
ROOT
ATOM      1  C   UNL     1       8.269   0.187  -2.655  1.00  0.00     0.080 C 
ENDROOT
BRANCH   1   2
ATOM      2  C   UNL     1       7.968  -1.256  -2.742  1.00  0.00     0.130 C 
ATOM      3  C   UNL     1       9.068  -2.208  -2.996  1.00  0.00     0.087 C 
ATOM      4  O   UNL     1       6.829  -1.628  -2.603  1.00  0.00    -0.300 OA
ENDBRANCH   1   2
BRANCH   1   5
ATOM      5  C   UNL     1       8.834   0.549  -1.297  1.00  0.00     0.043 C 
BRANCH   5   6
ATOM      6  C   UNL     1       7.796   0.455  -0.266  1.00  0.00    -0.044 A 
ATOM      7  C   UNL     1       7.837  -0.553   0.674  1.00  0.00     0.008 A 
ATOM      8  C   UNL     1       6.749   1.359  -0.196  1.00  0.00     0.054 A 
ATOM      9  C   UNL     1       6.870  -0.677   1.669  1.00  0.00     0.051 A 
ATOM     10  C   UNL     1       5.768   1.260   0.787  1.00  0.00     0.166 A 
ATOM     11  C   UNL     1       5.837   0.240   1.713  1.00  0.00     0.165 A 
ATOM     12  O   UNL     1       4.628   2.001   1.099  1.00  0.00    -0.454 OA
ATOM     13  O   UNL     1       4.752   0.371   2.567  1.00  0.00    -0.454 OA
ATOM     14  C   UNL     1       3.830   1.316   2.030  1.00  0.00     0.468 C 
ENDBRANCH   5   6
ENDBRANCH   1   5
TORSDOF 3
ENDMDL
MODEL 5
REMARK VINA RESULT:      -6.7      1.230      1.713
REMARK SMILES CC(=O)CCc1ccc2c(c1)OCO2
REMARK SMILES IDX 4 1 2 2 1 3 3 4 5 5 6 6 7 7 11 8 8 9 10 10 9 11 12 12 14 13
REMARK SMILES IDX 13 14
REMARK H PARENT
REMARK Flexibility Score: inf
ROOT
ATOM      1  C   UNL     1       5.292  -0.024   1.981  1.00  0.00     0.080 C 
ENDROOT
BRANCH   1   2
ATOM      2  C   UNL     1       4.409   1.146   1.801  1.00  0.00     0.130 C 
ATOM      3  C   UNL     1       4.741   2.148   0.769  1.00  0.00     0.087 C 
ATOM      4  O   UNL     1       3.433   1.258   2.502  1.00  0.00    -0.300 OA
ENDBRANCH   1   2
BRANCH   1   5
ATOM      5  C   UNL     1       6.751   0.382   1.953  1.00  0.00     0.043 C 
BRANCH   5   6
ATOM      6  C   UNL     1       7.374  -0.021   0.689  1.00  0.00    -0.044 A 
ATOM      7  C   UNL     1       7.916   0.927  -0.154  1.00  0.00     0.008 A 
ATOM      8  C   UNL     1       7.443  -1.346   0.296  1.00  0.00     0.054 A 
ATOM      9  C   UNL     1       8.515   0.586  -1.363  1.00  0.00     0.051 A 
ATOM     10  C   UNL     1       8.037  -1.718  -0.908  1.00  0.00     0.166 A 
ATOM     11  C   UNL     1       8.569  -0.746  -1.729  1.00  0.00     0.165 A 
ATOM     12  O   UNL     1       8.248  -2.937  -1.551  1.00  0.00    -0.454 OA
ATOM     13  O   UNL     1       9.091  -1.378  -2.849  1.00  0.00    -0.454 OA
ATOM     14  C   UNL     1       8.656  -2.734  -2.879  1.00  0.00     0.468 C 
ENDBRANCH   5   6
ENDBRANCH   1   5
TORSDOF 3
ENDMDL
