@<TRIPOS>MOLECULE
/home/cewinharhar/GITHUB/reincatalyze/data/processed/docking_pred/2023-May-31-1603_sub9_nm5_bs15_s42_ex16_mel10_mts1000_k50_ec05_g099_lra3e-4_lrc9e-3/ba254a63d1f23417312e0ffefa4719b754a9a4bf_ligand_9.pdbqt
 14 15 0 0 0
SMALL
GASTEIGER

@<TRIPOS>ATOM
      1  C          5.2920   -0.0240    1.9810 C.3     1  UNL1        0.0800
      2  C          4.4090    1.1460    1.8010 C.2     1  UNL1        0.1300
      3  C          4.7410    2.1480    0.7690 C.3     1  UNL1        0.0870
      4  O          3.4330    1.2580    2.5020 O.2     1  UNL1       -0.3000
      5  C          6.7510    0.3820    1.9530 C.3     1  UNL1        0.0430
      6  C          7.3740   -0.0210    0.6890 C.2     1  UNL1       -0.0440
      7  C          7.9160    0.9270   -0.1540 C.2     1  UNL1        0.0080
      8  C          7.4430   -1.3460    0.2960 C.2     1  UNL1        0.0540
      9  C          8.5150    0.5860   -1.3630 C.2     1  UNL1        0.0510
     10  C          8.0370   -1.7180   -0.9080 C.2     1  UNL1        0.1660
     11  C          8.5690   -0.7460   -1.7290 C.2     1  UNL1        0.1650
     12  O          8.2480   -2.9370   -1.5510 O.2     1  UNL1       -0.4540
     13  O          9.0910   -1.3780   -2.8490 O.2     1  UNL1       -0.4540
     14  C          8.6560   -2.7340   -2.8790 C.3     1  UNL1        0.4680
@<TRIPOS>BOND
     1    14    13    1
     2    14    12    1
     3    13    11    1
     4    11     9    2
     5    11    10    1
     6    12    10    1
     7     9     7    1
     8    10     8    2
     9     7     6    2
    10     8     6    1
    11     6     5    1
    12     3     2    1
    13     2     1    1
    14     2     4    2
    15     5     1    1
