@<TRIPOS>MOLECULE
/home/cewinharhar/GITHUB/reincatalyze/data/processed/docking_pred/2023-May-31-1603_sub9_nm5_bs15_s42_ex16_mel10_mts1000_k50_ec05_g099_lra3e-4_lrc9e-3/bae690ffab80532c90b6f683492bf7de3cce581e_ligand_9.pdbqt
 14 15 0 0 0
SMALL
GASTEIGER

@<TRIPOS>ATOM
      1  C          5.3650   -0.0290    1.9640 C.3     1  UNL1        0.0800
      2  C          4.5260    1.1690    1.7600 C.2     1  UNL1        0.1300
      3  C          4.8980    2.1400    0.7120 C.3     1  UNL1        0.0870
      4  O          3.5530    1.3290    2.4550 O.2     1  UNL1       -0.3000
      5  C          6.8070    0.2410    1.5860 C.3     1  UNL1        0.0430
      6  C          7.2680   -0.7280    0.5880 C.2     1  UNL1       -0.0440
      7  C          7.1020   -0.4750   -0.7580 C.2     1  UNL1        0.0080
      8  C          7.8770   -1.9170    0.9480 C.2     1  UNL1        0.0540
      9  C          7.5250   -1.3700   -1.7370 C.2     1  UNL1        0.0510
     10  C          8.3100   -2.8320   -0.0090 C.2     1  UNL1        0.1660
     11  C          8.1300   -2.5490   -1.3470 C.2     1  UNL1        0.1650
     12  O          8.9390   -4.0750    0.0510 O.2     1  UNL1       -0.4540
     13  O          8.6440   -3.6120   -2.0760 O.2     1  UNL1       -0.4540
     14  C          8.9140   -4.7060   -1.2040 C.3     1  UNL1        0.4680
@<TRIPOS>BOND
     1    13    11    1
     2    13    14    1
     3     9    11    2
     4     9     7    1
     5    11    10    1
     6    14    12    1
     7     7     6    2
     8    10    12    1
     9    10     8    2
    10     6     8    1
    11     6     5    1
    12     3     2    1
    13     5     1    1
    14     2     1    1
    15     2     4    2
