@<TRIPOS>MOLECULE
/home/cewinharhar/GITHUB/reincatalyze/data/processed/docking_pred/2023-May-31-1603_sub9_nm5_bs15_s42_ex16_mel10_mts1000_k50_ec05_g099_lra3e-4_lrc9e-3/bae690ffab80532c90b6f683492bf7de3cce581e_ligand_9.pdbqt
 14 15 0 0 0
SMALL
GASTEIGER

@<TRIPOS>ATOM
      1  C          8.2340    0.2250   -2.5830 C.3     1  UNL1        0.0800
      2  C          7.9430   -1.2170   -2.7090 C.2     1  UNL1        0.1300
      3  C          9.0460   -2.1510   -3.0120 C.3     1  UNL1        0.0870
      4  O          6.8100   -1.6030   -2.5610 O.2     1  UNL1       -0.3000
      5  C          8.7870    0.5560   -1.2120 C.3     1  UNL1        0.0430
      6  C          7.7340    0.4630   -0.1960 C.2     1  UNL1       -0.0440
      7  C          7.7540   -0.5530    0.7360 C.2     1  UNL1        0.0080
      8  C          6.6940    1.3740   -0.1330 C.2     1  UNL1        0.0540
      9  C          6.7730   -0.6780    1.7160 C.2     1  UNL1        0.0510
     10  C          5.6990    1.2750    0.8360 C.2     1  UNL1        0.1660
     11  C          5.7470    0.2480    1.7540 C.2     1  UNL1        0.1650
     12  O          4.5610    2.0230    1.1390 O.2     1  UNL1       -0.4540
     13  O          4.6510    0.3800    2.5950 O.2     1  UNL1       -0.4540
     14  C          3.7450    1.3370    2.0530 C.3     1  UNL1        0.4680
@<TRIPOS>BOND
     1     3     2    1
     2     2     1    1
     3     2     4    2
     4     1     5    1
     5     5     6    1
     6     6     8    2
     7     6     7    1
     8     8    10    1
     9     7     9    2
    10    10    12    1
    11    10    11    2
    12    12    14    1
    13     9    11    1
    14    11    13    1
    15    14    13    1
