MODEL 1
REMARK VINA RESULT:      -7.5      0.000      0.000
REMARK SMILES CC(=O)CCc1ccc2c(c1)OCO2
REMARK SMILES IDX 4 1 2 2 1 3 3 4 5 5 6 6 7 7 11 8 8 9 10 10 9 11 12 12 14 13
REMARK SMILES IDX 13 14
REMARK H PARENT
REMARK Flexibility Score: inf
ROOT
ATOM      1  C   UNL     1       5.618   1.835   1.335  1.00  0.00     0.080 C 
ENDROOT
BRANCH   1   2
ATOM      2  C   UNL     1       5.143   0.640   2.061  1.00  0.00     0.130 C 
ATOM      3  C   UNL     1       6.064  -0.497   2.259  1.00  0.00     0.087 C 
ATOM      4  O   UNL     1       4.011   0.617   2.477  1.00  0.00    -0.300 OA
ENDBRANCH   1   2
BRANCH   1   5
ATOM      5  C   UNL     1       5.430   1.681  -0.160  1.00  0.00     0.043 C 
BRANCH   5   6
ATOM      6  C   UNL     1       6.560   0.956  -0.748  1.00  0.00    -0.044 A 
ATOM      7  C   UNL     1       7.849   1.416  -0.575  1.00  0.00     0.008 A 
ATOM      8  C   UNL     1       6.383  -0.199  -1.490  1.00  0.00     0.054 A 
ATOM      9  C   UNL     1       8.949   0.758  -1.119  1.00  0.00     0.051 A 
ATOM     10  C   UNL     1       7.464  -0.879  -2.046  1.00  0.00     0.166 A 
ATOM     11  C   UNL     1       8.740  -0.394  -1.855  1.00  0.00     0.165 A 
ATOM     12  O   UNL     1       7.591  -2.034  -2.817  1.00  0.00    -0.454 OA
ATOM     13  O   UNL     1       9.619  -1.248  -2.505  1.00  0.00    -0.454 OA
ATOM     14  C   UNL     1       8.889  -2.138  -3.345  1.00  0.00     0.468 C 
ENDBRANCH   5   6
ENDBRANCH   1   5
TORSDOF 3
ENDMDL
MODEL 2
REMARK VINA RESULT:      -7.3      2.057      2.626
REMARK SMILES CC(=O)CCc1ccc2c(c1)OCO2
REMARK SMILES IDX 4 1 2 2 1 3 3 4 5 5 6 6 7 7 11 8 8 9 10 10 9 11 12 12 14 13
REMARK SMILES IDX 13 14
REMARK H PARENT
REMARK Flexibility Score: inf
ROOT
ATOM      1  C   UNL     1       5.365  -0.029   1.964  1.00  0.00     0.080 C 
ENDROOT
BRANCH   1   2
ATOM      2  C   UNL     1       4.526   1.169   1.760  1.00  0.00     0.130 C 
ATOM      3  C   UNL     1       4.898   2.140   0.712  1.00  0.00     0.087 C 
ATOM      4  O   UNL     1       3.553   1.329   2.455  1.00  0.00    -0.300 OA
ENDBRANCH   1   2
BRANCH   1   5
ATOM      5  C   UNL     1       6.807   0.241   1.586  1.00  0.00     0.043 C 
BRANCH   5   6
ATOM      6  C   UNL     1       7.268  -0.728   0.588  1.00  0.00    -0.044 A 
ATOM      7  C   UNL     1       7.102  -0.475  -0.758  1.00  0.00     0.008 A 
ATOM      8  C   UNL     1       7.877  -1.917   0.948  1.00  0.00     0.054 A 
ATOM      9  C   UNL     1       7.525  -1.370  -1.737  1.00  0.00     0.051 A 
ATOM     10  C   UNL     1       8.310  -2.832  -0.009  1.00  0.00     0.166 A 
ATOM     11  C   UNL     1       8.130  -2.549  -1.347  1.00  0.00     0.165 A 
ATOM     12  O   UNL     1       8.939  -4.075   0.051  1.00  0.00    -0.454 OA
ATOM     13  O   UNL     1       8.644  -3.612  -2.076  1.00  0.00    -0.454 OA
ATOM     14  C   UNL     1       8.914  -4.706  -1.204  1.00  0.00     0.468 C 
ENDBRANCH   5   6
ENDBRANCH   1   5
TORSDOF 3
ENDMDL
MODEL 3
REMARK VINA RESULT:      -7.3      1.953      2.365
REMARK SMILES CC(=O)CCc1ccc2c(c1)OCO2
REMARK SMILES IDX 4 1 2 2 1 3 3 4 5 5 6 6 7 7 11 8 8 9 10 10 9 11 12 12 14 13
REMARK SMILES IDX 13 14
REMARK H PARENT
REMARK Flexibility Score: inf
ROOT
ATOM      1  C   UNL     1       5.734   1.263  -0.254  1.00  0.00     0.080 C 
ENDROOT
BRANCH   1   2
ATOM      2  C   UNL     1       5.097   1.218   1.077  1.00  0.00     0.130 C 
ATOM      3  C   UNL     1       5.303   0.033   1.935  1.00  0.00     0.087 C 
ATOM      4  O   UNL     1       4.421   2.150   1.437  1.00  0.00    -0.300 OA
ENDBRANCH   1   2
BRANCH   1   5
ATOM      5  C   UNL     1       7.236   1.099  -0.150  1.00  0.00     0.043 C 
BRANCH   5   6
ATOM      6  C   UNL     1       7.654  -0.185  -0.720  1.00  0.00    -0.044 A 
ATOM      7  C   UNL     1       7.737  -0.347  -2.087  1.00  0.00     0.008 A 
ATOM      8  C   UNL     1       7.976  -1.270   0.078  1.00  0.00     0.054 A 
ATOM      9  C   UNL     1       8.129  -1.550  -2.668  1.00  0.00     0.051 A 
ATOM     10  C   UNL     1       8.372  -2.486  -0.474  1.00  0.00     0.166 A 
ATOM     11  C   UNL     1       8.445  -2.616  -1.846  1.00  0.00     0.165 A 
ATOM     12  O   UNL     1       8.748  -3.718   0.060  1.00  0.00    -0.454 OA
ATOM     13  O   UNL     1       8.859  -3.910  -2.126  1.00  0.00    -0.454 OA
ATOM     14  C   UNL     1       8.793  -4.701  -0.942  1.00  0.00     0.468 C 
ENDBRANCH   5   6
ENDBRANCH   1   5
TORSDOF 3
ENDMDL
MODEL 4
REMARK VINA RESULT:      -7.1      1.972      2.557
REMARK SMILES CC(=O)CCc1ccc2c(c1)OCO2
REMARK SMILES IDX 4 1 2 2 1 3 3 4 5 5 6 6 7 7 11 8 8 9 10 10 9 11 12 12 14 13
REMARK SMILES IDX 13 14
REMARK H PARENT
REMARK Flexibility Score: inf
ROOT
ATOM      1  C   UNL     1       6.803   0.731   1.146  1.00  0.00     0.080 C 
ENDROOT
BRANCH   1   2
ATOM      2  C   UNL     1       5.408   1.141   1.402  1.00  0.00     0.130 C 
ATOM      3  C   UNL     1       4.780   2.150   0.525  1.00  0.00     0.087 C 
ATOM      4  O   UNL     1       4.808   0.643   2.322  1.00  0.00    -0.300 OA
ENDBRANCH   1   2
BRANCH   1   5
ATOM      5  C   UNL     1       7.156   0.871  -0.320  1.00  0.00     0.043 C 
BRANCH   5   6
ATOM      6  C   UNL     1       7.638  -0.405  -0.858  1.00  0.00    -0.044 A 
ATOM      7  C   UNL     1       7.817  -0.565  -2.216  1.00  0.00     0.008 A 
ATOM      8  C   UNL     1       7.926  -1.482  -0.039  1.00  0.00     0.054 A 
ATOM      9  C   UNL     1       8.271  -1.760  -2.767  1.00  0.00     0.051 A 
ATOM     10  C   UNL     1       8.382  -2.691  -0.561  1.00  0.00     0.166 A 
ATOM     11  C   UNL     1       8.551  -2.819  -1.924  1.00  0.00     0.165 A 
ATOM     12  O   UNL     1       8.744  -3.915  -0.001  1.00  0.00    -0.454 OA
ATOM     13  O   UNL     1       9.008  -4.105  -2.173  1.00  0.00    -0.454 OA
ATOM     14  C   UNL     1       8.877  -4.897  -0.996  1.00  0.00     0.468 C 
ENDBRANCH   5   6
ENDBRANCH   1   5
TORSDOF 3
ENDMDL
MODEL 5
REMARK VINA RESULT:      -7.0      1.205      5.193
REMARK SMILES CC(=O)CCc1ccc2c(c1)OCO2
REMARK SMILES IDX 4 1 2 2 1 3 3 4 5 5 6 6 7 7 11 8 8 9 10 10 9 11 12 12 14 13
REMARK SMILES IDX 13 14
REMARK H PARENT
REMARK Flexibility Score: inf
ROOT
ATOM      1  C   UNL     1       8.234   0.225  -2.583  1.00  0.00     0.080 C 
ENDROOT
BRANCH   1   2
ATOM      2  C   UNL     1       7.943  -1.217  -2.709  1.00  0.00     0.130 C 
ATOM      3  C   UNL     1       9.046  -2.151  -3.012  1.00  0.00     0.087 C 
ATOM      4  O   UNL     1       6.810  -1.603  -2.561  1.00  0.00    -0.300 OA
ENDBRANCH   1   2
BRANCH   1   5
ATOM      5  C   UNL     1       8.787   0.556  -1.212  1.00  0.00     0.043 C 
BRANCH   5   6
ATOM      6  C   UNL     1       7.734   0.463  -0.196  1.00  0.00    -0.044 A 
ATOM      7  C   UNL     1       7.754  -0.553   0.736  1.00  0.00     0.008 A 
ATOM      8  C   UNL     1       6.694   1.374  -0.133  1.00  0.00     0.054 A 
ATOM      9  C   UNL     1       6.773  -0.678   1.716  1.00  0.00     0.051 A 
ATOM     10  C   UNL     1       5.699   1.275   0.836  1.00  0.00     0.166 A 
ATOM     11  C   UNL     1       5.747   0.248   1.754  1.00  0.00     0.165 A 
ATOM     12  O   UNL     1       4.561   2.023   1.139  1.00  0.00    -0.454 OA
ATOM     13  O   UNL     1       4.651   0.380   2.595  1.00  0.00    -0.454 OA
ATOM     14  C   UNL     1       3.745   1.337   2.053  1.00  0.00     0.468 C 
ENDBRANCH   5   6
ENDBRANCH   1   5
TORSDOF 3
ENDMDL
