@<TRIPOS>MOLECULE
/home/cewinharhar/GITHUB/reincatalyze/data/processed/docking_pred/2023-May-31-1603_sub9_nm5_bs15_s42_ex16_mel10_mts1000_k50_ec05_g099_lra3e-4_lrc9e-3/bb509c9d750c31c787a0dfaad7ceec12964b61ea_ligand_9.pdbqt
 14 15 0 0 0
SMALL
GASTEIGER

@<TRIPOS>ATOM
      1  C          5.8470    0.3040    0.2350 C.3     1  UNL1        0.0800
      2  C          5.6360    0.0550    1.6750 C.2     1  UNL1        0.1300
      3  C          6.3920   -1.0260    2.3370 C.3     1  UNL1        0.0870
      4  O          4.8500    0.7410    2.2810 O.2     1  UNL1       -0.3000
      5  C          6.7490    1.5000    0.0110 C.3     1  UNL1        0.0430
      6  C          7.9360    1.4170    0.8670 C.2     1  UNL1       -0.0440
      7  C          8.0050    2.1500    2.0340 C.2     1  UNL1        0.0080
      8  C          9.0170    0.6160    0.5450 C.2     1  UNL1        0.0540
      9  C          9.1140    2.1000    2.8740 C.2     1  UNL1        0.0510
     10  C         10.1400    0.5450    1.3660 C.2     1  UNL1        0.1660
     11  C         10.1780    1.2900    2.5270 C.2     1  UNL1        0.1650
     12  O         11.3450   -0.1530    1.3050 O.2     1  UNL1       -0.4540
     13  O         11.3930    1.0390    3.1490 O.2     1  UNL1       -0.4540
     14  C         12.2540    0.3390    2.2560 C.3     1  UNL1        0.4680
@<TRIPOS>BOND
     1     5     1    1
     2     5     6    1
     3     1     2    1
     4     8     6    2
     5     8    10    1
     6     6     7    1
     7    12    10    1
     8    12    14    1
     9    10    11    2
    10     2     4    2
    11     2     3    1
    12     7     9    2
    13    14    13    1
    14    11     9    1
    15    11    13    1
