@<TRIPOS>MOLECULE
/home/cewinharhar/GITHUB/reincatalyze/data/processed/docking_pred/2023-May-31-1603_sub9_nm5_bs15_s42_ex16_mel10_mts1000_k50_ec05_g099_lra3e-4_lrc9e-3/bb509c9d750c31c787a0dfaad7ceec12964b61ea_ligand_9.pdbqt
 14 15 0 0 0
SMALL
GASTEIGER

@<TRIPOS>ATOM
      1  C          7.1030    1.7930   -0.0890 C.3     1  UNL1        0.0800
      2  C          7.1250    1.7230    1.3860 C.2     1  UNL1        0.1300
      3  C          8.4090    1.8920    2.0970 C.3     1  UNL1        0.0870
      4  O          6.0940    1.5300    1.9810 O.2     1  UNL1       -0.3000
      5  C          6.1760    0.7480   -0.6740 C.3     1  UNL1        0.0430
      6  C          6.9310   -0.4400   -1.0830 C.2     1  UNL1       -0.0440
      7  C          7.2650   -0.6310   -2.4080 C.2     1  UNL1        0.0080
      8  C          7.3320   -1.4020   -0.1730 C.2     1  UNL1        0.0540
      9  C          7.9800   -1.7460   -2.8370 C.2     1  UNL1        0.0510
     10  C          8.0490   -2.5270   -0.5730 C.2     1  UNL1        0.1660
     11  C          8.3670   -2.6900   -1.9050 C.2     1  UNL1        0.1650
     12  O          8.5740   -3.6330    0.0960 O.2     1  UNL1       -0.4540
     13  O          9.0730   -3.8780   -2.0290 O.2     1  UNL1       -0.4540
     14  C          8.9780   -4.6200   -0.8160 C.3     1  UNL1        0.4680
@<TRIPOS>BOND
     1     9     7    1
     2     9    11    2
     3     7     6    2
     4    13    11    1
     5    13    14    1
     6    11    10    1
     7     6     5    1
     8     6     8    1
     9    14    12    1
    10     5     1    1
    11    10     8    2
    12    10    12    1
    13     1     2    1
    14     2     4    2
    15     2     3    1
