@<TRIPOS>MOLECULE
/home/cewinharhar/GITHUB/reincatalyze/data/processed/docking_pred/2023-May-31-1603_sub9_nm5_bs15_s42_ex16_mel10_mts1000_k50_ec05_g099_lra3e-4_lrc9e-3/bb509c9d750c31c787a0dfaad7ceec12964b61ea_ligand_9.pdbqt
 14 15 0 0 0
SMALL
GASTEIGER

@<TRIPOS>ATOM
      1  C          6.5050    0.2240   -0.7940 C.3     1  UNL1        0.0800
      2  C          7.1480   -0.4530   -1.9380 C.2     1  UNL1        0.1300
      3  C          8.3050    0.1860   -2.5960 C.3     1  UNL1        0.0870
      4  O          6.7150   -1.5150   -2.3110 O.2     1  UNL1       -0.3000
      5  C          6.8150   -0.4840    0.5080 C.3     1  UNL1        0.0430
      6  C          7.9420    0.1600    1.1890 C.2     1  UNL1       -0.0440
      7  C          7.7640    1.3560    1.8540 C.2     1  UNL1        0.0080
      8  C          9.2100   -0.3940    1.1910 C.2     1  UNL1        0.0540
      9  C          8.8080    2.0000    2.5110 C.2     1  UNL1        0.0510
     10  C         10.2740    0.2270    1.8410 C.2     1  UNL1        0.1660
     11  C         10.0630    1.4220    2.4970 C.2     1  UNL1        0.1650
     12  O         11.6230   -0.0840    2.0100 O.2     1  UNL1       -0.4540
     13  O         11.2720    1.8190    3.0500 O.2     1  UNL1       -0.4540
     14  C         12.3260    1.0180    2.5240 C.3     1  UNL1        0.4680
@<TRIPOS>BOND
     1     3     2    1
     2     4     2    2
     3     2     1    1
     4     1     5    1
     5     5     6    1
     6     6     8    2
     7     6     7    1
     8     8    10    1
     9    10    12    1
    10    10    11    2
    11     7     9    2
    12    12    14    1
    13    11     9    1
    14    11    13    1
    15    14    13    1
