@<TRIPOS>MOLECULE
/home/cewinharhar/GITHUB/reincatalyze/data/processed/docking_pred/2023-May-31-1603_sub9_nm5_bs15_s42_ex16_mel10_mts1000_k50_ec05_g099_lra3e-4_lrc9e-3/bb509c9d750c31c787a0dfaad7ceec12964b61ea_ligand_9.pdbqt
 14 15 0 0 0
SMALL
GASTEIGER

@<TRIPOS>ATOM
      1  C          6.2880    1.2310    1.0370 C.3     1  UNL1        0.0800
      2  C          5.5870    0.3690    2.0100 C.2     1  UNL1        0.1300
      3  C          6.2820   -0.8150    2.5540 C.3     1  UNL1        0.0870
      4  O          4.4620    0.6490    2.3390 O.2     1  UNL1       -0.3000
      5  C          5.8000    0.9760   -0.3740 C.3     1  UNL1        0.0430
      6  C          6.7210    0.0840   -1.0840 C.2     1  UNL1       -0.0440
      7  C          7.2880    0.4760   -2.2790 C.2     1  UNL1        0.0080
      8  C          7.0530   -1.1670   -0.5940 C.2     1  UNL1        0.0540
      9  C          8.1660   -0.3420   -2.9850 C.2     1  UNL1        0.0510
     10  C          7.9280   -2.0070   -1.2770 C.2     1  UNL1        0.1660
     11  C          8.4790   -1.5860   -2.4700 C.2     1  UNL1        0.1650
     12  O          8.4350   -3.2840   -1.0370 O.2     1  UNL1       -0.4540
     13  O          9.3040   -2.6000   -2.9360 O.2     1  UNL1       -0.4540
     14  C          9.0770   -3.7870   -2.1800 C.3     1  UNL1        0.4680
@<TRIPOS>BOND
     1     9    11    2
     2     9     7    1
     3    13    11    1
     4    13    14    1
     5    11    10    1
     6     7     6    2
     7    14    12    1
     8    10    12    1
     9    10     8    2
    10     6     8    1
    11     6     5    1
    12     5     1    1
    13     1     2    1
    14     2     4    2
    15     2     3    1
