MODEL 1
REMARK VINA RESULT:      -7.2      0.000      0.000
REMARK SMILES CC(=O)CCc1ccc2c(c1)OCO2
REMARK SMILES IDX 4 1 2 2 1 3 3 4 5 5 6 6 7 7 11 8 8 9 10 10 9 11 12 12 14 13
REMARK SMILES IDX 13 14
REMARK H PARENT
REMARK Flexibility Score: inf
ROOT
ATOM      1  C   UNL     1       9.709   1.306   2.622  1.00  0.00     0.080 C 
ENDROOT
BRANCH   1   2
ATOM      2  C   UNL     1      11.141   0.943   2.638  1.00  0.00     0.130 C 
ATOM      3  C   UNL     1      12.075   1.731   3.466  1.00  0.00     0.087 C 
ATOM      4  O   UNL     1      11.517   0.009   1.974  1.00  0.00    -0.300 OA
ENDBRANCH   1   2
BRANCH   1   5
ATOM      5  C   UNL     1       9.346   2.051   1.355  1.00  0.00     0.043 C 
BRANCH   5   6
ATOM      6  C   UNL     1       8.629   1.171   0.427  1.00  0.00    -0.044 A 
ATOM      7  C   UNL     1       7.271   0.976   0.562  1.00  0.00     0.008 A 
ATOM      8  C   UNL     1       9.275   0.512  -0.604  1.00  0.00     0.054 A 
ATOM      9  C   UNL     1       6.553   0.148  -0.297  1.00  0.00     0.051 A 
ATOM     10  C   UNL     1       8.584  -0.323  -1.479  1.00  0.00     0.166 A 
ATOM     11  C   UNL     1       7.226  -0.498  -1.317  1.00  0.00     0.165 A 
ATOM     12  O   UNL     1       8.954  -1.097  -2.578  1.00  0.00    -0.454 OA
ATOM     13  O   UNL     1       6.791  -1.366  -2.308  1.00  0.00    -0.454 OA
ATOM     14  C   UNL     1       7.915  -1.966  -2.947  1.00  0.00     0.468 C 
ENDBRANCH   5   6
ENDBRANCH   1   5
TORSDOF 3
ENDMDL
MODEL 2
REMARK VINA RESULT:      -6.9      1.302      5.238
REMARK SMILES CC(=O)CCc1ccc2c(c1)OCO2
REMARK SMILES IDX 4 1 2 2 1 3 3 4 5 5 6 6 7 7 11 8 8 9 10 10 9 11 12 12 14 13
REMARK SMILES IDX 13 14
REMARK H PARENT
REMARK Flexibility Score: inf
ROOT
ATOM      1  C   UNL     1       6.505   0.224  -0.794  1.00  0.00     0.080 C 
ENDROOT
BRANCH   1   2
ATOM      2  C   UNL     1       7.148  -0.453  -1.938  1.00  0.00     0.130 C 
ATOM      3  C   UNL     1       8.305   0.186  -2.596  1.00  0.00     0.087 C 
ATOM      4  O   UNL     1       6.715  -1.515  -2.311  1.00  0.00    -0.300 OA
ENDBRANCH   1   2
BRANCH   1   5
ATOM      5  C   UNL     1       6.815  -0.484   0.508  1.00  0.00     0.043 C 
BRANCH   5   6
ATOM      6  C   UNL     1       7.942   0.160   1.189  1.00  0.00    -0.044 A 
ATOM      7  C   UNL     1       7.764   1.356   1.854  1.00  0.00     0.008 A 
ATOM      8  C   UNL     1       9.210  -0.394   1.191  1.00  0.00     0.054 A 
ATOM      9  C   UNL     1       8.808   2.000   2.511  1.00  0.00     0.051 A 
ATOM     10  C   UNL     1      10.274   0.227   1.841  1.00  0.00     0.166 A 
ATOM     11  C   UNL     1      10.063   1.422   2.497  1.00  0.00     0.165 A 
ATOM     12  O   UNL     1      11.623  -0.084   2.010  1.00  0.00    -0.454 OA
ATOM     13  O   UNL     1      11.272   1.819   3.050  1.00  0.00    -0.454 OA
ATOM     14  C   UNL     1      12.326   1.018   2.524  1.00  0.00     0.468 C 
ENDBRANCH   5   6
ENDBRANCH   1   5
TORSDOF 3
ENDMDL
MODEL 3
REMARK VINA RESULT:      -6.8      3.256      3.921
REMARK SMILES CC(=O)CCc1ccc2c(c1)OCO2
REMARK SMILES IDX 4 1 2 2 1 3 3 4 5 5 6 6 7 7 11 8 8 9 10 10 9 11 12 12 14 13
REMARK SMILES IDX 13 14
REMARK H PARENT
REMARK Flexibility Score: inf
ROOT
ATOM      1  C   UNL     1       6.288   1.231   1.037  1.00  0.00     0.080 C 
ENDROOT
BRANCH   1   2
ATOM      2  C   UNL     1       5.587   0.369   2.010  1.00  0.00     0.130 C 
ATOM      3  C   UNL     1       6.282  -0.815   2.554  1.00  0.00     0.087 C 
ATOM      4  O   UNL     1       4.462   0.649   2.339  1.00  0.00    -0.300 OA
ENDBRANCH   1   2
BRANCH   1   5
ATOM      5  C   UNL     1       5.800   0.976  -0.374  1.00  0.00     0.043 C 
BRANCH   5   6
ATOM      6  C   UNL     1       6.721   0.084  -1.084  1.00  0.00    -0.044 A 
ATOM      7  C   UNL     1       7.288   0.476  -2.279  1.00  0.00     0.008 A 
ATOM      8  C   UNL     1       7.053  -1.167  -0.594  1.00  0.00     0.054 A 
ATOM      9  C   UNL     1       8.166  -0.342  -2.985  1.00  0.00     0.051 A 
ATOM     10  C   UNL     1       7.928  -2.007  -1.277  1.00  0.00     0.166 A 
ATOM     11  C   UNL     1       8.479  -1.586  -2.470  1.00  0.00     0.165 A 
ATOM     12  O   UNL     1       8.435  -3.284  -1.037  1.00  0.00    -0.454 OA
ATOM     13  O   UNL     1       9.304  -2.600  -2.936  1.00  0.00    -0.454 OA
ATOM     14  C   UNL     1       9.077  -3.787  -2.180  1.00  0.00     0.468 C 
ENDBRANCH   5   6
ENDBRANCH   1   5
TORSDOF 3
ENDMDL
MODEL 4
REMARK VINA RESULT:      -6.7      2.495      3.634
REMARK SMILES CC(=O)CCc1ccc2c(c1)OCO2
REMARK SMILES IDX 4 1 2 2 1 3 3 4 5 5 6 6 7 7 11 8 8 9 10 10 9 11 12 12 14 13
REMARK SMILES IDX 13 14
REMARK H PARENT
REMARK Flexibility Score: inf
ROOT
ATOM      1  C   UNL     1       7.103   1.793  -0.089  1.00  0.00     0.080 C 
ENDROOT
BRANCH   1   2
ATOM      2  C   UNL     1       7.125   1.723   1.386  1.00  0.00     0.130 C 
ATOM      3  C   UNL     1       8.409   1.892   2.097  1.00  0.00     0.087 C 
ATOM      4  O   UNL     1       6.094   1.530   1.981  1.00  0.00    -0.300 OA
ENDBRANCH   1   2
BRANCH   1   5
ATOM      5  C   UNL     1       6.176   0.748  -0.674  1.00  0.00     0.043 C 
BRANCH   5   6
ATOM      6  C   UNL     1       6.931  -0.440  -1.083  1.00  0.00    -0.044 A 
ATOM      7  C   UNL     1       7.265  -0.631  -2.408  1.00  0.00     0.008 A 
ATOM      8  C   UNL     1       7.332  -1.402  -0.173  1.00  0.00     0.054 A 
ATOM      9  C   UNL     1       7.980  -1.746  -2.837  1.00  0.00     0.051 A 
ATOM     10  C   UNL     1       8.049  -2.527  -0.573  1.00  0.00     0.166 A 
ATOM     11  C   UNL     1       8.367  -2.690  -1.905  1.00  0.00     0.165 A 
ATOM     12  O   UNL     1       8.574  -3.633   0.096  1.00  0.00    -0.454 OA
ATOM     13  O   UNL     1       9.073  -3.878  -2.029  1.00  0.00    -0.454 OA
ATOM     14  C   UNL     1       8.978  -4.620  -0.816  1.00  0.00     0.468 C 
ENDBRANCH   5   6
ENDBRANCH   1   5
TORSDOF 3
ENDMDL
MODEL 5
REMARK VINA RESULT:      -6.5      2.557      4.950
REMARK SMILES CC(=O)CCc1ccc2c(c1)OCO2
REMARK SMILES IDX 4 1 2 2 1 3 3 4 5 5 6 6 7 7 11 8 8 9 10 10 9 11 12 12 14 13
REMARK SMILES IDX 13 14
REMARK H PARENT
REMARK Flexibility Score: inf
ROOT
ATOM      1  C   UNL     1       5.847   0.304   0.235  1.00  0.00     0.080 C 
ENDROOT
BRANCH   1   2
ATOM      2  C   UNL     1       5.636   0.055   1.675  1.00  0.00     0.130 C 
ATOM      3  C   UNL     1       6.392  -1.026   2.337  1.00  0.00     0.087 C 
ATOM      4  O   UNL     1       4.850   0.741   2.281  1.00  0.00    -0.300 OA
ENDBRANCH   1   2
BRANCH   1   5
ATOM      5  C   UNL     1       6.749   1.500   0.011  1.00  0.00     0.043 C 
BRANCH   5   6
ATOM      6  C   UNL     1       7.936   1.417   0.867  1.00  0.00    -0.044 A 
ATOM      7  C   UNL     1       8.005   2.150   2.034  1.00  0.00     0.008 A 
ATOM      8  C   UNL     1       9.017   0.616   0.545  1.00  0.00     0.054 A 
ATOM      9  C   UNL     1       9.114   2.100   2.874  1.00  0.00     0.051 A 
ATOM     10  C   UNL     1      10.140   0.545   1.366  1.00  0.00     0.166 A 
ATOM     11  C   UNL     1      10.178   1.290   2.527  1.00  0.00     0.165 A 
ATOM     12  O   UNL     1      11.345  -0.153   1.305  1.00  0.00    -0.454 OA
ATOM     13  O   UNL     1      11.393   1.039   3.149  1.00  0.00    -0.454 OA
ATOM     14  C   UNL     1      12.254   0.339   2.256  1.00  0.00     0.468 C 
ENDBRANCH   5   6
ENDBRANCH   1   5
TORSDOF 3
ENDMDL
