@<TRIPOS>MOLECULE
/home/cewinharhar/GITHUB/reincatalyze/data/processed/docking_pred/2023-May-31-1603_sub9_nm5_bs15_s42_ex16_mel10_mts1000_k50_ec05_g099_lra3e-4_lrc9e-3/bb8285001221c2ec88d34c7e342a921234d5c761_ligand_9.pdbqt
 14 15 0 0 0
SMALL
GASTEIGER

@<TRIPOS>ATOM
      1  C          6.8370    0.9900    1.2520 C.3     1  UNL1        0.0800
      2  C          5.3830    1.1770    1.4240 C.2     1  UNL1        0.1300
      3  C          4.6750    2.1490    0.5660 C.3     1  UNL1        0.0870
      4  O          4.8020    0.5310    2.2610 O.2     1  UNL1       -0.3000
      5  C          7.2360    1.0980   -0.2060 C.3     1  UNL1        0.0430
      6  C          7.6400   -0.2110   -0.7270 C.2     1  UNL1       -0.0440
      7  C          7.6660   -0.4410   -2.0870 C.2     1  UNL1        0.0080
      8  C          8.0060   -1.2520    0.1090 C.2     1  UNL1        0.0540
      9  C          8.0420   -1.6700   -2.6230 C.2     1  UNL1        0.0510
     10  C          8.3880   -2.4910   -0.3980 C.2     1  UNL1        0.1660
     11  C          8.4030   -2.6900   -1.7630 C.2     1  UNL1        0.1650
     12  O          8.7970   -3.6930    0.1810 O.2     1  UNL1       -0.4540
     13  O          8.8150   -3.9950   -1.9950 O.2     1  UNL1       -0.4540
     14  C          8.8080   -4.7250   -0.7720 C.3     1  UNL1        0.4680
@<TRIPOS>BOND
     1     9     7    1
     2     9    11    2
     3     7     6    2
     4    13    11    1
     5    13    14    1
     6    11    10    1
     7    14    12    1
     8     6     5    1
     9     6     8    1
    10    10     8    2
    11    10    12    1
    12     5     1    1
    13     3     2    1
    14     1     2    1
    15     2     4    2
