MODEL 1
REMARK VINA RESULT:      -7.5      0.000      0.000
REMARK SMILES CC(=O)CCc1ccc2c(c1)OCO2
REMARK SMILES IDX 4 1 2 2 1 3 3 4 5 5 6 6 7 7 11 8 8 9 10 10 9 11 12 12 14 13
REMARK SMILES IDX 13 14
REMARK H PARENT
REMARK Flexibility Score: inf
ROOT
ATOM      1  C   UNL     1       5.633   1.823   1.344  1.00  0.00     0.080 C 
ENDROOT
BRANCH   1   2
ATOM      2  C   UNL     1       5.135   0.633   2.063  1.00  0.00     0.130 C 
ATOM      3  C   UNL     1       6.035  -0.522   2.254  1.00  0.00     0.087 C 
ATOM      4  O   UNL     1       4.003   0.629   2.479  1.00  0.00    -0.300 OA
ENDBRANCH   1   2
BRANCH   1   5
ATOM      5  C   UNL     1       5.448   1.678  -0.152  1.00  0.00     0.043 C 
BRANCH   5   6
ATOM      6  C   UNL     1       6.577   0.952  -0.742  1.00  0.00    -0.044 A 
ATOM      7  C   UNL     1       7.865   1.420  -0.584  1.00  0.00     0.008 A 
ATOM      8  C   UNL     1       6.399  -0.210  -1.472  1.00  0.00     0.054 A 
ATOM      9  C   UNL     1       8.964   0.761  -1.129  1.00  0.00     0.051 A 
ATOM     10  C   UNL     1       7.479  -0.891  -2.029  1.00  0.00     0.166 A 
ATOM     11  C   UNL     1       8.755  -0.398  -1.852  1.00  0.00     0.165 A 
ATOM     12  O   UNL     1       7.606  -2.053  -2.790  1.00  0.00    -0.454 OA
ATOM     13  O   UNL     1       9.632  -1.255  -2.501  1.00  0.00    -0.454 OA
ATOM     14  C   UNL     1       8.900  -2.156  -3.327  1.00  0.00     0.468 C 
ENDBRANCH   5   6
ENDBRANCH   1   5
TORSDOF 3
ENDMDL
MODEL 2
REMARK VINA RESULT:      -7.3      1.936      2.358
REMARK SMILES CC(=O)CCc1ccc2c(c1)OCO2
REMARK SMILES IDX 4 1 2 2 1 3 3 4 5 5 6 6 7 7 11 8 8 9 10 10 9 11 12 12 14 13
REMARK SMILES IDX 13 14
REMARK H PARENT
REMARK Flexibility Score: inf
ROOT
ATOM      1  C   UNL     1       5.673   1.236  -0.233  1.00  0.00     0.080 C 
ENDROOT
BRANCH   1   2
ATOM      2  C   UNL     1       5.046   1.231   1.104  1.00  0.00     0.130 C 
ATOM      3  C   UNL     1       5.308   0.102   2.019  1.00  0.00     0.087 C 
ATOM      4  O   UNL     1       4.331   2.149   1.421  1.00  0.00    -0.300 OA
ENDBRANCH   1   2
BRANCH   1   5
ATOM      5  C   UNL     1       7.177   1.080  -0.134  1.00  0.00     0.043 C 
BRANCH   5   6
ATOM      6  C   UNL     1       7.600  -0.202  -0.705  1.00  0.00    -0.044 A 
ATOM      7  C   UNL     1       7.642  -0.375  -2.073  1.00  0.00     0.008 A 
ATOM      8  C   UNL     1       7.968  -1.272   0.091  1.00  0.00     0.054 A 
ATOM      9  C   UNL     1       8.037  -1.577  -2.655  1.00  0.00     0.051 A 
ATOM     10  C   UNL     1       8.368  -2.486  -0.462  1.00  0.00     0.166 A 
ATOM     11  C   UNL     1       8.399  -2.628  -1.834  1.00  0.00     0.165 A 
ATOM     12  O   UNL     1       8.784  -3.706   0.071  1.00  0.00    -0.454 OA
ATOM     13  O   UNL     1       8.828  -3.917  -2.115  1.00  0.00    -0.454 OA
ATOM     14  C   UNL     1       8.815  -4.698  -0.923  1.00  0.00     0.468 C 
ENDBRANCH   5   6
ENDBRANCH   1   5
TORSDOF 3
ENDMDL
MODEL 3
REMARK VINA RESULT:      -7.3      2.047      2.617
REMARK SMILES CC(=O)CCc1ccc2c(c1)OCO2
REMARK SMILES IDX 4 1 2 2 1 3 3 4 5 5 6 6 7 7 11 8 8 9 10 10 9 11 12 12 14 13
REMARK SMILES IDX 13 14
REMARK H PARENT
REMARK Flexibility Score: inf
ROOT
ATOM      1  C   UNL     1       5.379  -0.014   1.984  1.00  0.00     0.080 C 
ENDROOT
BRANCH   1   2
ATOM      2  C   UNL     1       4.522   1.168   1.763  1.00  0.00     0.130 C 
ATOM      3  C   UNL     1       4.885   2.133   0.705  1.00  0.00     0.087 C 
ATOM      4  O   UNL     1       3.544   1.322   2.451  1.00  0.00    -0.300 OA
ENDBRANCH   1   2
BRANCH   1   5
ATOM      5  C   UNL     1       6.812   0.264   1.583  1.00  0.00     0.043 C 
BRANCH   5   6
ATOM      6  C   UNL     1       7.268  -0.714   0.590  1.00  0.00    -0.044 A 
ATOM      7  C   UNL     1       7.089  -0.473  -0.757  1.00  0.00     0.008 A 
ATOM      8  C   UNL     1       7.884  -1.897   0.956  1.00  0.00     0.054 A 
ATOM      9  C   UNL     1       7.506  -1.376  -1.731  1.00  0.00     0.051 A 
ATOM     10  C   UNL     1       8.312  -2.819   0.004  1.00  0.00     0.166 A 
ATOM     11  C   UNL     1       8.119  -2.549  -1.335  1.00  0.00     0.165 A 
ATOM     12  O   UNL     1       8.945  -4.060   0.070  1.00  0.00    -0.454 OA
ATOM     13  O   UNL     1       8.630  -3.617  -2.059  1.00  0.00    -0.454 OA
ATOM     14  C   UNL     1       8.911  -4.702  -1.179  1.00  0.00     0.468 C 
ENDBRANCH   5   6
ENDBRANCH   1   5
TORSDOF 3
ENDMDL
MODEL 4
REMARK VINA RESULT:      -7.0      1.980      2.512
REMARK SMILES CC(=O)CCc1ccc2c(c1)OCO2
REMARK SMILES IDX 4 1 2 2 1 3 3 4 5 5 6 6 7 7 11 8 8 9 10 10 9 11 12 12 14 13
REMARK SMILES IDX 13 14
REMARK H PARENT
REMARK Flexibility Score: inf
ROOT
ATOM      1  C   UNL     1       6.837   0.990   1.252  1.00  0.00     0.080 C 
ENDROOT
BRANCH   1   2
ATOM      2  C   UNL     1       5.383   1.177   1.424  1.00  0.00     0.130 C 
ATOM      3  C   UNL     1       4.675   2.149   0.566  1.00  0.00     0.087 C 
ATOM      4  O   UNL     1       4.802   0.531   2.261  1.00  0.00    -0.300 OA
ENDBRANCH   1   2
BRANCH   1   5
ATOM      5  C   UNL     1       7.236   1.098  -0.206  1.00  0.00     0.043 C 
BRANCH   5   6
ATOM      6  C   UNL     1       7.640  -0.211  -0.727  1.00  0.00    -0.044 A 
ATOM      7  C   UNL     1       7.666  -0.441  -2.087  1.00  0.00     0.008 A 
ATOM      8  C   UNL     1       8.006  -1.252   0.109  1.00  0.00     0.054 A 
ATOM      9  C   UNL     1       8.042  -1.670  -2.623  1.00  0.00     0.051 A 
ATOM     10  C   UNL     1       8.388  -2.491  -0.398  1.00  0.00     0.166 A 
ATOM     11  C   UNL     1       8.403  -2.690  -1.763  1.00  0.00     0.165 A 
ATOM     12  O   UNL     1       8.797  -3.693   0.181  1.00  0.00    -0.454 OA
ATOM     13  O   UNL     1       8.815  -3.995  -1.995  1.00  0.00    -0.454 OA
ATOM     14  C   UNL     1       8.808  -4.725  -0.772  1.00  0.00     0.468 C 
ENDBRANCH   5   6
ENDBRANCH   1   5
TORSDOF 3
ENDMDL
MODEL 5
REMARK VINA RESULT:      -7.0      1.208      5.181
REMARK SMILES CC(=O)CCc1ccc2c(c1)OCO2
REMARK SMILES IDX 4 1 2 2 1 3 3 4 5 5 6 6 7 7 11 8 8 9 10 10 9 11 12 12 14 13
REMARK SMILES IDX 13 14
REMARK H PARENT
REMARK Flexibility Score: inf
ROOT
ATOM      1  C   UNL     1       8.289   0.192  -2.640  1.00  0.00     0.080 C 
ENDROOT
BRANCH   1   2
ATOM      2  C   UNL     1       8.001  -1.253  -2.741  1.00  0.00     0.130 C 
ATOM      3  C   UNL     1       9.108  -2.191  -3.014  1.00  0.00     0.087 C 
ATOM      4  O   UNL     1       6.866  -1.637  -2.598  1.00  0.00    -0.300 OA
ENDBRANCH   1   2
BRANCH   1   5
ATOM      5  C   UNL     1       8.850   0.545  -1.278  1.00  0.00     0.043 C 
BRANCH   5   6
ATOM      6  C   UNL     1       7.807   0.456  -0.252  1.00  0.00    -0.044 A 
ATOM      7  C   UNL     1       7.845  -0.547   0.695  1.00  0.00     0.008 A 
ATOM      8  C   UNL     1       6.759   1.357  -0.193  1.00  0.00     0.054 A 
ATOM      9  C   UNL     1       6.874  -0.667   1.685  1.00  0.00     0.051 A 
ATOM     10  C   UNL     1       5.772   1.263   0.786  1.00  0.00     0.166 A 
ATOM     11  C   UNL     1       5.839   0.249   1.719  1.00  0.00     0.165 A 
ATOM     12  O   UNL     1       4.630   2.003   1.088  1.00  0.00    -0.454 OA
ATOM     13  O   UNL     1       4.749   0.383   2.566  1.00  0.00    -0.454 OA
ATOM     14  C   UNL     1       3.828   1.322   2.019  1.00  0.00     0.468 C 
ENDBRANCH   5   6
ENDBRANCH   1   5
TORSDOF 3
ENDMDL
