@<TRIPOS>MOLECULE
/home/cewinharhar/GITHUB/reincatalyze/data/processed/docking_pred/2023-May-31-1603_sub9_nm5_bs15_s42_ex16_mel10_mts1000_k50_ec05_g099_lra3e-4_lrc9e-3/bb8285001221c2ec88d34c7e342a921234d5c761_ligand_9.pdbqt
 14 15 0 0 0
SMALL
GASTEIGER

@<TRIPOS>ATOM
      1  C          8.2890    0.1920   -2.6400 C.3     1  UNL1        0.0800
      2  C          8.0010   -1.2530   -2.7410 C.2     1  UNL1        0.1300
      3  C          9.1080   -2.1910   -3.0140 C.3     1  UNL1        0.0870
      4  O          6.8660   -1.6370   -2.5980 O.2     1  UNL1       -0.3000
      5  C          8.8500    0.5450   -1.2780 C.3     1  UNL1        0.0430
      6  C          7.8070    0.4560   -0.2520 C.2     1  UNL1       -0.0440
      7  C          7.8450   -0.5470    0.6950 C.2     1  UNL1        0.0080
      8  C          6.7590    1.3570   -0.1930 C.2     1  UNL1        0.0540
      9  C          6.8740   -0.6670    1.6850 C.2     1  UNL1        0.0510
     10  C          5.7720    1.2630    0.7860 C.2     1  UNL1        0.1660
     11  C          5.8390    0.2490    1.7190 C.2     1  UNL1        0.1650
     12  O          4.6300    2.0030    1.0880 O.2     1  UNL1       -0.4540
     13  O          4.7490    0.3830    2.5660 O.2     1  UNL1       -0.4540
     14  C          3.8280    1.3220    2.0190 C.3     1  UNL1        0.4680
@<TRIPOS>BOND
     1     3     2    1
     2     2     1    1
     3     2     4    2
     4     1     5    1
     5     5     6    1
     6     6     8    2
     7     6     7    1
     8     8    10    1
     9     7     9    2
    10    10    12    1
    11    10    11    2
    12    12    14    1
    13     9    11    1
    14    11    13    1
    15    14    13    1
