@<TRIPOS>MOLECULE
/home/cewinharhar/GITHUB/reincatalyze/data/processed/docking_pred/2023-May-31-1603_sub9_nm5_bs15_s42_ex16_mel10_mts1000_k50_ec05_g099_lra3e-4_lrc9e-3/bdfc35a41e3d78d3bf59a6b88613069133e00868_ligand_9.pdbqt
 14 15 0 0 0
SMALL
GASTEIGER

@<TRIPOS>ATOM
      1  C          5.5990    1.1830   -0.2690 C.3     1  UNL1        0.0800
      2  C          5.0850    1.2010    1.1150 C.2     1  UNL1        0.1300
      3  C          5.3790    0.0620    2.0080 C.3     1  UNL1        0.0870
      4  O          4.4360    2.1470    1.4890 O.2     1  UNL1       -0.3000
      5  C          7.1120    1.1120   -0.2920 C.3     1  UNL1        0.0430
      6  C          7.5590   -0.1580   -0.8710 C.2     1  UNL1       -0.0440
      7  C          7.6100   -0.3200   -2.2400 C.2     1  UNL1        0.0080
      8  C          7.9400   -1.2290   -0.0810 C.2     1  UNL1        0.0540
      9  C          8.0280   -1.5100   -2.8290 C.2     1  UNL1        0.0510
     10  C          8.3630   -2.4320   -0.6420 C.2     1  UNL1        0.1660
     11  C          8.4030   -2.5620   -2.0150 C.2     1  UNL1        0.1650
     12  O          8.7950   -3.6490   -0.1170 O.2     1  UNL1       -0.4540
     13  O          8.8530   -3.8420   -2.3040 O.2     1  UNL1       -0.4540
     14  C          8.8470   -4.6320   -1.1180 C.3     1  UNL1        0.4680
@<TRIPOS>BOND
     1     9     7    1
     2     9    11    2
     3    13    11    1
     4    13    14    1
     5     7     6    2
     6    11    10    1
     7    14    12    1
     8     6     5    1
     9     6     8    1
    10    10    12    1
    11    10     8    2
    12     5     1    1
    13     1     2    1
    14     2     4    2
    15     2     3    1
