@<TRIPOS>MOLECULE
/home/cewinharhar/GITHUB/reincatalyze/data/processed/docking_pred/2023-May-31-1603_sub9_nm5_bs15_s42_ex16_mel10_mts1000_k50_ec05_g099_lra3e-4_lrc9e-3/bdfc35a41e3d78d3bf59a6b88613069133e00868_ligand_9.pdbqt
 14 15 0 0 0
SMALL
GASTEIGER

@<TRIPOS>ATOM
      1  C          5.4020    0.0040    1.9950 C.3     1  UNL1        0.0800
      2  C          4.5480    1.1840    1.7520 C.2     1  UNL1        0.1300
      3  C          4.9240    2.1400    0.6910 C.3     1  UNL1        0.0870
      4  O          3.5600    1.3420    2.4250 O.2     1  UNL1       -0.3000
      5  C          6.8380    0.2750    1.5940 C.3     1  UNL1        0.0430
      6  C          7.2900   -0.7060    0.6040 C.2     1  UNL1       -0.0440
      7  C          7.1170   -0.4660   -0.7440 C.2     1  UNL1        0.0080
      8  C          7.8980   -1.8940    0.9730 C.2     1  UNL1        0.0540
      9  C          7.5310   -1.3730   -1.7160 C.2     1  UNL1        0.0510
     10  C          8.3230   -2.8190    0.0230 C.2     1  UNL1        0.1660
     11  C          8.1350   -2.5500   -1.3160 C.2     1  UNL1        0.1650
     12  O          8.9480   -4.0640    0.0920 O.2     1  UNL1       -0.4540
     13  O          8.6420   -3.6210   -2.0380 O.2     1  UNL1       -0.4540
     14  C          8.9140   -4.7070   -1.1560 C.3     1  UNL1        0.4680
@<TRIPOS>BOND
     1    13    11    1
     2    13    14    1
     3     9    11    2
     4     9     7    1
     5    11    10    1
     6    14    12    1
     7     7     6    2
     8    10    12    1
     9    10     8    2
    10     6     8    1
    11     6     5    1
    12     3     2    1
    13     5     1    1
    14     2     1    1
    15     2     4    2
