@<TRIPOS>MOLECULE
/home/cewinharhar/GITHUB/reincatalyze/data/processed/docking_pred/2023-May-31-1603_sub9_nm5_bs15_s42_ex16_mel10_mts1000_k50_ec05_g099_lra3e-4_lrc9e-3/bdfc35a41e3d78d3bf59a6b88613069133e00868_ligand_9.pdbqt
 14 15 0 0 0
SMALL
GASTEIGER

@<TRIPOS>ATOM
      1  C          5.7370    1.7900    1.4450 C.3     1  UNL1        0.0800
      2  C          5.2140    0.5740    2.0990 C.2     1  UNL1        0.1300
      3  C          6.1030   -0.5950    2.2630 C.3     1  UNL1        0.0870
      4  O          4.0720    0.5590    2.4870 O.2     1  UNL1       -0.3000
      5  C          5.5430    1.7330   -0.0560 C.3     1  UNL1        0.0430
      6  C          6.6370    0.9890   -0.6880 C.2     1  UNL1       -0.0440
      7  C          7.9400    1.4210   -0.5550 C.2     1  UNL1        0.0080
      8  C          6.4100   -0.1560   -1.4320 C.2     1  UNL1        0.0540
      9  C          9.0070    0.7440   -1.1400 C.2     1  UNL1        0.0510
     10  C          7.4570   -0.8540   -2.0290 C.2     1  UNL1        0.1660
     11  C          8.7500   -0.3960   -1.8770 C.2     1  UNL1        0.1650
     12  O          7.5350   -2.0040   -2.8130 O.2     1  UNL1       -0.4540
     13  O          9.5880   -1.2640   -2.5630 O.2     1  UNL1       -0.4540
     14  C          8.8110   -2.1310   -3.3850 C.3     1  UNL1        0.4680
@<TRIPOS>BOND
     1    14    12    1
     2    14    13    1
     3    12    10    1
     4    13    11    1
     5    10    11    2
     6    10     8    1
     7    11     9    1
     8     8     6    2
     9     9     7    2
    10     6     7    1
    11     6     5    1
    12     5     1    1
    13     1     2    1
    14     2     3    1
    15     2     4    2
