@<TRIPOS>MOLECULE
/home/cewinharhar/GITHUB/reincatalyze/data/processed/docking_pred/2023-May-31-1603_sub9_nm5_bs15_s42_ex16_mel10_mts1000_k50_ec05_g099_lra3e-4_lrc9e-3/bdfc35a41e3d78d3bf59a6b88613069133e00868_ligand_9.pdbqt
 14 15 0 0 0
SMALL
GASTEIGER

@<TRIPOS>ATOM
      1  C          6.7310    0.8590    1.2790 C.3     1  UNL1        0.0800
      2  C          5.2970    1.1970    1.3770 C.2     1  UNL1        0.1300
      3  C          4.7130    2.1500    0.4120 C.3     1  UNL1        0.0870
      4  O          4.6310    0.6860    2.2440 O.2     1  UNL1       -0.3000
      5  C          7.2420    1.0400   -0.1350 C.3     1  UNL1        0.0430
      6  C          7.6580   -0.2470   -0.7010 C.2     1  UNL1       -0.0440
      7  C          7.7080   -0.4230   -2.0680 C.2     1  UNL1        0.0080
      8  C          8.0110   -1.3190    0.0990 C.2     1  UNL1        0.0540
      9  C          8.0960   -1.6290   -2.6450 C.2     1  UNL1        0.0510
     10  C          8.4040   -2.5370   -0.4490 C.2     1  UNL1        0.1660
     11  C          8.4430   -2.6820   -1.8200 C.2     1  UNL1        0.1650
     12  O          8.8040   -3.7600    0.0890 O.2     1  UNL1       -0.4540
     13  O          8.8610   -3.9750   -2.0970 O.2     1  UNL1       -0.4540
     14  C          8.8340   -4.7540   -0.9040 C.3     1  UNL1        0.4680
@<TRIPOS>BOND
     1     9     7    1
     2     9    11    2
     3    13    11    1
     4    13    14    1
     5     7     6    2
     6    11    10    1
     7    14    12    1
     8     6     5    1
     9     6     8    1
    10    10    12    1
    11    10     8    2
    12     5     1    1
    13     3     2    1
    14     1     2    1
    15     2     4    2
