MODEL 1
REMARK VINA RESULT:      -7.5      0.000      0.000
REMARK SMILES CC(=O)CCc1ccc2c(c1)OCO2
REMARK SMILES IDX 4 1 2 2 1 3 3 4 5 5 6 6 7 7 11 8 8 9 10 10 9 11 12 12 14 13
REMARK SMILES IDX 13 14
REMARK H PARENT
REMARK Flexibility Score: inf
ROOT
ATOM      1  C   UNL     1       5.737   1.790   1.445  1.00  0.00     0.080 C 
ENDROOT
BRANCH   1   2
ATOM      2  C   UNL     1       5.214   0.574   2.099  1.00  0.00     0.130 C 
ATOM      3  C   UNL     1       6.103  -0.595   2.263  1.00  0.00     0.087 C 
ATOM      4  O   UNL     1       4.072   0.559   2.487  1.00  0.00    -0.300 OA
ENDBRANCH   1   2
BRANCH   1   5
ATOM      5  C   UNL     1       5.543   1.733  -0.056  1.00  0.00     0.043 C 
BRANCH   5   6
ATOM      6  C   UNL     1       6.637   0.989  -0.688  1.00  0.00    -0.044 A 
ATOM      7  C   UNL     1       7.940   1.421  -0.555  1.00  0.00     0.008 A 
ATOM      8  C   UNL     1       6.410  -0.156  -1.432  1.00  0.00     0.054 A 
ATOM      9  C   UNL     1       9.007   0.744  -1.140  1.00  0.00     0.051 A 
ATOM     10  C   UNL     1       7.457  -0.854  -2.029  1.00  0.00     0.166 A 
ATOM     11  C   UNL     1       8.750  -0.396  -1.877  1.00  0.00     0.165 A 
ATOM     12  O   UNL     1       7.535  -2.004  -2.813  1.00  0.00    -0.454 OA
ATOM     13  O   UNL     1       9.588  -1.264  -2.563  1.00  0.00    -0.454 OA
ATOM     14  C   UNL     1       8.811  -2.131  -3.385  1.00  0.00     0.468 C 
ENDBRANCH   5   6
ENDBRANCH   1   5
TORSDOF 3
ENDMDL
MODEL 2
REMARK VINA RESULT:      -7.4      1.867      2.314
REMARK SMILES CC(=O)CCc1ccc2c(c1)OCO2
REMARK SMILES IDX 4 1 2 2 1 3 3 4 5 5 6 6 7 7 11 8 8 9 10 10 9 11 12 12 14 13
REMARK SMILES IDX 13 14
REMARK H PARENT
REMARK Flexibility Score: inf
ROOT
ATOM      1  C   UNL     1       5.599   1.183  -0.269  1.00  0.00     0.080 C 
ENDROOT
BRANCH   1   2
ATOM      2  C   UNL     1       5.085   1.201   1.115  1.00  0.00     0.130 C 
ATOM      3  C   UNL     1       5.379   0.062   2.008  1.00  0.00     0.087 C 
ATOM      4  O   UNL     1       4.436   2.147   1.489  1.00  0.00    -0.300 OA
ENDBRANCH   1   2
BRANCH   1   5
ATOM      5  C   UNL     1       7.112   1.112  -0.292  1.00  0.00     0.043 C 
BRANCH   5   6
ATOM      6  C   UNL     1       7.559  -0.158  -0.871  1.00  0.00    -0.044 A 
ATOM      7  C   UNL     1       7.610  -0.320  -2.240  1.00  0.00     0.008 A 
ATOM      8  C   UNL     1       7.940  -1.229  -0.081  1.00  0.00     0.054 A 
ATOM      9  C   UNL     1       8.028  -1.510  -2.829  1.00  0.00     0.051 A 
ATOM     10  C   UNL     1       8.363  -2.432  -0.642  1.00  0.00     0.166 A 
ATOM     11  C   UNL     1       8.403  -2.562  -2.015  1.00  0.00     0.165 A 
ATOM     12  O   UNL     1       8.795  -3.649  -0.117  1.00  0.00    -0.454 OA
ATOM     13  O   UNL     1       8.853  -3.842  -2.304  1.00  0.00    -0.454 OA
ATOM     14  C   UNL     1       8.847  -4.632  -1.118  1.00  0.00     0.468 C 
ENDBRANCH   5   6
ENDBRANCH   1   5
TORSDOF 3
ENDMDL
MODEL 3
REMARK VINA RESULT:      -7.3      2.081      2.642
REMARK SMILES CC(=O)CCc1ccc2c(c1)OCO2
REMARK SMILES IDX 4 1 2 2 1 3 3 4 5 5 6 6 7 7 11 8 8 9 10 10 9 11 12 12 14 13
REMARK SMILES IDX 13 14
REMARK H PARENT
REMARK Flexibility Score: inf
ROOT
ATOM      1  C   UNL     1       5.402   0.004   1.995  1.00  0.00     0.080 C 
ENDROOT
BRANCH   1   2
ATOM      2  C   UNL     1       4.548   1.184   1.752  1.00  0.00     0.130 C 
ATOM      3  C   UNL     1       4.924   2.140   0.691  1.00  0.00     0.087 C 
ATOM      4  O   UNL     1       3.560   1.342   2.425  1.00  0.00    -0.300 OA
ENDBRANCH   1   2
BRANCH   1   5
ATOM      5  C   UNL     1       6.838   0.275   1.594  1.00  0.00     0.043 C 
BRANCH   5   6
ATOM      6  C   UNL     1       7.290  -0.706   0.604  1.00  0.00    -0.044 A 
ATOM      7  C   UNL     1       7.117  -0.466  -0.744  1.00  0.00     0.008 A 
ATOM      8  C   UNL     1       7.898  -1.894   0.973  1.00  0.00     0.054 A 
ATOM      9  C   UNL     1       7.531  -1.373  -1.716  1.00  0.00     0.051 A 
ATOM     10  C   UNL     1       8.323  -2.819   0.023  1.00  0.00     0.166 A 
ATOM     11  C   UNL     1       8.135  -2.550  -1.316  1.00  0.00     0.165 A 
ATOM     12  O   UNL     1       8.948  -4.064   0.092  1.00  0.00    -0.454 OA
ATOM     13  O   UNL     1       8.642  -3.621  -2.038  1.00  0.00    -0.454 OA
ATOM     14  C   UNL     1       8.914  -4.707  -1.156  1.00  0.00     0.468 C 
ENDBRANCH   5   6
ENDBRANCH   1   5
TORSDOF 3
ENDMDL
MODEL 4
REMARK VINA RESULT:      -7.1      1.209      1.370
REMARK SMILES CC(=O)CCc1ccc2c(c1)OCO2
REMARK SMILES IDX 4 1 2 2 1 3 3 4 5 5 6 6 7 7 11 8 8 9 10 10 9 11 12 12 14 13
REMARK SMILES IDX 13 14
REMARK H PARENT
REMARK Flexibility Score: inf
ROOT
ATOM      1  C   UNL     1       6.260   1.273   0.994  1.00  0.00     0.080 C 
ENDROOT
BRANCH   1   2
ATOM      2  C   UNL     1       5.568   0.424   1.984  1.00  0.00     0.130 C 
ATOM      3  C   UNL     1       6.258  -0.768   2.518  1.00  0.00     0.087 C 
ATOM      4  O   UNL     1       4.453   0.720   2.335  1.00  0.00    -0.300 OA
ENDBRANCH   1   2
BRANCH   1   5
ATOM      5  C   UNL     1       5.765   0.995  -0.410  1.00  0.00     0.043 C 
BRANCH   5   6
ATOM      6  C   UNL     1       6.713   0.141  -1.131  1.00  0.00    -0.044 A 
ATOM      7  C   UNL     1       7.372   0.618  -2.246  1.00  0.00     0.008 A 
ATOM      8  C   UNL     1       6.981  -1.156  -0.731  1.00  0.00     0.054 A 
ATOM      9  C   UNL     1       8.279  -0.161  -2.959  1.00  0.00     0.051 A 
ATOM     10  C   UNL     1       7.883  -1.959  -1.424  1.00  0.00     0.166 A 
ATOM     11  C   UNL     1       8.526  -1.454  -2.535  1.00  0.00     0.165 A 
ATOM     12  O   UNL     1       8.342  -3.266  -1.263  1.00  0.00    -0.454 OA
ATOM     13  O   UNL     1       9.358  -2.447  -3.030  1.00  0.00    -0.454 OA
ATOM     14  C   UNL     1       9.052  -3.687  -2.399  1.00  0.00     0.468 C 
ENDBRANCH   5   6
ENDBRANCH   1   5
TORSDOF 3
ENDMDL
MODEL 5
REMARK VINA RESULT:      -7.1      1.977      2.515
REMARK SMILES CC(=O)CCc1ccc2c(c1)OCO2
REMARK SMILES IDX 4 1 2 2 1 3 3 4 5 5 6 6 7 7 11 8 8 9 10 10 9 11 12 12 14 13
REMARK SMILES IDX 13 14
REMARK H PARENT
REMARK Flexibility Score: inf
ROOT
ATOM      1  C   UNL     1       6.731   0.859   1.279  1.00  0.00     0.080 C 
ENDROOT
BRANCH   1   2
ATOM      2  C   UNL     1       5.297   1.197   1.377  1.00  0.00     0.130 C 
ATOM      3  C   UNL     1       4.713   2.150   0.412  1.00  0.00     0.087 C 
ATOM      4  O   UNL     1       4.631   0.686   2.244  1.00  0.00    -0.300 OA
ENDBRANCH   1   2
BRANCH   1   5
ATOM      5  C   UNL     1       7.242   1.040  -0.135  1.00  0.00     0.043 C 
BRANCH   5   6
ATOM      6  C   UNL     1       7.658  -0.247  -0.701  1.00  0.00    -0.044 A 
ATOM      7  C   UNL     1       7.708  -0.423  -2.068  1.00  0.00     0.008 A 
ATOM      8  C   UNL     1       8.011  -1.319   0.099  1.00  0.00     0.054 A 
ATOM      9  C   UNL     1       8.096  -1.629  -2.645  1.00  0.00     0.051 A 
ATOM     10  C   UNL     1       8.404  -2.537  -0.449  1.00  0.00     0.166 A 
ATOM     11  C   UNL     1       8.443  -2.682  -1.820  1.00  0.00     0.165 A 
ATOM     12  O   UNL     1       8.804  -3.760   0.089  1.00  0.00    -0.454 OA
ATOM     13  O   UNL     1       8.861  -3.975  -2.097  1.00  0.00    -0.454 OA
ATOM     14  C   UNL     1       8.834  -4.754  -0.904  1.00  0.00     0.468 C 
ENDBRANCH   5   6
ENDBRANCH   1   5
TORSDOF 3
ENDMDL
