@<TRIPOS>MOLECULE
/home/cewinharhar/GITHUB/reincatalyze/data/processed/docking_pred/2023-May-31-1603_sub9_nm5_bs15_s42_ex16_mel10_mts1000_k50_ec05_g099_lra3e-4_lrc9e-3/be159ddb300952c005bf82764a5ce22912cca304_ligand_9.pdbqt
 14 15 0 0 0
SMALL
GASTEIGER

@<TRIPOS>ATOM
      1  C          5.3480   -0.0490    1.9890 C.3     1  UNL1        0.0800
      2  C          4.5260    1.1580    1.7710 C.2     1  UNL1        0.1300
      3  C          4.9230    2.1210    0.7240 C.3     1  UNL1        0.0870
      4  O          3.5470    1.3340    2.4540 O.2     1  UNL1       -0.3000
      5  C          6.8000    0.2050    1.6400 C.3     1  UNL1        0.0430
      6  C          7.2610   -0.7490    0.6270 C.2     1  UNL1       -0.0440
      7  C          7.0870   -0.4780   -0.7140 C.2     1  UNL1        0.0080
      8  C          7.8780   -1.9390    0.9690 C.2     1  UNL1        0.0540
      9  C          7.5090   -1.3580   -1.7080 C.2     1  UNL1        0.0510
     10  C          8.3120   -2.8380   -0.0020 C.2     1  UNL1        0.1660
     11  C          8.1230   -2.5390   -1.3350 C.2     1  UNL1        0.1650
     12  O          8.9470   -4.0790    0.0380 O.2     1  UNL1       -0.4540
     13  O          8.6400   -3.5890   -2.0810 O.2     1  UNL1       -0.4540
     14  C          8.9200   -4.6930   -1.2250 C.3     1  UNL1        0.4680
@<TRIPOS>BOND
     1    13    11    1
     2    13    14    1
     3     9    11    2
     4     9     7    1
     5    11    10    1
     6    14    12    1
     7     7     6    2
     8    10    12    1
     9    10     8    2
    10     6     8    1
    11     6     5    1
    12     3     2    1
    13     5     1    1
    14     2     1    1
    15     2     4    2
