MODEL 1
REMARK VINA RESULT:      -7.5      0.000      0.000
REMARK SMILES CC(=O)CCc1ccc2c(c1)OCO2
REMARK SMILES IDX 4 1 2 2 1 3 3 4 5 5 6 6 7 7 11 8 8 9 10 10 9 11 12 12 14 13
REMARK SMILES IDX 13 14
REMARK H PARENT
REMARK Flexibility Score: inf
ROOT
ATOM      1  C   UNL     1       5.633   1.823   1.344  1.00  0.00     0.080 C 
ENDROOT
BRANCH   1   2
ATOM      2  C   UNL     1       5.135   0.633   2.063  1.00  0.00     0.130 C 
ATOM      3  C   UNL     1       6.035  -0.522   2.254  1.00  0.00     0.087 C 
ATOM      4  O   UNL     1       4.003   0.629   2.479  1.00  0.00    -0.300 OA
ENDBRANCH   1   2
BRANCH   1   5
ATOM      5  C   UNL     1       5.448   1.678  -0.152  1.00  0.00     0.043 C 
BRANCH   5   6
ATOM      6  C   UNL     1       6.577   0.952  -0.742  1.00  0.00    -0.044 A 
ATOM      7  C   UNL     1       7.865   1.420  -0.584  1.00  0.00     0.008 A 
ATOM      8  C   UNL     1       6.399  -0.210  -1.472  1.00  0.00     0.054 A 
ATOM      9  C   UNL     1       8.964   0.761  -1.129  1.00  0.00     0.051 A 
ATOM     10  C   UNL     1       7.479  -0.891  -2.029  1.00  0.00     0.166 A 
ATOM     11  C   UNL     1       8.755  -0.398  -1.852  1.00  0.00     0.165 A 
ATOM     12  O   UNL     1       7.606  -2.053  -2.790  1.00  0.00    -0.454 OA
ATOM     13  O   UNL     1       9.632  -1.255  -2.501  1.00  0.00    -0.454 OA
ATOM     14  C   UNL     1       8.900  -2.156  -3.327  1.00  0.00     0.468 C 
ENDBRANCH   5   6
ENDBRANCH   1   5
TORSDOF 3
ENDMDL
MODEL 2
REMARK VINA RESULT:      -7.4      1.840      2.305
REMARK SMILES CC(=O)CCc1ccc2c(c1)OCO2
REMARK SMILES IDX 4 1 2 2 1 3 3 4 5 5 6 6 7 7 11 8 8 9 10 10 9 11 12 12 14 13
REMARK SMILES IDX 13 14
REMARK H PARENT
REMARK Flexibility Score: inf
ROOT
ATOM      1  C   UNL     1       5.608   1.273  -0.297  1.00  0.00     0.080 C 
ENDROOT
BRANCH   1   2
ATOM      2  C   UNL     1       5.040   1.254   1.066  1.00  0.00     0.130 C 
ATOM      3  C   UNL     1       5.384   0.142   1.975  1.00  0.00     0.087 C 
ATOM      4  O   UNL     1       4.306   2.148   1.409  1.00  0.00    -0.300 OA
ENDBRANCH   1   2
BRANCH   1   5
ATOM      5  C   UNL     1       7.116   1.139  -0.266  1.00  0.00     0.043 C 
BRANCH   5   6
ATOM      6  C   UNL     1       7.532  -0.142  -0.842  1.00  0.00    -0.044 A 
ATOM      7  C   UNL     1       7.519  -0.328  -2.209  1.00  0.00     0.008 A 
ATOM      8  C   UNL     1       7.947  -1.201  -0.053  1.00  0.00     0.054 A 
ATOM      9  C   UNL     1       7.906  -1.530  -2.797  1.00  0.00     0.051 A 
ATOM     10  C   UNL     1       8.340  -2.414  -0.612  1.00  0.00     0.166 A 
ATOM     11  C   UNL     1       8.315  -2.569  -1.982  1.00  0.00     0.165 A 
ATOM     12  O   UNL     1       8.793  -3.624  -0.086  1.00  0.00    -0.454 OA
ATOM     13  O   UNL     1       8.748  -3.855  -2.270  1.00  0.00    -0.454 OA
ATOM     14  C   UNL     1       8.796  -4.624  -1.072  1.00  0.00     0.468 C 
ENDBRANCH   5   6
ENDBRANCH   1   5
TORSDOF 3
ENDMDL
MODEL 3
REMARK VINA RESULT:      -7.3      2.036      2.618
REMARK SMILES CC(=O)CCc1ccc2c(c1)OCO2
REMARK SMILES IDX 4 1 2 2 1 3 3 4 5 5 6 6 7 7 11 8 8 9 10 10 9 11 12 12 14 13
REMARK SMILES IDX 13 14
REMARK H PARENT
REMARK Flexibility Score: inf
ROOT
ATOM      1  C   UNL     1       5.348  -0.049   1.989  1.00  0.00     0.080 C 
ENDROOT
BRANCH   1   2
ATOM      2  C   UNL     1       4.526   1.158   1.771  1.00  0.00     0.130 C 
ATOM      3  C   UNL     1       4.923   2.121   0.724  1.00  0.00     0.087 C 
ATOM      4  O   UNL     1       3.547   1.334   2.454  1.00  0.00    -0.300 OA
ENDBRANCH   1   2
BRANCH   1   5
ATOM      5  C   UNL     1       6.800   0.205   1.640  1.00  0.00     0.043 C 
BRANCH   5   6
ATOM      6  C   UNL     1       7.261  -0.749   0.627  1.00  0.00    -0.044 A 
ATOM      7  C   UNL     1       7.087  -0.478  -0.714  1.00  0.00     0.008 A 
ATOM      8  C   UNL     1       7.878  -1.939   0.969  1.00  0.00     0.054 A 
ATOM      9  C   UNL     1       7.509  -1.358  -1.708  1.00  0.00     0.051 A 
ATOM     10  C   UNL     1       8.312  -2.838  -0.002  1.00  0.00     0.166 A 
ATOM     11  C   UNL     1       8.123  -2.539  -1.335  1.00  0.00     0.165 A 
ATOM     12  O   UNL     1       8.947  -4.079   0.038  1.00  0.00    -0.454 OA
ATOM     13  O   UNL     1       8.640  -3.589  -2.081  1.00  0.00    -0.454 OA
ATOM     14  C   UNL     1       8.920  -4.693  -1.225  1.00  0.00     0.468 C 
ENDBRANCH   5   6
ENDBRANCH   1   5
TORSDOF 3
ENDMDL
MODEL 4
REMARK VINA RESULT:      -6.9      1.234      5.321
REMARK SMILES CC(=O)CCc1ccc2c(c1)OCO2
REMARK SMILES IDX 4 1 2 2 1 3 3 4 5 5 6 6 7 7 11 8 8 9 10 10 9 11 12 12 14 13
REMARK SMILES IDX 13 14
REMARK H PARENT
REMARK Flexibility Score: inf
ROOT
ATOM      1  C   UNL     1       8.487   0.304  -2.511  1.00  0.00     0.080 C 
ENDROOT
BRANCH   1   2
ATOM      2  C   UNL     1       8.524  -1.152  -2.756  1.00  0.00     0.130 C 
ATOM      3  C   UNL     1       7.255  -1.893  -2.895  1.00  0.00     0.087 C 
ATOM      4  O   UNL     1       9.592  -1.707  -2.836  1.00  0.00    -0.300 OA
ENDBRANCH   1   2
BRANCH   1   5
ATOM      5  C   UNL     1       8.982   0.640  -1.120  1.00  0.00     0.043 C 
BRANCH   5   6
ATOM      6  C   UNL     1       7.898   0.506  -0.142  1.00  0.00    -0.044 A 
ATOM      7  C   UNL     1       7.882  -0.557   0.738  1.00  0.00     0.008 A 
ATOM      8  C   UNL     1       6.865   1.423  -0.063  1.00  0.00     0.054 A 
ATOM      9  C   UNL     1       6.871  -0.721   1.682  1.00  0.00     0.051 A 
ATOM     10  C   UNL     1       5.840   1.285   0.870  1.00  0.00     0.166 A 
ATOM     11  C   UNL     1       5.853   0.212   1.737  1.00  0.00     0.165 A 
ATOM     12  O   UNL     1       4.701   2.028   1.178  1.00  0.00    -0.454 OA
ATOM     13  O   UNL     1       4.733   0.313   2.550  1.00  0.00    -0.454 OA
ATOM     14  C   UNL     1       3.852   1.305   2.032  1.00  0.00     0.468 C 
ENDBRANCH   5   6
ENDBRANCH   1   5
TORSDOF 3
ENDMDL
MODEL 5
REMARK VINA RESULT:      -6.8      1.913      2.594
REMARK SMILES CC(=O)CCc1ccc2c(c1)OCO2
REMARK SMILES IDX 4 1 2 2 1 3 3 4 5 5 6 6 7 7 11 8 8 9 10 10 9 11 12 12 14 13
REMARK SMILES IDX 13 14
REMARK H PARENT
REMARK Flexibility Score: inf
ROOT
ATOM      1  C   UNL     1       5.993  -0.114   0.809  1.00  0.00     0.080 C 
ENDROOT
BRANCH   1   2
ATOM      2  C   UNL     1       5.113   0.951   1.331  1.00  0.00     0.130 C 
ATOM      3  C   UNL     1       4.861   2.148   0.503  1.00  0.00     0.087 C 
ATOM      4  O   UNL     1       4.617   0.821   2.423  1.00  0.00    -0.300 OA
ENDBRANCH   1   2
BRANCH   1   5
ATOM      5  C   UNL     1       6.579   0.268  -0.534  1.00  0.00     0.043 C 
BRANCH   5   6
ATOM      6  C   UNL     1       7.357  -0.843  -1.091  1.00  0.00    -0.044 A 
ATOM      7  C   UNL     1       7.805  -0.795  -2.395  1.00  0.00     0.008 A 
ATOM      8  C   UNL     1       7.668  -1.966  -0.345  1.00  0.00     0.054 A 
ATOM      9  C   UNL     1       8.546  -1.828  -2.962  1.00  0.00     0.051 A 
ATOM     10  C   UNL     1       8.407  -3.016  -0.884  1.00  0.00     0.166 A 
ATOM     11  C   UNL     1       8.841  -2.938  -2.191  1.00  0.00     0.165 A 
ATOM     12  O   UNL     1       8.861  -4.238  -0.390  1.00  0.00    -0.454 OA
ATOM     13  O   UNL     1       9.544  -4.100  -2.473  1.00  0.00    -0.454 OA
ATOM     14  C   UNL     1       9.336  -5.051  -1.433  1.00  0.00     0.468 C 
ENDBRANCH   5   6
ENDBRANCH   1   5
TORSDOF 3
ENDMDL
