@<TRIPOS>MOLECULE
/home/cewinharhar/GITHUB/reincatalyze/data/processed/docking_pred/2023-May-31-1603_sub9_nm5_bs15_s42_ex16_mel10_mts1000_k50_ec05_g099_lra3e-4_lrc9e-3/be159ddb300952c005bf82764a5ce22912cca304_ligand_9.pdbqt
 14 15 0 0 0
SMALL
GASTEIGER

@<TRIPOS>ATOM
      1  C          5.6080    1.2730   -0.2970 C.3     1  UNL1        0.0800
      2  C          5.0400    1.2540    1.0660 C.2     1  UNL1        0.1300
      3  C          5.3840    0.1420    1.9750 C.3     1  UNL1        0.0870
      4  O          4.3060    2.1480    1.4090 O.2     1  UNL1       -0.3000
      5  C          7.1160    1.1390   -0.2660 C.3     1  UNL1        0.0430
      6  C          7.5320   -0.1420   -0.8420 C.2     1  UNL1       -0.0440
      7  C          7.5190   -0.3280   -2.2090 C.2     1  UNL1        0.0080
      8  C          7.9470   -1.2010   -0.0530 C.2     1  UNL1        0.0540
      9  C          7.9060   -1.5300   -2.7970 C.2     1  UNL1        0.0510
     10  C          8.3400   -2.4140   -0.6120 C.2     1  UNL1        0.1660
     11  C          8.3150   -2.5690   -1.9820 C.2     1  UNL1        0.1650
     12  O          8.7930   -3.6240   -0.0860 O.2     1  UNL1       -0.4540
     13  O          8.7480   -3.8550   -2.2700 O.2     1  UNL1       -0.4540
     14  C          8.7960   -4.6240   -1.0720 C.3     1  UNL1        0.4680
@<TRIPOS>BOND
     1     9     7    1
     2     9    11    2
     3    13    11    1
     4    13    14    1
     5     7     6    2
     6    11    10    1
     7    14    12    1
     8     6     5    1
     9     6     8    1
    10    10    12    1
    11    10     8    2
    12     1     5    1
    13     1     2    1
    14     2     4    2
    15     2     3    1
