@<TRIPOS>MOLECULE
/home/cewinharhar/GITHUB/reincatalyze/data/processed/docking_pred/2023-May-31-1603_sub9_nm5_bs15_s42_ex16_mel10_mts1000_k50_ec05_g099_lra3e-4_lrc9e-3/bef029ec7f2d3d0301694813bb63cef4e6663bb8_ligand_9.pdbqt
 14 15 0 0 0
SMALL
GASTEIGER

@<TRIPOS>ATOM
      1  C          6.3250    1.2390    0.9630 C.3     1  UNL1        0.0800
      2  C          5.6030    0.4240    1.9600 C.2     1  UNL1        0.1300
      3  C          6.2540   -0.7790    2.5170 C.3     1  UNL1        0.0870
      4  O          4.4940    0.7570    2.2990 O.2     1  UNL1       -0.3000
      5  C          5.8220    0.9640   -0.4390 C.3     1  UNL1        0.0430
      6  C          6.7550    0.0910   -1.1590 C.2     1  UNL1       -0.0440
      7  C          7.3900    0.5390   -2.2980 C.2     1  UNL1        0.0080
      8  C          7.0300   -1.1960   -0.7320 C.2     1  UNL1        0.0540
      9  C          8.2810   -0.2590   -3.0110 C.2     1  UNL1        0.0510
     10  C          7.9170   -2.0170   -1.4240 C.2     1  UNL1        0.1660
     11  C          8.5360   -1.5400   -2.5600 C.2     1  UNL1        0.1650
     12  O          8.3780   -3.3200   -1.2400 O.2     1  UNL1       -0.4540
     13  O          9.3570   -2.5470   -3.0480 O.2     1  UNL1       -0.4540
     14  C          9.0630   -3.7710   -2.3810 C.3     1  UNL1        0.4680
@<TRIPOS>BOND
     1    13    11    1
     2    13    14    1
     3     9    11    2
     4     9     7    1
     5    11    10    1
     6    14    12    1
     7     7     6    2
     8    10    12    1
     9    10     8    2
    10     6     8    1
    11     6     5    1
    12     5     1    1
    13     1     2    1
    14     2     4    2
    15     2     3    1
