@<TRIPOS>MOLECULE
/home/cewinharhar/GITHUB/reincatalyze/data/processed/docking_pred/2023-May-31-1603_sub9_nm5_bs15_s42_ex16_mel10_mts1000_k50_ec05_g099_lra3e-4_lrc9e-3/bef029ec7f2d3d0301694813bb63cef4e6663bb8_ligand_9.pdbqt
 14 15 0 0 0
SMALL
GASTEIGER

@<TRIPOS>ATOM
      1  C          5.6130    1.8120    1.3370 C.3     1  UNL1        0.0800
      2  C          5.1240    0.6220    2.0630 C.2     1  UNL1        0.1300
      3  C          6.0240   -0.5360    2.2380 C.3     1  UNL1        0.0870
      4  O          3.9990    0.6210    2.4990 O.2     1  UNL1       -0.3000
      5  C          5.4260    1.6570   -0.1580 C.3     1  UNL1        0.0430
      6  C          6.5590    0.9370   -0.7460 C.2     1  UNL1       -0.0440
      7  C          7.8470    1.4000   -0.5690 C.2     1  UNL1        0.0080
      8  C          6.3870   -0.2160   -1.4920 C.2     1  UNL1        0.0540
      9  C          8.9500    0.7460   -1.1120 C.2     1  UNL1        0.0510
     10  C          7.4710   -0.8920   -2.0470 C.2     1  UNL1        0.1660
     11  C          8.7460   -0.4040   -1.8520 C.2     1  UNL1        0.1650
     12  O          7.6030   -2.0440   -2.8220 O.2     1  UNL1       -0.4540
     13  O          9.6280   -1.2540   -2.5030 O.2     1  UNL1       -0.4540
     14  C          8.9020   -2.1430   -3.3470 C.3     1  UNL1        0.4680
@<TRIPOS>BOND
     1    14    12    1
     2    14    13    1
     3    12    10    1
     4    13    11    1
     5    10    11    2
     6    10     8    1
     7    11     9    1
     8     8     6    2
     9     9     7    2
    10     6     7    1
    11     6     5    1
    12     5     1    1
    13     1     2    1
    14     2     3    1
    15     2     4    2
