MODEL 1
REMARK VINA RESULT:      -7.5      0.000      0.000
REMARK SMILES CC(=O)CCc1ccc2c(c1)OCO2
REMARK SMILES IDX 4 1 2 2 1 3 3 4 5 5 6 6 7 7 11 8 8 9 10 10 9 11 12 12 14 13
REMARK SMILES IDX 13 14
REMARK H PARENT
REMARK Flexibility Score: inf
ROOT
ATOM      1  C   UNL     1       5.613   1.812   1.337  1.00  0.00     0.080 C 
ENDROOT
BRANCH   1   2
ATOM      2  C   UNL     1       5.124   0.622   2.063  1.00  0.00     0.130 C 
ATOM      3  C   UNL     1       6.024  -0.536   2.238  1.00  0.00     0.087 C 
ATOM      4  O   UNL     1       3.999   0.621   2.499  1.00  0.00    -0.300 OA
ENDBRANCH   1   2
BRANCH   1   5
ATOM      5  C   UNL     1       5.426   1.657  -0.158  1.00  0.00     0.043 C 
BRANCH   5   6
ATOM      6  C   UNL     1       6.559   0.937  -0.746  1.00  0.00    -0.044 A 
ATOM      7  C   UNL     1       7.847   1.400  -0.569  1.00  0.00     0.008 A 
ATOM      8  C   UNL     1       6.387  -0.216  -1.492  1.00  0.00     0.054 A 
ATOM      9  C   UNL     1       8.950   0.746  -1.112  1.00  0.00     0.051 A 
ATOM     10  C   UNL     1       7.471  -0.892  -2.047  1.00  0.00     0.166 A 
ATOM     11  C   UNL     1       8.746  -0.404  -1.852  1.00  0.00     0.165 A 
ATOM     12  O   UNL     1       7.603  -2.044  -2.822  1.00  0.00    -0.454 OA
ATOM     13  O   UNL     1       9.628  -1.254  -2.503  1.00  0.00    -0.454 OA
ATOM     14  C   UNL     1       8.902  -2.143  -3.347  1.00  0.00     0.468 C 
ENDBRANCH   5   6
ENDBRANCH   1   5
TORSDOF 3
ENDMDL
MODEL 2
REMARK VINA RESULT:      -7.4      1.949      2.366
REMARK SMILES CC(=O)CCc1ccc2c(c1)OCO2
REMARK SMILES IDX 4 1 2 2 1 3 3 4 5 5 6 6 7 7 11 8 8 9 10 10 9 11 12 12 14 13
REMARK SMILES IDX 13 14
REMARK H PARENT
REMARK Flexibility Score: inf
ROOT
ATOM      1  C   UNL     1       5.673   1.236  -0.233  1.00  0.00     0.080 C 
ENDROOT
BRANCH   1   2
ATOM      2  C   UNL     1       5.046   1.231   1.104  1.00  0.00     0.130 C 
ATOM      3  C   UNL     1       5.308   0.102   2.019  1.00  0.00     0.087 C 
ATOM      4  O   UNL     1       4.331   2.149   1.421  1.00  0.00    -0.300 OA
ENDBRANCH   1   2
BRANCH   1   5
ATOM      5  C   UNL     1       7.177   1.080  -0.134  1.00  0.00     0.043 C 
BRANCH   5   6
ATOM      6  C   UNL     1       7.600  -0.202  -0.705  1.00  0.00    -0.044 A 
ATOM      7  C   UNL     1       7.642  -0.375  -2.073  1.00  0.00     0.008 A 
ATOM      8  C   UNL     1       7.968  -1.272   0.091  1.00  0.00     0.054 A 
ATOM      9  C   UNL     1       8.037  -1.577  -2.655  1.00  0.00     0.051 A 
ATOM     10  C   UNL     1       8.368  -2.486  -0.462  1.00  0.00     0.166 A 
ATOM     11  C   UNL     1       8.399  -2.628  -1.834  1.00  0.00     0.165 A 
ATOM     12  O   UNL     1       8.784  -3.706   0.071  1.00  0.00    -0.454 OA
ATOM     13  O   UNL     1       8.828  -3.917  -2.115  1.00  0.00    -0.454 OA
ATOM     14  C   UNL     1       8.815  -4.698  -0.923  1.00  0.00     0.468 C 
ENDBRANCH   5   6
ENDBRANCH   1   5
TORSDOF 3
ENDMDL
MODEL 3
REMARK VINA RESULT:      -7.3      2.096      2.637
REMARK SMILES CC(=O)CCc1ccc2c(c1)OCO2
REMARK SMILES IDX 4 1 2 2 1 3 3 4 5 5 6 6 7 7 11 8 8 9 10 10 9 11 12 12 14 13
REMARK SMILES IDX 13 14
REMARK H PARENT
REMARK Flexibility Score: inf
ROOT
ATOM      1  C   UNL     1       5.454   0.007   1.885  1.00  0.00     0.080 C 
ENDROOT
BRANCH   1   2
ATOM      2  C   UNL     1       4.617   1.197   1.636  1.00  0.00     0.130 C 
ATOM      3  C   UNL     1       5.013   2.148   0.578  1.00  0.00     0.087 C 
ATOM      4  O   UNL     1       3.626   1.369   2.302  1.00  0.00    -0.300 OA
ENDBRANCH   1   2
BRANCH   1   5
ATOM      5  C   UNL     1       6.895   0.256   1.490  1.00  0.00     0.043 C 
BRANCH   5   6
ATOM      6  C   UNL     1       7.340  -0.741   0.512  1.00  0.00    -0.044 A 
ATOM      7  C   UNL     1       7.169  -0.516  -0.839  1.00  0.00     0.008 A 
ATOM      8  C   UNL     1       7.939  -1.928   0.896  1.00  0.00     0.054 A 
ATOM      9  C   UNL     1       7.578  -1.437  -1.800  1.00  0.00     0.051 A 
ATOM     10  C   UNL     1       8.358  -2.868  -0.042  1.00  0.00     0.166 A 
ATOM     11  C   UNL     1       8.173  -2.613  -1.385  1.00  0.00     0.165 A 
ATOM     12  O   UNL     1       8.973  -4.116   0.042  1.00  0.00    -0.454 OA
ATOM     13  O   UNL     1       8.672  -3.697  -2.093  1.00  0.00    -0.454 OA
ATOM     14  C   UNL     1       8.935  -4.774  -1.198  1.00  0.00     0.468 C 
ENDBRANCH   5   6
ENDBRANCH   1   5
TORSDOF 3
ENDMDL
MODEL 4
REMARK VINA RESULT:      -7.1      1.246      1.425
REMARK SMILES CC(=O)CCc1ccc2c(c1)OCO2
REMARK SMILES IDX 4 1 2 2 1 3 3 4 5 5 6 6 7 7 11 8 8 9 10 10 9 11 12 12 14 13
REMARK SMILES IDX 13 14
REMARK H PARENT
REMARK Flexibility Score: inf
ROOT
ATOM      1  C   UNL     1       6.325   1.239   0.963  1.00  0.00     0.080 C 
ENDROOT
BRANCH   1   2
ATOM      2  C   UNL     1       5.603   0.424   1.960  1.00  0.00     0.130 C 
ATOM      3  C   UNL     1       6.254  -0.779   2.517  1.00  0.00     0.087 C 
ATOM      4  O   UNL     1       4.494   0.757   2.299  1.00  0.00    -0.300 OA
ENDBRANCH   1   2
BRANCH   1   5
ATOM      5  C   UNL     1       5.822   0.964  -0.439  1.00  0.00     0.043 C 
BRANCH   5   6
ATOM      6  C   UNL     1       6.755   0.091  -1.159  1.00  0.00    -0.044 A 
ATOM      7  C   UNL     1       7.390   0.539  -2.298  1.00  0.00     0.008 A 
ATOM      8  C   UNL     1       7.030  -1.196  -0.732  1.00  0.00     0.054 A 
ATOM      9  C   UNL     1       8.281  -0.259  -3.011  1.00  0.00     0.051 A 
ATOM     10  C   UNL     1       7.917  -2.017  -1.424  1.00  0.00     0.166 A 
ATOM     11  C   UNL     1       8.536  -1.540  -2.560  1.00  0.00     0.165 A 
ATOM     12  O   UNL     1       8.378  -3.320  -1.240  1.00  0.00    -0.454 OA
ATOM     13  O   UNL     1       9.357  -2.547  -3.048  1.00  0.00    -0.454 OA
ATOM     14  C   UNL     1       9.063  -3.771  -2.381  1.00  0.00     0.468 C 
ENDBRANCH   5   6
ENDBRANCH   1   5
TORSDOF 3
ENDMDL
MODEL 5
REMARK VINA RESULT:      -7.0      1.201      5.207
REMARK SMILES CC(=O)CCc1ccc2c(c1)OCO2
REMARK SMILES IDX 4 1 2 2 1 3 3 4 5 5 6 6 7 7 11 8 8 9 10 10 9 11 12 12 14 13
REMARK SMILES IDX 13 14
REMARK H PARENT
REMARK Flexibility Score: inf
ROOT
ATOM      1  C   UNL     1       8.273   0.212  -2.561  1.00  0.00     0.080 C 
ENDROOT
BRANCH   1   2
ATOM      2  C   UNL     1       7.984  -1.229  -2.702  1.00  0.00     0.130 C 
ATOM      3  C   UNL     1       9.089  -2.159  -3.012  1.00  0.00     0.087 C 
ATOM      4  O   UNL     1       6.851  -1.618  -2.561  1.00  0.00    -0.300 OA
ENDBRANCH   1   2
BRANCH   1   5
ATOM      5  C   UNL     1       8.815   0.531  -1.184  1.00  0.00     0.043 C 
BRANCH   5   6
ATOM      6  C   UNL     1       7.752   0.445  -0.179  1.00  0.00    -0.044 A 
ATOM      7  C   UNL     1       7.749  -0.579   0.746  1.00  0.00     0.008 A 
ATOM      8  C   UNL     1       6.725   1.371  -0.117  1.00  0.00     0.054 A 
ATOM      9  C   UNL     1       6.757  -0.697   1.716  1.00  0.00     0.051 A 
ATOM     10  C   UNL     1       5.720   1.279   0.842  1.00  0.00     0.166 A 
ATOM     11  C   UNL     1       5.744   0.243   1.752  1.00  0.00     0.165 A 
ATOM     12  O   UNL     1       4.590   2.040   1.141  1.00  0.00    -0.454 OA
ATOM     13  O   UNL     1       4.643   0.385   2.584  1.00  0.00    -0.454 OA
ATOM     14  C   UNL     1       3.755   1.359   2.042  1.00  0.00     0.468 C 
ENDBRANCH   5   6
ENDBRANCH   1   5
TORSDOF 3
ENDMDL
