@<TRIPOS>MOLECULE
/home/cewinharhar/GITHUB/reincatalyze/data/processed/docking_pred/2023-May-31-1603_sub9_nm5_bs15_s42_ex16_mel10_mts1000_k50_ec05_g099_lra3e-4_lrc9e-3/bf1bd72bf83e0bbc7f208f1f88a3802cf16c22f1_ligand_9.pdbqt
 14 15 0 0 0
SMALL
GASTEIGER

@<TRIPOS>ATOM
      1  C          6.4510    0.4040   -0.9550 C.3     1  UNL1        0.0800
      2  C          7.1230   -0.4040   -1.9930 C.2     1  UNL1        0.1300
      3  C          8.2830    0.1650   -2.7100 C.3     1  UNL1        0.0870
      4  O          6.7120   -1.5110   -2.2340 O.2     1  UNL1       -0.3000
      5  C          6.5610   -0.2510    0.4060 C.3     1  UNL1        0.0430
      6  C          7.7600    0.2160    1.1070 C.2     1  UNL1       -0.0440
      7  C          7.7130    1.3520    1.8880 C.2     1  UNL1        0.0080
      8  C          8.9690   -0.4520    1.0150 C.2     1  UNL1        0.0540
      9  C          8.8300    1.8300    2.5680 C.2     1  UNL1        0.0510
     10  C         10.1030    0.0010    1.6850 C.2     1  UNL1        0.1660
     11  C         10.0230    1.1410    2.4580 C.2     1  UNL1        0.1650
     12  O         11.4200   -0.4490    1.7790 O.2     1  UNL1       -0.4540
     13  O         11.2770    1.3680    3.0060 O.2     1  UNL1       -0.4540
     14  C         12.2370    0.5280    2.3720 C.3     1  UNL1        0.4680
@<TRIPOS>BOND
     1     3     2    1
     2     4     2    2
     3     2     1    1
     4     1     5    1
     5     5     6    1
     6     8     6    2
     7     8    10    1
     8     6     7    1
     9    10    12    1
    10    10    11    2
    11    12    14    1
    12     7     9    2
    13    14    13    1
    14    11     9    1
    15    11    13    1
