@<TRIPOS>MOLECULE
/home/cewinharhar/GITHUB/reincatalyze/data/processed/docking_pred/2023-May-31-1603_sub9_nm5_bs15_s42_ex16_mel10_mts1000_k50_ec05_g099_lra3e-4_lrc9e-3/bf1bd72bf83e0bbc7f208f1f88a3802cf16c22f1_ligand_9.pdbqt
 14 15 0 0 0
SMALL
GASTEIGER

@<TRIPOS>ATOM
      1  C          5.8370    0.2380    1.3280 C.3     1  UNL1        0.0800
      2  C          5.0130    1.4180    0.9950 C.2     1  UNL1        0.1300
      3  C          5.2760    2.1490   -0.2600 C.3     1  UNL1        0.0870
      4  O          4.1410    1.7600    1.7560 O.2     1  UNL1       -0.3000
      5  C          7.0670    0.1610    0.4480 C.3     1  UNL1        0.0430
      6  C          8.2680    0.5140    1.2100 C.2     1  UNL1       -0.0440
      7  C          8.2490    1.5800    2.0860 C.2     1  UNL1        0.0080
      8  C          9.4500   -0.1940    1.0830 C.2     1  UNL1        0.0540
      9  C          9.3690    1.9480    2.8280 C.2     1  UNL1        0.0510
     10  C         10.5860    0.1510    1.8110 C.2     1  UNL1        0.1660
     11  C         10.5350    1.2210    2.6800 C.2     1  UNL1        0.1650
     12  O         11.8810   -0.3620    1.8910 O.2     1  UNL1       -0.4540
     13  O         11.7850    1.3460    3.2700 O.2     1  UNL1       -0.4540
     14  C         12.7240    0.5240    2.5830 C.3     1  UNL1        0.4680
@<TRIPOS>BOND
     1     3     2    1
     2     5     6    1
     3     5     1    1
     4     2     1    1
     5     2     4    2
     6     8     6    2
     7     8    10    1
     8     6     7    1
     9    10    12    1
    10    10    11    2
    11    12    14    1
    12     7     9    2
    13    14    13    1
    14    11     9    1
    15    11    13    1
