MODEL 1
REMARK VINA RESULT:      -7.2      0.000      0.000
REMARK SMILES CC(=O)CCc1ccc2c(c1)OCO2
REMARK SMILES IDX 4 1 2 2 1 3 3 4 5 5 6 6 7 7 11 8 8 9 10 10 9 11 12 12 14 13
REMARK SMILES IDX 13 14
REMARK H PARENT
REMARK Flexibility Score: inf
ROOT
ATOM      1  C   UNL     1       5.837   0.238   1.328  1.00  0.00     0.080 C 
ENDROOT
BRANCH   1   2
ATOM      2  C   UNL     1       5.013   1.418   0.995  1.00  0.00     0.130 C 
ATOM      3  C   UNL     1       5.276   2.149  -0.260  1.00  0.00     0.087 C 
ATOM      4  O   UNL     1       4.141   1.760   1.756  1.00  0.00    -0.300 OA
ENDBRANCH   1   2
BRANCH   1   5
ATOM      5  C   UNL     1       7.067   0.161   0.448  1.00  0.00     0.043 C 
BRANCH   5   6
ATOM      6  C   UNL     1       8.268   0.514   1.210  1.00  0.00    -0.044 A 
ATOM      7  C   UNL     1       8.249   1.580   2.086  1.00  0.00     0.008 A 
ATOM      8  C   UNL     1       9.450  -0.194   1.083  1.00  0.00     0.054 A 
ATOM      9  C   UNL     1       9.369   1.948   2.828  1.00  0.00     0.051 A 
ATOM     10  C   UNL     1      10.586   0.151   1.811  1.00  0.00     0.166 A 
ATOM     11  C   UNL     1      10.535   1.221   2.680  1.00  0.00     0.165 A 
ATOM     12  O   UNL     1      11.881  -0.362   1.891  1.00  0.00    -0.454 OA
ATOM     13  O   UNL     1      11.785   1.346   3.270  1.00  0.00    -0.454 OA
ATOM     14  C   UNL     1      12.724   0.524   2.583  1.00  0.00     0.468 C 
ENDBRANCH   5   6
ENDBRANCH   1   5
TORSDOF 3
ENDMDL
MODEL 2
REMARK VINA RESULT:      -7.1      2.690      5.437
REMARK SMILES CC(=O)CCc1ccc2c(c1)OCO2
REMARK SMILES IDX 4 1 2 2 1 3 3 4 5 5 6 6 7 7 11 8 8 9 10 10 9 11 12 12 14 13
REMARK SMILES IDX 13 14
REMARK H PARENT
REMARK Flexibility Score: inf
ROOT
ATOM      1  C   UNL     1       9.735   1.317   2.609  1.00  0.00     0.080 C 
ENDROOT
BRANCH   1   2
ATOM      2  C   UNL     1      11.169   0.966   2.657  1.00  0.00     0.130 C 
ATOM      3  C   UNL     1      12.067   1.726   3.550  1.00  0.00     0.087 C 
ATOM      4  O   UNL     1      11.577   0.065   1.967  1.00  0.00    -0.300 OA
ENDBRANCH   1   2
BRANCH   1   5
ATOM      5  C   UNL     1       9.394   2.057   1.332  1.00  0.00     0.043 C 
BRANCH   5   6
ATOM      6  C   UNL     1       8.664   1.183   0.409  1.00  0.00    -0.044 A 
ATOM      7  C   UNL     1       7.301   1.017   0.538  1.00  0.00     0.008 A 
ATOM      8  C   UNL     1       9.302   0.499  -0.610  1.00  0.00     0.054 A 
ATOM      9  C   UNL     1       6.571   0.196  -0.317  1.00  0.00     0.051 A 
ATOM     10  C   UNL     1       8.599  -0.330  -1.481  1.00  0.00     0.166 A 
ATOM     11  C   UNL     1       7.236  -0.475  -1.326  1.00  0.00     0.165 A 
ATOM     12  O   UNL     1       8.959  -1.123  -2.570  1.00  0.00    -0.454 OA
ATOM     13  O   UNL     1       6.789  -1.344  -2.311  1.00  0.00    -0.454 OA
ATOM     14  C   UNL     1       7.903  -1.974  -2.936  1.00  0.00     0.468 C 
ENDBRANCH   5   6
ENDBRANCH   1   5
TORSDOF 3
ENDMDL
MODEL 3
REMARK VINA RESULT:      -7.1      3.391      4.387
REMARK SMILES CC(=O)CCc1ccc2c(c1)OCO2
REMARK SMILES IDX 4 1 2 2 1 3 3 4 5 5 6 6 7 7 11 8 8 9 10 10 9 11 12 12 14 13
REMARK SMILES IDX 13 14
REMARK H PARENT
REMARK Flexibility Score: inf
ROOT
ATOM      1  C   UNL     1       5.561   1.877   1.413  1.00  0.00     0.080 C 
ENDROOT
BRANCH   1   2
ATOM      2  C   UNL     1       5.026   0.662   2.060  1.00  0.00     0.130 C 
ATOM      3  C   UNL     1       5.883  -0.536   2.163  1.00  0.00     0.087 C 
ATOM      4  O   UNL     1       3.899   0.673   2.491  1.00  0.00    -0.300 OA
ENDBRANCH   1   2
BRANCH   1   5
ATOM      5  C   UNL     1       5.412   1.808  -0.092  1.00  0.00     0.043 C 
BRANCH   5   6
ATOM      6  C   UNL     1       6.526   1.064  -0.687  1.00  0.00    -0.044 A 
ATOM      7  C   UNL     1       7.827   1.466  -0.469  1.00  0.00     0.008 A 
ATOM      8  C   UNL     1       6.321  -0.052  -1.479  1.00  0.00     0.054 A 
ATOM      9  C   UNL     1       8.913   0.787  -1.016  1.00  0.00     0.051 A 
ATOM     10  C   UNL     1       7.386  -0.751  -2.040  1.00  0.00     0.166 A 
ATOM     11  C   UNL     1       8.676  -0.324  -1.803  1.00  0.00     0.165 A 
ATOM     12  O   UNL     1       7.487  -1.878  -2.856  1.00  0.00    -0.454 OA
ATOM     13  O   UNL     1       9.536  -1.186  -2.470  1.00  0.00    -0.454 OA
ATOM     14  C   UNL     1       8.791  -2.011  -3.361  1.00  0.00     0.468 C 
ENDBRANCH   5   6
ENDBRANCH   1   5
TORSDOF 3
ENDMDL
MODEL 4
REMARK VINA RESULT:      -7.0      2.011      2.357
REMARK SMILES CC(=O)CCc1ccc2c(c1)OCO2
REMARK SMILES IDX 4 1 2 2 1 3 3 4 5 5 6 6 7 7 11 8 8 9 10 10 9 11 12 12 14 13
REMARK SMILES IDX 13 14
REMARK H PARENT
REMARK Flexibility Score: inf
ROOT
ATOM      1  C   UNL     1       6.451   0.404  -0.955  1.00  0.00     0.080 C 
ENDROOT
BRANCH   1   2
ATOM      2  C   UNL     1       7.123  -0.404  -1.993  1.00  0.00     0.130 C 
ATOM      3  C   UNL     1       8.283   0.165  -2.710  1.00  0.00     0.087 C 
ATOM      4  O   UNL     1       6.712  -1.511  -2.234  1.00  0.00    -0.300 OA
ENDBRANCH   1   2
BRANCH   1   5
ATOM      5  C   UNL     1       6.561  -0.251   0.406  1.00  0.00     0.043 C 
BRANCH   5   6
ATOM      6  C   UNL     1       7.760   0.216   1.107  1.00  0.00    -0.044 A 
ATOM      7  C   UNL     1       7.713   1.352   1.888  1.00  0.00     0.008 A 
ATOM      8  C   UNL     1       8.969  -0.452   1.015  1.00  0.00     0.054 A 
ATOM      9  C   UNL     1       8.830   1.830   2.568  1.00  0.00     0.051 A 
ATOM     10  C   UNL     1      10.103   0.001   1.685  1.00  0.00     0.166 A 
ATOM     11  C   UNL     1      10.023   1.141   2.458  1.00  0.00     0.165 A 
ATOM     12  O   UNL     1      11.420  -0.449   1.779  1.00  0.00    -0.454 OA
ATOM     13  O   UNL     1      11.277   1.368   3.006  1.00  0.00    -0.454 OA
ATOM     14  C   UNL     1      12.237   0.528   2.372  1.00  0.00     0.468 C 
ENDBRANCH   5   6
ENDBRANCH   1   5
TORSDOF 3
ENDMDL
MODEL 5
REMARK VINA RESULT:      -7.0      3.799      4.759
REMARK SMILES CC(=O)CCc1ccc2c(c1)OCO2
REMARK SMILES IDX 4 1 2 2 1 3 3 4 5 5 6 6 7 7 11 8 8 9 10 10 9 11 12 12 14 13
REMARK SMILES IDX 13 14
REMARK H PARENT
REMARK Flexibility Score: inf
ROOT
ATOM      1  C   UNL     1       6.448   1.373   0.280  1.00  0.00     0.080 C 
ENDROOT
BRANCH   1   2
ATOM      2  C   UNL     1       5.357   1.174   1.256  1.00  0.00     0.130 C 
ATOM      3  C   UNL     1       5.317  -0.073   2.047  1.00  0.00     0.087 C 
ATOM      4  O   UNL     1       4.521   2.033   1.386  1.00  0.00    -0.300 OA
ENDBRANCH   1   2
BRANCH   1   5
ATOM      5  C   UNL     1       6.055   0.871  -1.093  1.00  0.00     0.043 C 
BRANCH   5   6
ATOM      6  C   UNL     1       6.908  -0.251  -1.495  1.00  0.00    -0.044 A 
ATOM      7  C   UNL     1       7.450  -0.295  -2.763  1.00  0.00     0.008 A 
ATOM      8  C   UNL     1       7.201  -1.294  -0.634  1.00  0.00     0.054 A 
ATOM      9  C   UNL     1       8.264  -1.342  -3.184  1.00  0.00     0.051 A 
ATOM     10  C   UNL     1       8.013  -2.355  -1.027  1.00  0.00     0.166 A 
ATOM     11  C   UNL     1       8.539  -2.370  -2.302  1.00  0.00     0.165 A 
ATOM     12  O   UNL     1       8.470  -3.512  -0.397  1.00  0.00    -0.454 OA
ATOM     13  O   UNL     1       9.300  -3.522  -2.431  1.00  0.00    -0.454 OA
ATOM     14  C   UNL     1       9.048  -4.390  -1.329  1.00  0.00     0.468 C 
ENDBRANCH   5   6
ENDBRANCH   1   5
TORSDOF 3
ENDMDL
