@<TRIPOS>MOLECULE
/home/cewinharhar/GITHUB/reincatalyze/data/processed/docking_pred/2023-May-31-1603_sub9_nm5_bs15_s42_ex16_mel10_mts1000_k50_ec05_g099_lra3e-4_lrc9e-3/bf1bd72bf83e0bbc7f208f1f88a3802cf16c22f1_ligand_9.pdbqt
 14 15 0 0 0
SMALL
GASTEIGER

@<TRIPOS>ATOM
      1  C          5.5610    1.8770    1.4130 C.3     1  UNL1        0.0800
      2  C          5.0260    0.6620    2.0600 C.2     1  UNL1        0.1300
      3  C          5.8830   -0.5360    2.1630 C.3     1  UNL1        0.0870
      4  O          3.8990    0.6730    2.4910 O.2     1  UNL1       -0.3000
      5  C          5.4120    1.8080   -0.0920 C.3     1  UNL1        0.0430
      6  C          6.5260    1.0640   -0.6870 C.2     1  UNL1       -0.0440
      7  C          7.8270    1.4660   -0.4690 C.2     1  UNL1        0.0080
      8  C          6.3210   -0.0520   -1.4790 C.2     1  UNL1        0.0540
      9  C          8.9130    0.7870   -1.0160 C.2     1  UNL1        0.0510
     10  C          7.3860   -0.7510   -2.0400 C.2     1  UNL1        0.1660
     11  C          8.6760   -0.3240   -1.8030 C.2     1  UNL1        0.1650
     12  O          7.4870   -1.8780   -2.8560 O.2     1  UNL1       -0.4540
     13  O          9.5360   -1.1860   -2.4700 O.2     1  UNL1       -0.4540
     14  C          8.7910   -2.0110   -3.3610 C.3     1  UNL1        0.4680
@<TRIPOS>BOND
     1    14    12    1
     2    14    13    1
     3    12    10    1
     4    13    11    1
     5    10    11    2
     6    10     8    1
     7    11     9    1
     8     8     6    2
     9     9     7    2
    10     6     7    1
    11     6     5    1
    12     5     1    1
    13     1     2    1
    14     2     3    1
    15     2     4    2
