@<TRIPOS>MOLECULE
/home/cewinharhar/GITHUB/reincatalyze/data/processed/docking_pred/2023-May-31-1603_sub9_nm5_bs15_s42_ex16_mel10_mts1000_k50_ec05_g099_lra3e-4_lrc9e-3/bf1bd72bf83e0bbc7f208f1f88a3802cf16c22f1_ligand_9.pdbqt
 14 15 0 0 0
SMALL
GASTEIGER

@<TRIPOS>ATOM
      1  C          9.7350    1.3170    2.6090 C.3     1  UNL1        0.0800
      2  C         11.1690    0.9660    2.6570 C.2     1  UNL1        0.1300
      3  C         12.0670    1.7260    3.5500 C.3     1  UNL1        0.0870
      4  O         11.5770    0.0650    1.9670 O.2     1  UNL1       -0.3000
      5  C          9.3940    2.0570    1.3320 C.3     1  UNL1        0.0430
      6  C          8.6640    1.1830    0.4090 C.2     1  UNL1       -0.0440
      7  C          7.3010    1.0170    0.5380 C.2     1  UNL1        0.0080
      8  C          9.3020    0.4990   -0.6100 C.2     1  UNL1        0.0540
      9  C          6.5710    0.1960   -0.3170 C.2     1  UNL1        0.0510
     10  C          8.5990   -0.3300   -1.4810 C.2     1  UNL1        0.1660
     11  C          7.2360   -0.4750   -1.3260 C.2     1  UNL1        0.1650
     12  O          8.9590   -1.1230   -2.5700 O.2     1  UNL1       -0.4540
     13  O          6.7890   -1.3440   -2.3110 O.2     1  UNL1       -0.4540
     14  C          7.9030   -1.9740   -2.9360 C.3     1  UNL1        0.4680
@<TRIPOS>BOND
     1    14    12    1
     2    14    13    1
     3    12    10    1
     4    13    11    1
     5    10    11    2
     6    10     8    1
     7    11     9    1
     8     8     6    2
     9     9     7    2
    10     6     7    1
    11     6     5    1
    12     5     1    1
    13     4     2    2
    14     1     2    1
    15     2     3    1
