@<TRIPOS>MOLECULE
/home/cewinharhar/GITHUB/reincatalyze/data/processed/docking_pred/2023-May-31-1603_sub9_nm5_bs15_s42_ex16_mel10_mts1000_k50_ec05_g099_lra3e-4_lrc9e-3/bf1bd72bf83e0bbc7f208f1f88a3802cf16c22f1_ligand_9.pdbqt
 14 15 0 0 0
SMALL
GASTEIGER

@<TRIPOS>ATOM
      1  C          6.4480    1.3730    0.2800 C.3     1  UNL1        0.0800
      2  C          5.3570    1.1740    1.2560 C.2     1  UNL1        0.1300
      3  C          5.3170   -0.0730    2.0470 C.3     1  UNL1        0.0870
      4  O          4.5210    2.0330    1.3860 O.2     1  UNL1       -0.3000
      5  C          6.0550    0.8710   -1.0930 C.3     1  UNL1        0.0430
      6  C          6.9080   -0.2510   -1.4950 C.2     1  UNL1       -0.0440
      7  C          7.4500   -0.2950   -2.7630 C.2     1  UNL1        0.0080
      8  C          7.2010   -1.2940   -0.6340 C.2     1  UNL1        0.0540
      9  C          8.2640   -1.3420   -3.1840 C.2     1  UNL1        0.0510
     10  C          8.0130   -2.3550   -1.0270 C.2     1  UNL1        0.1660
     11  C          8.5390   -2.3700   -2.3020 C.2     1  UNL1        0.1650
     12  O          8.4700   -3.5120   -0.3970 O.2     1  UNL1       -0.4540
     13  O          9.3000   -3.5220   -2.4310 O.2     1  UNL1       -0.4540
     14  C          9.0480   -4.3900   -1.3290 C.3     1  UNL1        0.4680
@<TRIPOS>BOND
     1     9     7    1
     2     9    11    2
     3     7     6    2
     4    13    11    1
     5    13    14    1
     6    11    10    1
     7     6     5    1
     8     6     8    1
     9    14    12    1
    10     5     1    1
    11    10     8    2
    12    10    12    1
    13     1     2    1
    14     2     4    2
    15     2     3    1
