@<TRIPOS>MOLECULE
/home/cewinharhar/GITHUB/reincatalyze/data/processed/docking_pred/2023-May-31-1603_sub9_nm5_bs15_s42_ex16_mel10_mts1000_k50_ec05_g099_lra3e-4_lrc9e-3/bfaa3bc067c86e8b5ef89a85d12e30cfe25fe09e_ligand_9.pdbqt
 14 15 0 0 0
SMALL
GASTEIGER

@<TRIPOS>ATOM
      1  C          6.7520    0.8570    1.2350 C.3     1  UNL1        0.0800
      2  C          5.3100    1.1120    1.4190 C.2     1  UNL1        0.1300
      3  C          4.6340    2.0920    0.5460 C.3     1  UNL1        0.0870
      4  O          4.7120    0.5130    2.2790 O.2     1  UNL1       -0.3000
      5  C          7.1560    1.0120   -0.2170 C.3     1  UNL1        0.0430
      6  C          7.5980   -0.2730   -0.7690 C.2     1  UNL1       -0.0440
      7  C          7.6840   -0.4520   -2.1340 C.2     1  UNL1        0.0080
      8  C          7.9410   -1.3390    0.0440 C.2     1  UNL1        0.0540
      9  C          8.0980   -1.6560   -2.6970 C.2     1  UNL1        0.0510
     10  C          8.3590   -2.5550   -0.4910 C.2     1  UNL1        0.1660
     11  C          8.4340   -2.7030   -1.8610 C.2     1  UNL1        0.1650
     12  O          8.7580   -3.7730    0.0600 O.2     1  UNL1       -0.4540
     13  O          8.8720   -3.9940   -2.1230 O.2     1  UNL1       -0.4540
     14  C          8.8210   -4.7690   -0.9280 C.3     1  UNL1        0.4680
@<TRIPOS>BOND
     1     9     7    1
     2     9    11    2
     3     7     6    2
     4    13    11    1
     5    13    14    1
     6    11    10    1
     7    14    12    1
     8     6     5    1
     9     6     8    1
    10    10     8    2
    11    10    12    1
    12     5     1    1
    13     3     2    1
    14     1     2    1
    15     2     4    2
