@<TRIPOS>MOLECULE
/home/cewinharhar/GITHUB/reincatalyze/data/processed/docking_pred/2023-May-31-1603_sub9_nm5_bs15_s42_ex16_mel10_mts1000_k50_ec05_g099_lra3e-4_lrc9e-3/bfaa3bc067c86e8b5ef89a85d12e30cfe25fe09e_ligand_9.pdbqt
 14 15 0 0 0
SMALL
GASTEIGER

@<TRIPOS>ATOM
      1  C          5.6200    1.2890   -0.2670 C.3     1  UNL1        0.0800
      2  C          5.0260    1.2520    1.0850 C.2     1  UNL1        0.1300
      3  C          5.3450    0.1220    1.9810 C.3     1  UNL1        0.0870
      4  O          4.2940    2.1460    1.4290 O.2     1  UNL1       -0.3000
      5  C          7.1280    1.1590   -0.2090 C.3     1  UNL1        0.0430
      6  C          7.5590   -0.1120   -0.7980 C.2     1  UNL1       -0.0440
      7  C          7.5890   -0.2700   -2.1680 C.2     1  UNL1        0.0080
      8  C          7.9450   -1.1870   -0.0170 C.2     1  UNL1        0.0540
      9  C          7.9910   -1.4600   -2.7670 C.2     1  UNL1        0.0510
     10  C          8.3530   -2.3910   -0.5880 C.2     1  UNL1        0.1660
     11  C          8.3720   -2.5170   -1.9610 C.2     1  UNL1        0.1650
     12  O          8.7850   -3.6120   -0.0730 O.2     1  UNL1       -0.4540
     13  O          8.8110   -3.7980   -2.2610 O.2     1  UNL1       -0.4540
     14  C          8.8180   -4.5920   -1.0780 C.3     1  UNL1        0.4680
@<TRIPOS>BOND
     1     9     7    1
     2     9    11    2
     3    13    11    1
     4    13    14    1
     5     7     6    2
     6    11    10    1
     7    14    12    1
     8     6     5    1
     9     6     8    1
    10    10    12    1
    11    10     8    2
    12     1     5    1
    13     1     2    1
    14     2     4    2
    15     2     3    1
