@<TRIPOS>MOLECULE
/home/cewinharhar/GITHUB/reincatalyze/data/processed/docking_pred/2023-May-31-1603_sub9_nm5_bs15_s42_ex16_mel10_mts1000_k50_ec05_g099_lra3e-4_lrc9e-3/bfaa3bc067c86e8b5ef89a85d12e30cfe25fe09e_ligand_9.pdbqt
 14 15 0 0 0
SMALL
GASTEIGER

@<TRIPOS>ATOM
      1  C          5.3650   -0.0440    1.9660 C.3     1  UNL1        0.0800
      2  C          4.5430    1.1640    1.7580 C.2     1  UNL1        0.1300
      3  C          4.9260    2.1240    0.7030 C.3     1  UNL1        0.0870
      4  O          3.5740    1.3420    2.4540 O.2     1  UNL1       -0.3000
      5  C          6.8150    0.2110    1.6090 C.3     1  UNL1        0.0430
      6  C          7.2760   -0.7540    0.6060 C.2     1  UNL1       -0.0440
      7  C          7.0980   -0.4990   -0.7380 C.2     1  UNL1        0.0080
      8  C          7.8970   -1.9390    0.9600 C.2     1  UNL1        0.0540
      9  C          7.5200   -1.3890   -1.7220 C.2     1  UNL1        0.0510
     10  C          8.3300   -2.8480   -0.0020 C.2     1  UNL1        0.1660
     11  C          8.1370   -2.5640   -1.3380 C.2     1  UNL1        0.1650
     12  O          8.9680   -4.0870    0.0510 O.2     1  UNL1       -0.4540
     13  O          8.6540   -3.6220   -2.0730 O.2     1  UNL1       -0.4540
     14  C          8.9390   -4.7150   -1.2050 C.3     1  UNL1        0.4680
@<TRIPOS>BOND
     1    13    11    1
     2    13    14    1
     3     9    11    2
     4     9     7    1
     5    11    10    1
     6    14    12    1
     7     7     6    2
     8    10    12    1
     9    10     8    2
    10     6     8    1
    11     6     5    1
    12     3     2    1
    13     5     1    1
    14     2     1    1
    15     2     4    2
