@<TRIPOS>MOLECULE
/home/cewinharhar/GITHUB/reincatalyze/data/processed/docking_pred/2023-May-31-1603_sub9_nm5_bs15_s42_ex16_mel10_mts1000_k50_ec05_g099_lra3e-4_lrc9e-3/c054a7f490e8e5c171bc57af56a9ae5cb4d717f8_ligand_9.pdbqt
 14 15 0 0 0
SMALL
GASTEIGER

@<TRIPOS>ATOM
      1  C          5.6070    1.8110    1.3390 C.3     1  UNL1        0.0800
      2  C          5.1200    0.6220    2.0660 C.2     1  UNL1        0.1300
      3  C          6.0220   -0.5330    2.2450 C.3     1  UNL1        0.0870
      4  O          3.9940    0.6180    2.4990 O.2     1  UNL1       -0.3000
      5  C          5.4190    1.6560   -0.1560 C.3     1  UNL1        0.0430
      6  C          6.5520    0.9380   -0.7460 C.2     1  UNL1       -0.0440
      7  C          7.8390    1.4040   -0.5720 C.2     1  UNL1        0.0080
      8  C          6.3810   -0.2150   -1.4910 C.2     1  UNL1        0.0540
      9  C          8.9420    0.7520   -1.1160 C.2     1  UNL1        0.0510
     10  C          7.4650   -0.8890   -2.0480 C.2     1  UNL1        0.1660
     11  C          8.7390   -0.3980   -1.8550 C.2     1  UNL1        0.1650
     12  O          7.5980   -2.0410   -2.8230 O.2     1  UNL1       -0.4540
     13  O          9.6220   -1.2470   -2.5080 O.2     1  UNL1       -0.4540
     14  C          8.8960   -2.1370   -3.3500 C.3     1  UNL1        0.4680
@<TRIPOS>BOND
     1    14    12    1
     2    14    13    1
     3    12    10    1
     4    13    11    1
     5    10    11    2
     6    10     8    1
     7    11     9    1
     8     8     6    2
     9     9     7    2
    10     6     7    1
    11     6     5    1
    12     5     1    1
    13     1     2    1
    14     2     3    1
    15     2     4    2
