@<TRIPOS>MOLECULE
/home/cewinharhar/GITHUB/reincatalyze/data/processed/docking_pred/2023-May-31-1603_sub9_nm5_bs15_s42_ex16_mel10_mts1000_k50_ec05_g099_lra3e-4_lrc9e-3/c054a7f490e8e5c171bc57af56a9ae5cb4d717f8_ligand_9.pdbqt
 14 15 0 0 0
SMALL
GASTEIGER

@<TRIPOS>ATOM
      1  C          6.2600    1.2800    0.9680 C.3     1  UNL1        0.0800
      2  C          5.5730    0.4360    1.9660 C.2     1  UNL1        0.1300
      3  C          6.2670   -0.7490    2.5080 C.3     1  UNL1        0.0870
      4  O          4.4580    0.7330    2.3180 O.2     1  UNL1       -0.3000
      5  C          5.7620    0.9900   -0.4330 C.3     1  UNL1        0.0430
      6  C          6.7110    0.1330   -1.1500 C.2     1  UNL1       -0.0440
      7  C          7.3680    0.6040   -2.2670 C.2     1  UNL1        0.0080
      8  C          6.9810   -1.1620   -0.7430 C.2     1  UNL1        0.0540
      9  C          8.2760   -0.1770   -2.9770 C.2     1  UNL1        0.0510
     10  C          7.8840   -1.9670   -1.4320 C.2     1  UNL1        0.1660
     11  C          8.5250   -1.4670   -2.5460 C.2     1  UNL1        0.1650
     12  O          8.3460   -3.2730   -1.2640 O.2     1  UNL1       -0.4540
     13  O          9.3590   -2.4620   -3.0360 O.2     1  UNL1       -0.4540
     14  C          9.0550   -3.6990   -2.3980 C.3     1  UNL1        0.4680
@<TRIPOS>BOND
     1    13    11    1
     2    13    14    1
     3     9    11    2
     4     9     7    1
     5    11    10    1
     6    14    12    1
     7     7     6    2
     8    10    12    1
     9    10     8    2
    10     6     8    1
    11     6     5    1
    12     5     1    1
    13     1     2    1
    14     2     4    2
    15     2     3    1
