MODEL 1
REMARK VINA RESULT:      -7.5      0.000      0.000
REMARK SMILES CC(=O)CCc1ccc2c(c1)OCO2
REMARK SMILES IDX 4 1 2 2 1 3 3 4 5 5 6 6 7 7 11 8 8 9 10 10 9 11 12 12 14 13
REMARK SMILES IDX 13 14
REMARK H PARENT
REMARK Flexibility Score: inf
ROOT
ATOM      1  C   UNL     1       5.607   1.811   1.339  1.00  0.00     0.080 C 
ENDROOT
BRANCH   1   2
ATOM      2  C   UNL     1       5.120   0.622   2.066  1.00  0.00     0.130 C 
ATOM      3  C   UNL     1       6.022  -0.533   2.245  1.00  0.00     0.087 C 
ATOM      4  O   UNL     1       3.994   0.618   2.499  1.00  0.00    -0.300 OA
ENDBRANCH   1   2
BRANCH   1   5
ATOM      5  C   UNL     1       5.419   1.656  -0.156  1.00  0.00     0.043 C 
BRANCH   5   6
ATOM      6  C   UNL     1       6.552   0.938  -0.746  1.00  0.00    -0.044 A 
ATOM      7  C   UNL     1       7.839   1.404  -0.572  1.00  0.00     0.008 A 
ATOM      8  C   UNL     1       6.381  -0.215  -1.491  1.00  0.00     0.054 A 
ATOM      9  C   UNL     1       8.942   0.752  -1.116  1.00  0.00     0.051 A 
ATOM     10  C   UNL     1       7.465  -0.889  -2.048  1.00  0.00     0.166 A 
ATOM     11  C   UNL     1       8.739  -0.398  -1.855  1.00  0.00     0.165 A 
ATOM     12  O   UNL     1       7.598  -2.041  -2.823  1.00  0.00    -0.454 OA
ATOM     13  O   UNL     1       9.622  -1.247  -2.508  1.00  0.00    -0.454 OA
ATOM     14  C   UNL     1       8.896  -2.137  -3.350  1.00  0.00     0.468 C 
ENDBRANCH   5   6
ENDBRANCH   1   5
TORSDOF 3
ENDMDL
MODEL 2
REMARK VINA RESULT:      -7.3      1.956      2.374
REMARK SMILES CC(=O)CCc1ccc2c(c1)OCO2
REMARK SMILES IDX 4 1 2 2 1 3 3 4 5 5 6 6 7 7 11 8 8 9 10 10 9 11 12 12 14 13
REMARK SMILES IDX 13 14
REMARK H PARENT
REMARK Flexibility Score: inf
ROOT
ATOM      1  C   UNL     1       5.670   1.234  -0.234  1.00  0.00     0.080 C 
ENDROOT
BRANCH   1   2
ATOM      2  C   UNL     1       5.045   1.232   1.104  1.00  0.00     0.130 C 
ATOM      3  C   UNL     1       5.311   0.106   2.022  1.00  0.00     0.087 C 
ATOM      4  O   UNL     1       4.329   2.150   1.420  1.00  0.00    -0.300 OA
ENDBRANCH   1   2
BRANCH   1   5
ATOM      5  C   UNL     1       7.174   1.079  -0.137  1.00  0.00     0.043 C 
BRANCH   5   6
ATOM      6  C   UNL     1       7.597  -0.205  -0.705  1.00  0.00    -0.044 A 
ATOM      7  C   UNL     1       7.636  -0.382  -2.073  1.00  0.00     0.008 A 
ATOM      8  C   UNL     1       7.967  -1.272   0.093  1.00  0.00     0.054 A 
ATOM      9  C   UNL     1       8.030  -1.585  -2.652  1.00  0.00     0.051 A 
ATOM     10  C   UNL     1       8.366  -2.488  -0.457  1.00  0.00     0.166 A 
ATOM     11  C   UNL     1       8.394  -2.634  -1.828  1.00  0.00     0.165 A 
ATOM     12  O   UNL     1       8.783  -3.706   0.079  1.00  0.00    -0.454 OA
ATOM     13  O   UNL     1       8.823  -3.924  -2.107  1.00  0.00    -0.454 OA
ATOM     14  C   UNL     1       8.813  -4.701  -0.913  1.00  0.00     0.468 C 
ENDBRANCH   5   6
ENDBRANCH   1   5
TORSDOF 3
ENDMDL
MODEL 3
REMARK VINA RESULT:      -7.3      2.100      2.640
REMARK SMILES CC(=O)CCc1ccc2c(c1)OCO2
REMARK SMILES IDX 4 1 2 2 1 3 3 4 5 5 6 6 7 7 11 8 8 9 10 10 9 11 12 12 14 13
REMARK SMILES IDX 13 14
REMARK H PARENT
REMARK Flexibility Score: inf
ROOT
ATOM      1  C   UNL     1       5.454   0.007   1.885  1.00  0.00     0.080 C 
ENDROOT
BRANCH   1   2
ATOM      2  C   UNL     1       4.617   1.197   1.636  1.00  0.00     0.130 C 
ATOM      3  C   UNL     1       5.013   2.148   0.578  1.00  0.00     0.087 C 
ATOM      4  O   UNL     1       3.626   1.369   2.302  1.00  0.00    -0.300 OA
ENDBRANCH   1   2
BRANCH   1   5
ATOM      5  C   UNL     1       6.895   0.256   1.490  1.00  0.00     0.043 C 
BRANCH   5   6
ATOM      6  C   UNL     1       7.340  -0.741   0.512  1.00  0.00    -0.044 A 
ATOM      7  C   UNL     1       7.169  -0.516  -0.839  1.00  0.00     0.008 A 
ATOM      8  C   UNL     1       7.939  -1.928   0.896  1.00  0.00     0.054 A 
ATOM      9  C   UNL     1       7.578  -1.437  -1.800  1.00  0.00     0.051 A 
ATOM     10  C   UNL     1       8.358  -2.868  -0.042  1.00  0.00     0.166 A 
ATOM     11  C   UNL     1       8.173  -2.613  -1.385  1.00  0.00     0.165 A 
ATOM     12  O   UNL     1       8.973  -4.116   0.042  1.00  0.00    -0.454 OA
ATOM     13  O   UNL     1       8.672  -3.697  -2.093  1.00  0.00    -0.454 OA
ATOM     14  C   UNL     1       8.935  -4.774  -1.198  1.00  0.00     0.468 C 
ENDBRANCH   5   6
ENDBRANCH   1   5
TORSDOF 3
ENDMDL
MODEL 4
REMARK VINA RESULT:      -7.1      1.949      2.562
REMARK SMILES CC(=O)CCc1ccc2c(c1)OCO2
REMARK SMILES IDX 4 1 2 2 1 3 3 4 5 5 6 6 7 7 11 8 8 9 10 10 9 11 12 12 14 13
REMARK SMILES IDX 13 14
REMARK H PARENT
REMARK Flexibility Score: inf
ROOT
ATOM      1  C   UNL     1       6.772   0.696   1.037  1.00  0.00     0.080 C 
ENDROOT
BRANCH   1   2
ATOM      2  C   UNL     1       5.402   1.136   1.368  1.00  0.00     0.130 C 
ATOM      3  C   UNL     1       4.745   2.150   0.518  1.00  0.00     0.087 C 
ATOM      4  O   UNL     1       4.847   0.658   2.326  1.00  0.00    -0.300 OA
ENDBRANCH   1   2
BRANCH   1   5
ATOM      5  C   UNL     1       7.037   0.799  -0.451  1.00  0.00     0.043 C 
BRANCH   5   6
ATOM      6  C   UNL     1       7.572  -0.464  -0.967  1.00  0.00    -0.044 A 
ATOM      7  C   UNL     1       7.815  -0.619  -2.316  1.00  0.00     0.008 A 
ATOM      8  C   UNL     1       7.851  -1.536  -0.136  1.00  0.00     0.054 A 
ATOM      9  C   UNL     1       8.322  -1.802  -2.846  1.00  0.00     0.051 A 
ATOM     10  C   UNL     1       8.359  -2.732  -0.638  1.00  0.00     0.166 A 
ATOM     11  C   UNL     1       8.591  -2.855  -1.992  1.00  0.00     0.165 A 
ATOM     12  O   UNL     1       8.726  -3.948  -0.062  1.00  0.00    -0.454 OA
ATOM     13  O   UNL     1       9.090  -4.129  -2.221  1.00  0.00    -0.454 OA
ATOM     14  C   UNL     1       8.927  -4.925  -1.050  1.00  0.00     0.468 C 
ENDBRANCH   5   6
ENDBRANCH   1   5
TORSDOF 3
ENDMDL
MODEL 5
REMARK VINA RESULT:      -7.1      1.218      1.374
REMARK SMILES CC(=O)CCc1ccc2c(c1)OCO2
REMARK SMILES IDX 4 1 2 2 1 3 3 4 5 5 6 6 7 7 11 8 8 9 10 10 9 11 12 12 14 13
REMARK SMILES IDX 13 14
REMARK H PARENT
REMARK Flexibility Score: inf
ROOT
ATOM      1  C   UNL     1       6.260   1.280   0.968  1.00  0.00     0.080 C 
ENDROOT
BRANCH   1   2
ATOM      2  C   UNL     1       5.573   0.436   1.966  1.00  0.00     0.130 C 
ATOM      3  C   UNL     1       6.267  -0.749   2.508  1.00  0.00     0.087 C 
ATOM      4  O   UNL     1       4.458   0.733   2.318  1.00  0.00    -0.300 OA
ENDBRANCH   1   2
BRANCH   1   5
ATOM      5  C   UNL     1       5.762   0.990  -0.433  1.00  0.00     0.043 C 
BRANCH   5   6
ATOM      6  C   UNL     1       6.711   0.133  -1.150  1.00  0.00    -0.044 A 
ATOM      7  C   UNL     1       7.368   0.604  -2.267  1.00  0.00     0.008 A 
ATOM      8  C   UNL     1       6.981  -1.162  -0.743  1.00  0.00     0.054 A 
ATOM      9  C   UNL     1       8.276  -0.177  -2.977  1.00  0.00     0.051 A 
ATOM     10  C   UNL     1       7.884  -1.967  -1.432  1.00  0.00     0.166 A 
ATOM     11  C   UNL     1       8.525  -1.467  -2.546  1.00  0.00     0.165 A 
ATOM     12  O   UNL     1       8.346  -3.273  -1.264  1.00  0.00    -0.454 OA
ATOM     13  O   UNL     1       9.359  -2.462  -3.036  1.00  0.00    -0.454 OA
ATOM     14  C   UNL     1       9.055  -3.699  -2.398  1.00  0.00     0.468 C 
ENDBRANCH   5   6
ENDBRANCH   1   5
TORSDOF 3
ENDMDL
