@<TRIPOS>MOLECULE
/home/cewinharhar/GITHUB/reincatalyze/data/processed/docking_pred/2023-May-31-1603_sub9_nm5_bs15_s42_ex16_mel10_mts1000_k50_ec05_g099_lra3e-4_lrc9e-3/c054a7f490e8e5c171bc57af56a9ae5cb4d717f8_ligand_9.pdbqt
 14 15 0 0 0
SMALL
GASTEIGER

@<TRIPOS>ATOM
      1  C          5.6700    1.2340   -0.2340 C.3     1  UNL1        0.0800
      2  C          5.0450    1.2320    1.1040 C.2     1  UNL1        0.1300
      3  C          5.3110    0.1060    2.0220 C.3     1  UNL1        0.0870
      4  O          4.3290    2.1500    1.4200 O.2     1  UNL1       -0.3000
      5  C          7.1740    1.0790   -0.1370 C.3     1  UNL1        0.0430
      6  C          7.5970   -0.2050   -0.7050 C.2     1  UNL1       -0.0440
      7  C          7.6360   -0.3820   -2.0730 C.2     1  UNL1        0.0080
      8  C          7.9670   -1.2720    0.0930 C.2     1  UNL1        0.0540
      9  C          8.0300   -1.5850   -2.6520 C.2     1  UNL1        0.0510
     10  C          8.3660   -2.4880   -0.4570 C.2     1  UNL1        0.1660
     11  C          8.3940   -2.6340   -1.8280 C.2     1  UNL1        0.1650
     12  O          8.7830   -3.7060    0.0790 O.2     1  UNL1       -0.4540
     13  O          8.8230   -3.9240   -2.1070 O.2     1  UNL1       -0.4540
     14  C          8.8130   -4.7010   -0.9130 C.3     1  UNL1        0.4680
@<TRIPOS>BOND
     1     9     7    1
     2     9    11    2
     3    13    11    1
     4    13    14    1
     5     7     6    2
     6    11    10    1
     7    14    12    1
     8     6     5    1
     9     6     8    1
    10    10    12    1
    11    10     8    2
    12     1     5    1
    13     1     2    1
    14     2     4    2
    15     2     3    1
