@<TRIPOS>MOLECULE
/home/cewinharhar/GITHUB/reincatalyze/data/processed/docking_pred/2023-May-31-1603_sub9_nm5_bs15_s42_ex16_mel10_mts1000_k50_ec05_g099_lra3e-4_lrc9e-3/c2b16f598521213e119e3a09a49f7e8c9c89cc3b_ligand_9.pdbqt
 14 15 0 0 0
SMALL
GASTEIGER

@<TRIPOS>ATOM
      1  C          6.8570    1.0050    1.1010 C.3     1  UNL1        0.0800
      2  C          5.4280    1.1980    1.4190 C.2     1  UNL1        0.1300
      3  C          4.6340    2.1500    0.6160 C.3     1  UNL1        0.0870
      4  O          4.9380    0.5750    2.3280 O.2     1  UNL1       -0.3000
      5  C          7.1030    1.0840   -0.3910 C.3     1  UNL1        0.0430
      6  C          7.5610   -0.2090   -0.9070 C.2     1  UNL1       -0.0440
      7  C          7.6800   -0.4140   -2.2660 C.2     1  UNL1        0.0080
      8  C          7.8860   -1.2590   -0.0670 C.2     1  UNL1        0.0540
      9  C          8.1110   -1.6280   -2.7960 C.2     1  UNL1        0.0510
     10  C          8.3200   -2.4840   -0.5680 C.2     1  UNL1        0.1660
     11  C          8.4280   -2.6580   -1.9320 C.2     1  UNL1        0.1650
     12  O          8.7070   -3.6900    0.0160 O.2     1  UNL1       -0.4540
     13  O          8.8750   -3.9520   -2.1580 O.2     1  UNL1       -0.4540
     14  C          8.7970   -4.7040   -0.9510 C.3     1  UNL1        0.4680
@<TRIPOS>BOND
     1     9     7    1
     2     9    11    2
     3     7     6    2
     4    13    11    1
     5    13    14    1
     6    11    10    1
     7    14    12    1
     8     6     5    1
     9     6     8    1
    10    10     8    2
    11    10    12    1
    12     5     1    1
    13     3     2    1
    14     1     2    1
    15     2     4    2
