@<TRIPOS>MOLECULE
/home/cewinharhar/GITHUB/reincatalyze/data/processed/docking_pred/2023-May-31-1603_sub9_nm5_bs15_s42_ex16_mel10_mts1000_k50_ec05_g099_lra3e-4_lrc9e-3/c2bbe2b0b698b4c34a14c6b9d782c5d04fb4e97c_ligand_9.pdbqt
 14 15 0 0 0
SMALL
GASTEIGER

@<TRIPOS>ATOM
      1  C          5.7080    1.8050    1.4230 C.3     1  UNL1        0.0800
      2  C          5.1890    0.5910    2.0850 C.2     1  UNL1        0.1300
      3  C          6.0810   -0.5730    2.2580 C.3     1  UNL1        0.0870
      4  O          4.0460    0.5750    2.4710 O.2     1  UNL1       -0.3000
      5  C          5.5140    1.7380   -0.0770 C.3     1  UNL1        0.0430
      6  C          6.6100    0.9950   -0.7060 C.2     1  UNL1       -0.0440
      7  C          7.9130    1.4290   -0.5700 C.2     1  UNL1        0.0080
      8  C          6.3870   -0.1510   -1.4490 C.2     1  UNL1        0.0540
      9  C          8.9820    0.7530   -1.1520 C.2     1  UNL1        0.0510
     10  C          7.4370   -0.8480   -2.0420 C.2     1  UNL1        0.1660
     11  C          8.7280   -0.3890   -1.8880 C.2     1  UNL1        0.1650
     12  O          7.5170   -2.0000   -2.8250 O.2     1  UNL1       -0.4540
     13  O          9.5690   -1.2560   -2.5710 O.2     1  UNL1       -0.4540
     14  C          8.7950   -2.1260   -3.3930 C.3     1  UNL1        0.4680
@<TRIPOS>BOND
     1    14    12    1
     2    14    13    1
     3    12    10    1
     4    13    11    1
     5    10    11    2
     6    10     8    1
     7    11     9    1
     8     8     6    2
     9     9     7    2
    10     6     7    1
    11     6     5    1
    12     5     1    1
    13     1     2    1
    14     2     3    1
    15     2     4    2
