@<TRIPOS>MOLECULE
/home/cewinharhar/GITHUB/reincatalyze/data/processed/docking_pred/2023-May-31-1603_sub9_nm5_bs15_s42_ex16_mel10_mts1000_k50_ec05_g099_lra3e-4_lrc9e-3/c41b095924a444a7b197c2c75a7a2c7ef1aa4cd1_ligand_9.pdbqt
 14 15 0 0 0
SMALL
GASTEIGER

@<TRIPOS>ATOM
      1  C          5.9160    0.1360    1.1220 C.3     1  UNL1        0.0800
      2  C          5.0580    1.3260    0.9520 C.2     1  UNL1        0.1300
      3  C          5.1390    2.1000   -0.3030 C.3     1  UNL1        0.0870
      4  O          4.3090    1.6410    1.8430 O.2     1  UNL1       -0.3000
      5  C          7.1820    0.2500    0.2970 C.3     1  UNL1        0.0430
      6  C          8.3200    0.6110    1.1480 C.2     1  UNL1       -0.0440
      7  C          8.2270    1.6750    2.0210 C.2     1  UNL1        0.0080
      8  C          9.5130   -0.0880    1.1100 C.2     1  UNL1        0.0540
      9  C          9.2840    2.0500    2.8450 C.2     1  UNL1        0.0510
     10  C         10.5880    0.2640    1.9220 C.2     1  UNL1        0.1660
     11  C         10.4640    1.3330    2.7850 C.2     1  UNL1        0.1650
     12  O         11.8770   -0.2390    2.0990 O.2     1  UNL1       -0.4540
     13  O         11.6650    1.4660    3.4680 O.2     1  UNL1       -0.4540
     14  C         12.6590    0.6520    2.8530 C.3     1  UNL1        0.4680
@<TRIPOS>BOND
     1     3     2    1
     2     5     1    1
     3     5     6    1
     4     2     1    1
     5     2     4    2
     6     8     6    2
     7     8    10    1
     8     6     7    1
     9    10    12    1
    10    10    11    2
    11     7     9    2
    12    12    14    1
    13    11     9    1
    14    11    13    1
    15    14    13    1
