@<TRIPOS>MOLECULE
/home/cewinharhar/GITHUB/reincatalyze/data/processed/docking_pred/2023-May-31-1603_sub9_nm5_bs15_s42_ex16_mel10_mts1000_k50_ec05_g099_lra3e-4_lrc9e-3/c41b095924a444a7b197c2c75a7a2c7ef1aa4cd1_ligand_9.pdbqt
 14 15 0 0 0
SMALL
GASTEIGER

@<TRIPOS>ATOM
      1  C          5.5860    1.8670    1.4100 C.3     1  UNL1        0.0800
      2  C          5.0690    0.6520    2.0720 C.2     1  UNL1        0.1300
      3  C          5.9530   -0.5230    2.2130 C.3     1  UNL1        0.0870
      4  O          3.9360    0.6450    2.4840 O.2     1  UNL1       -0.3000
      5  C          5.4240    1.7850   -0.0940 C.3     1  UNL1        0.0430
      6  C          6.5380    1.0430   -0.6920 C.2     1  UNL1       -0.0440
      7  C          7.8390    1.4470   -0.4770 C.2     1  UNL1        0.0080
      8  C          6.3330   -0.0730   -1.4840 C.2     1  UNL1        0.0540
      9  C          8.9240    0.7710   -1.0280 C.2     1  UNL1        0.0510
     10  C          7.3990   -0.7700   -2.0480 C.2     1  UNL1        0.1660
     11  C          8.6880   -0.3410   -1.8140 C.2     1  UNL1        0.1650
     12  O          7.4990   -1.8960   -2.8650 O.2     1  UNL1       -0.4540
     13  O          9.5480   -1.2000   -2.4840 O.2     1  UNL1       -0.4540
     14  C          8.8020   -2.0270   -3.3730 C.3     1  UNL1        0.4680
@<TRIPOS>BOND
     1    14    12    1
     2    14    13    1
     3    12    10    1
     4    13    11    1
     5    10    11    2
     6    10     8    1
     7    11     9    1
     8     8     6    2
     9     9     7    2
    10     6     7    1
    11     6     5    1
    12     5     1    1
    13     1     2    1
    14     2     3    1
    15     2     4    2
