@<TRIPOS>MOLECULE
/home/cewinharhar/GITHUB/reincatalyze/data/processed/docking_pred/2023-May-31-1603_sub9_nm5_bs15_s42_ex16_mel10_mts1000_k50_ec05_g099_lra3e-4_lrc9e-3/c41b095924a444a7b197c2c75a7a2c7ef1aa4cd1_ligand_9.pdbqt
 14 15 0 0 0
SMALL
GASTEIGER

@<TRIPOS>ATOM
      1  C          6.5000    1.2960    0.3650 C.3     1  UNL1        0.0800
      2  C          5.3420    1.2230    1.2790 C.2     1  UNL1        0.1300
      3  C          5.1790    0.0360    2.1420 C.3     1  UNL1        0.0870
      4  O          4.5530    2.1350    1.3020 O.2     1  UNL1       -0.3000
      5  C          6.1380    0.8000   -1.0200 C.3     1  UNL1        0.0430
      6  C          6.9350   -0.3790   -1.3700 C.2     1  UNL1       -0.0440
      7  C          7.3500   -0.5790   -2.6700 C.2     1  UNL1        0.0080
      8  C          7.2960   -1.3250   -0.4260 C.2     1  UNL1        0.0540
      9  C          8.1070   -1.6860   -3.0440 C.2     1  UNL1        0.0510
     10  C          8.0530   -2.4420   -0.7700 C.2     1  UNL1        0.1660
     11  C          8.4530   -2.6130   -2.0790 C.2     1  UNL1        0.1650
     12  O          8.5550   -3.5310   -0.0580 O.2     1  UNL1       -0.4540
     13  O          9.1840   -3.7910   -2.1470 O.2     1  UNL1       -0.4540
     14  C          9.0280   -4.5220   -0.9340 C.3     1  UNL1        0.4680
@<TRIPOS>BOND
     1     9     7    1
     2     9    11    2
     3     7     6    2
     4    13    11    1
     5    13    14    1
     6    11    10    1
     7     6     5    1
     8     6     8    1
     9     5     1    1
    10    14    12    1
    11    10     8    2
    12    10    12    1
    13     1     2    1
    14     2     4    2
    15     2     3    1
