@<TRIPOS>MOLECULE
/home/cewinharhar/GITHUB/reincatalyze/data/processed/docking_pred/2023-May-31-1603_sub9_nm5_bs15_s42_ex16_mel10_mts1000_k50_ec05_g099_lra3e-4_lrc9e-3/c41b095924a444a7b197c2c75a7a2c7ef1aa4cd1_ligand_9.pdbqt
 14 15 0 0 0
SMALL
GASTEIGER

@<TRIPOS>ATOM
      1  C          9.7490    1.3180    2.6000 C.3     1  UNL1        0.0800
      2  C         11.1810    0.9610    2.6580 C.2     1  UNL1        0.1300
      3  C         12.0800    1.7270    3.5450 C.3     1  UNL1        0.0870
      4  O         11.5880    0.0500    1.9790 O.2     1  UNL1       -0.3000
      5  C          9.4190    2.0550    1.3190 C.3     1  UNL1        0.0430
      6  C          8.6820    1.1840    0.3990 C.2     1  UNL1       -0.0440
      7  C          7.3170    1.0310    0.5270 C.2     1  UNL1        0.0080
      8  C          9.3150    0.4910   -0.6180 C.2     1  UNL1        0.0540
      9  C          6.5810    0.2120   -0.3260 C.2     1  UNL1        0.0510
     10  C          8.6060   -0.3350   -1.4860 C.2     1  UNL1        0.1660
     11  C          7.2410   -0.4670   -1.3320 C.2     1  UNL1        0.1650
     12  O          8.9600   -1.1350   -2.5730 O.2     1  UNL1       -0.4540
     13  O          6.7880   -1.3360   -2.3140 O.2     1  UNL1       -0.4540
     14  C          7.8980   -1.9780   -2.9360 C.3     1  UNL1        0.4680
@<TRIPOS>BOND
     1    14    12    1
     2    14    13    1
     3    12    10    1
     4    13    11    1
     5    10    11    2
     6    10     8    1
     7    11     9    1
     8     8     6    2
     9     9     7    2
    10     6     7    1
    11     6     5    1
    12     5     1    1
    13     4     2    2
    14     1     2    1
    15     2     3    1
