MODEL 1
REMARK VINA RESULT:      -7.5      0.000      0.000
REMARK SMILES CC(=O)CCc1ccc2c(c1)OCO2
REMARK SMILES IDX 4 1 2 2 1 3 3 4 5 5 6 6 7 7 11 8 8 9 10 10 9 11 12 12 14 13
REMARK SMILES IDX 13 14
REMARK H PARENT
REMARK Flexibility Score: inf
ROOT
ATOM      1  C   UNL     1       5.624   1.811   1.355  1.00  0.00     0.080 C 
ENDROOT
BRANCH   1   2
ATOM      2  C   UNL     1       5.139   0.618   2.077  1.00  0.00     0.130 C 
ATOM      3  C   UNL     1       6.046  -0.535   2.254  1.00  0.00     0.087 C 
ATOM      4  O   UNL     1       4.012   0.608   2.506  1.00  0.00    -0.300 OA
ENDBRANCH   1   2
BRANCH   1   5
ATOM      5  C   UNL     1       5.436   1.663  -0.140  1.00  0.00     0.043 C 
BRANCH   5   6
ATOM      6  C   UNL     1       6.568   0.943  -0.732  1.00  0.00    -0.044 A 
ATOM      7  C   UNL     1       7.854   1.413  -0.569  1.00  0.00     0.008 A 
ATOM      8  C   UNL     1       6.394  -0.216  -1.468  1.00  0.00     0.054 A 
ATOM      9  C   UNL     1       8.956   0.760  -1.116  1.00  0.00     0.051 A 
ATOM     10  C   UNL     1       7.476  -0.891  -2.027  1.00  0.00     0.166 A 
ATOM     11  C   UNL     1       8.751  -0.396  -1.845  1.00  0.00     0.165 A 
ATOM     12  O   UNL     1       7.607  -2.049  -2.794  1.00  0.00    -0.454 OA
ATOM     13  O   UNL     1       9.631  -1.248  -2.497  1.00  0.00    -0.454 OA
ATOM     14  C   UNL     1       8.902  -2.146  -3.328  1.00  0.00     0.468 C 
ENDBRANCH   5   6
ENDBRANCH   1   5
TORSDOF 3
ENDMDL
MODEL 2
REMARK VINA RESULT:      -7.3      2.053      2.628
REMARK SMILES CC(=O)CCc1ccc2c(c1)OCO2
REMARK SMILES IDX 4 1 2 2 1 3 3 4 5 5 6 6 7 7 11 8 8 9 10 10 9 11 12 12 14 13
REMARK SMILES IDX 13 14
REMARK H PARENT
REMARK Flexibility Score: inf
ROOT
ATOM      1  C   UNL     1       5.361  -0.041   1.969  1.00  0.00     0.080 C 
ENDROOT
BRANCH   1   2
ATOM      2  C   UNL     1       4.536   1.166   1.762  1.00  0.00     0.130 C 
ATOM      3  C   UNL     1       4.920   2.129   0.710  1.00  0.00     0.087 C 
ATOM      4  O   UNL     1       3.565   1.340   2.455  1.00  0.00    -0.300 OA
ENDBRANCH   1   2
BRANCH   1   5
ATOM      5  C   UNL     1       6.811   0.217   1.612  1.00  0.00     0.043 C 
BRANCH   5   6
ATOM      6  C   UNL     1       7.274  -0.748   0.610  1.00  0.00    -0.044 A 
ATOM      7  C   UNL     1       7.100  -0.493  -0.734  1.00  0.00     0.008 A 
ATOM      8  C   UNL     1       7.892  -1.933   0.966  1.00  0.00     0.054 A 
ATOM      9  C   UNL     1       7.524  -1.383  -1.717  1.00  0.00     0.051 A 
ATOM     10  C   UNL     1       8.328  -2.843   0.005  1.00  0.00     0.166 A 
ATOM     11  C   UNL     1       8.139  -2.559  -1.331  1.00  0.00     0.165 A 
ATOM     12  O   UNL     1       8.965  -4.082   0.060  1.00  0.00    -0.454 OA
ATOM     13  O   UNL     1       8.658  -3.617  -2.065  1.00  0.00    -0.454 OA
ATOM     14  C   UNL     1       8.939  -4.710  -1.196  1.00  0.00     0.468 C 
ENDBRANCH   5   6
ENDBRANCH   1   5
TORSDOF 3
ENDMDL
MODEL 3
REMARK VINA RESULT:      -7.3      1.929      2.361
REMARK SMILES CC(=O)CCc1ccc2c(c1)OCO2
REMARK SMILES IDX 4 1 2 2 1 3 3 4 5 5 6 6 7 7 11 8 8 9 10 10 9 11 12 12 14 13
REMARK SMILES IDX 13 14
REMARK H PARENT
REMARK Flexibility Score: inf
ROOT
ATOM      1  C   UNL     1       5.699   1.244  -0.194  1.00  0.00     0.080 C 
ENDROOT
BRANCH   1   2
ATOM      2  C   UNL     1       5.084   1.233   1.148  1.00  0.00     0.130 C 
ATOM      3  C   UNL     1       5.371   0.110   2.064  1.00  0.00     0.087 C 
ATOM      4  O   UNL     1       4.360   2.142   1.470  1.00  0.00    -0.300 OA
ENDBRANCH   1   2
BRANCH   1   5
ATOM      5  C   UNL     1       7.201   1.072  -0.111  1.00  0.00     0.043 C 
BRANCH   5   6
ATOM      6  C   UNL     1       7.607  -0.209  -0.697  1.00  0.00    -0.044 A 
ATOM      7  C   UNL     1       7.611  -0.379  -2.066  1.00  0.00     0.008 A 
ATOM      8  C   UNL     1       7.994  -1.282   0.086  1.00  0.00     0.054 A 
ATOM      9  C   UNL     1       7.988  -1.579  -2.661  1.00  0.00     0.051 A 
ATOM     10  C   UNL     1       8.377  -2.495  -0.481  1.00  0.00     0.166 A 
ATOM     11  C   UNL     1       8.370  -2.634  -1.853  1.00  0.00     0.165 A 
ATOM     12  O   UNL     1       8.804  -3.718   0.037  1.00  0.00    -0.454 OA
ATOM     13  O   UNL     1       8.789  -3.923  -2.150  1.00  0.00    -0.454 OA
ATOM     14  C   UNL     1       8.807  -4.706  -0.960  1.00  0.00     0.468 C 
ENDBRANCH   5   6
ENDBRANCH   1   5
TORSDOF 3
ENDMDL
MODEL 4
REMARK VINA RESULT:      -7.1      1.246      1.435
REMARK SMILES CC(=O)CCc1ccc2c(c1)OCO2
REMARK SMILES IDX 4 1 2 2 1 3 3 4 5 5 6 6 7 7 11 8 8 9 10 10 9 11 12 12 14 13
REMARK SMILES IDX 13 14
REMARK H PARENT
REMARK Flexibility Score: inf
ROOT
ATOM      1  C   UNL     1       6.323   1.229   0.967  1.00  0.00     0.080 C 
ENDROOT
BRANCH   1   2
ATOM      2  C   UNL     1       5.598   0.410   1.959  1.00  0.00     0.130 C 
ATOM      3  C   UNL     1       6.251  -0.791   2.518  1.00  0.00     0.087 C 
ATOM      4  O   UNL     1       4.487   0.740   2.294  1.00  0.00    -0.300 OA
ENDBRANCH   1   2
BRANCH   1   5
ATOM      5  C   UNL     1       5.822   0.960  -0.437  1.00  0.00     0.043 C 
BRANCH   5   6
ATOM      6  C   UNL     1       6.750   0.081  -1.156  1.00  0.00    -0.044 A 
ATOM      7  C   UNL     1       7.377   0.520  -2.303  1.00  0.00     0.008 A 
ATOM      8  C   UNL     1       7.029  -1.202  -0.720  1.00  0.00     0.054 A 
ATOM      9  C   UNL     1       8.264  -0.284  -3.015  1.00  0.00     0.051 A 
ATOM     10  C   UNL     1       7.911  -2.029  -1.411  1.00  0.00     0.166 A 
ATOM     11  C   UNL     1       8.523  -1.561  -2.555  1.00  0.00     0.165 A 
ATOM     12  O   UNL     1       8.375  -3.330  -1.219  1.00  0.00    -0.454 OA
ATOM     13  O   UNL     1       9.341  -2.571  -3.040  1.00  0.00    -0.454 OA
ATOM     14  C   UNL     1       9.053  -3.790  -2.360  1.00  0.00     0.468 C 
ENDBRANCH   5   6
ENDBRANCH   1   5
TORSDOF 3
ENDMDL
MODEL 5
REMARK VINA RESULT:      -7.0      1.206      5.199
REMARK SMILES CC(=O)CCc1ccc2c(c1)OCO2
REMARK SMILES IDX 4 1 2 2 1 3 3 4 5 5 6 6 7 7 11 8 8 9 10 10 9 11 12 12 14 13
REMARK SMILES IDX 13 14
REMARK H PARENT
REMARK Flexibility Score: inf
ROOT
ATOM      1  C   UNL     1       8.314   0.175  -2.588  1.00  0.00     0.080 C 
ENDROOT
BRANCH   1   2
ATOM      2  C   UNL     1       8.019  -1.264  -2.740  1.00  0.00     0.130 C 
ATOM      3  C   UNL     1       9.127  -2.201  -3.019  1.00  0.00     0.087 C 
ATOM      4  O   UNL     1       6.880  -1.646  -2.633  1.00  0.00    -0.300 OA
ENDBRANCH   1   2
BRANCH   1   5
ATOM      5  C   UNL     1       8.870   0.479  -1.213  1.00  0.00     0.043 C 
BRANCH   5   6
ATOM      6  C   UNL     1       7.811   0.410  -0.202  1.00  0.00    -0.044 A 
ATOM      7  C   UNL     1       7.819  -0.589   0.749  1.00  0.00     0.008 A 
ATOM      8  C   UNL     1       6.777   1.329  -0.161  1.00  0.00     0.054 A 
ATOM      9  C   UNL     1       6.831  -0.690   1.725  1.00  0.00     0.051 A 
ATOM     10  C   UNL     1       5.775   1.254   0.804  1.00  0.00     0.166 A 
ATOM     11  C   UNL     1       5.811   0.243   1.741  1.00  0.00     0.165 A 
ATOM     12  O   UNL     1       4.641   2.015   1.087  1.00  0.00    -0.454 OA
ATOM     13  O   UNL     1       4.711   0.398   2.572  1.00  0.00    -0.454 OA
ATOM     14  C   UNL     1       3.815   1.351   2.008  1.00  0.00     0.468 C 
ENDBRANCH   5   6
ENDBRANCH   1   5
TORSDOF 3
ENDMDL
