@<TRIPOS>MOLECULE
/home/cewinharhar/GITHUB/reincatalyze/data/processed/docking_pred/2023-May-31-1603_sub9_nm5_bs15_s42_ex16_mel10_mts1000_k50_ec05_g099_lra3e-4_lrc9e-3/c61eb663c2c3330cf201d691d278f59eb7eebd68_ligand_9.pdbqt
 14 15 0 0 0
SMALL
GASTEIGER

@<TRIPOS>ATOM
      1  C          5.3840   -0.0040    2.0010 C.3     1  UNL1        0.0800
      2  C          4.5320    1.1780    1.7610 C.2     1  UNL1        0.1300
      3  C          4.9100    2.1350    0.7020 C.3     1  UNL1        0.0870
      4  O          3.5440    1.3370    2.4350 O.2     1  UNL1       -0.3000
      5  C          6.8220    0.2670    1.6100 C.3     1  UNL1        0.0430
      6  C          7.2760   -0.7060    0.6120 C.2     1  UNL1       -0.0440
      7  C          7.0980   -0.4590   -0.7340 C.2     1  UNL1        0.0080
      8  C          7.8910   -1.8920    0.9730 C.2     1  UNL1        0.0540
      9  C          7.5150   -1.3570   -1.7120 C.2     1  UNL1        0.0510
     10  C          8.3190   -2.8100    0.0160 C.2     1  UNL1        0.1660
     11  C          8.1260   -2.5330   -1.3210 C.2     1  UNL1        0.1650
     12  O          8.9510   -4.0520    0.0760 O.2     1  UNL1       -0.4540
     13  O          8.6370   -3.5980   -2.0500 O.2     1  UNL1       -0.4540
     14  C          8.9160   -4.6880   -1.1760 C.3     1  UNL1        0.4680
@<TRIPOS>BOND
     1    13    11    1
     2    13    14    1
     3     9    11    2
     4     9     7    1
     5    11    10    1
     6    14    12    1
     7     7     6    2
     8    10    12    1
     9    10     8    2
    10     6     8    1
    11     6     5    1
    12     3     2    1
    13     5     1    1
    14     2     1    1
    15     2     4    2
