MODEL 1
REMARK VINA RESULT:      -7.6      0.000      0.000
REMARK SMILES CC(=O)CCc1ccc2c(c1)OCO2
REMARK SMILES IDX 4 1 2 2 1 3 3 4 5 5 6 6 7 7 11 8 8 9 10 10 9 11 12 12 14 13
REMARK SMILES IDX 13 14
REMARK H PARENT
REMARK Flexibility Score: inf
ROOT
ATOM      1  C   UNL     1       5.611   1.816   1.333  1.00  0.00     0.080 C 
ENDROOT
BRANCH   1   2
ATOM      2  C   UNL     1       5.127   0.628   2.065  1.00  0.00     0.130 C 
ATOM      3  C   UNL     1       6.023  -0.535   2.224  1.00  0.00     0.087 C 
ATOM      4  O   UNL     1       4.009   0.633   2.518  1.00  0.00    -0.300 OA
ENDBRANCH   1   2
BRANCH   1   5
ATOM      5  C   UNL     1       5.420   1.656  -0.161  1.00  0.00     0.043 C 
BRANCH   5   6
ATOM      6  C   UNL     1       6.553   0.938  -0.751  1.00  0.00    -0.044 A 
ATOM      7  C   UNL     1       7.839   1.410  -0.586  1.00  0.00     0.008 A 
ATOM      8  C   UNL     1       6.382  -0.221  -1.487  1.00  0.00     0.054 A 
ATOM      9  C   UNL     1       8.942   0.758  -1.131  1.00  0.00     0.051 A 
ATOM     10  C   UNL     1       7.467  -0.895  -2.044  1.00  0.00     0.166 A 
ATOM     11  C   UNL     1       8.740  -0.398  -1.861  1.00  0.00     0.165 A 
ATOM     12  O   UNL     1       7.601  -2.052  -2.811  1.00  0.00    -0.454 OA
ATOM     13  O   UNL     1       9.623  -1.248  -2.511  1.00  0.00    -0.454 OA
ATOM     14  C   UNL     1       8.896  -2.148  -3.344  1.00  0.00     0.468 C 
ENDBRANCH   5   6
ENDBRANCH   1   5
TORSDOF 3
ENDMDL
MODEL 2
REMARK VINA RESULT:      -7.4      1.897      2.349
REMARK SMILES CC(=O)CCc1ccc2c(c1)OCO2
REMARK SMILES IDX 4 1 2 2 1 3 3 4 5 5 6 6 7 7 11 8 8 9 10 10 9 11 12 12 14 13
REMARK SMILES IDX 13 14
REMARK H PARENT
REMARK Flexibility Score: inf
ROOT
ATOM      1  C   UNL     1       5.699   1.197  -0.315  1.00  0.00     0.080 C 
ENDROOT
BRANCH   1   2
ATOM      2  C   UNL     1       5.111   1.227   1.040  1.00  0.00     0.130 C 
ATOM      3  C   UNL     1       5.415   0.131   1.982  1.00  0.00     0.087 C 
ATOM      4  O   UNL     1       4.395   2.146   1.349  1.00  0.00    -0.300 OA
ENDBRANCH   1   2
BRANCH   1   5
ATOM      5  C   UNL     1       7.207   1.069  -0.256  1.00  0.00     0.043 C 
BRANCH   5   6
ATOM      6  C   UNL     1       7.639  -0.207  -0.833  1.00  0.00    -0.044 A 
ATOM      7  C   UNL     1       7.708  -0.365  -2.202  1.00  0.00     0.008 A 
ATOM      8  C   UNL     1       7.987  -1.288  -0.042  1.00  0.00     0.054 A 
ATOM      9  C   UNL     1       8.112  -1.560  -2.790  1.00  0.00     0.051 A 
ATOM     10  C   UNL     1       8.396  -2.496  -0.602  1.00  0.00     0.166 A 
ATOM     11  C   UNL     1       8.455  -2.622  -1.974  1.00  0.00     0.165 A 
ATOM     12  O   UNL     1       8.797  -3.724  -0.075  1.00  0.00    -0.454 OA
ATOM     13  O   UNL     1       8.885  -3.909  -2.262  1.00  0.00    -0.454 OA
ATOM     14  C   UNL     1       8.846  -4.704  -1.079  1.00  0.00     0.468 C 
ENDBRANCH   5   6
ENDBRANCH   1   5
TORSDOF 3
ENDMDL
MODEL 3
REMARK VINA RESULT:      -7.4      2.049      2.618
REMARK SMILES CC(=O)CCc1ccc2c(c1)OCO2
REMARK SMILES IDX 4 1 2 2 1 3 3 4 5 5 6 6 7 7 11 8 8 9 10 10 9 11 12 12 14 13
REMARK SMILES IDX 13 14
REMARK H PARENT
REMARK Flexibility Score: inf
ROOT
ATOM      1  C   UNL     1       5.384  -0.004   2.001  1.00  0.00     0.080 C 
ENDROOT
BRANCH   1   2
ATOM      2  C   UNL     1       4.532   1.178   1.761  1.00  0.00     0.130 C 
ATOM      3  C   UNL     1       4.910   2.135   0.702  1.00  0.00     0.087 C 
ATOM      4  O   UNL     1       3.544   1.337   2.435  1.00  0.00    -0.300 OA
ENDBRANCH   1   2
BRANCH   1   5
ATOM      5  C   UNL     1       6.822   0.267   1.610  1.00  0.00     0.043 C 
BRANCH   5   6
ATOM      6  C   UNL     1       7.276  -0.706   0.612  1.00  0.00    -0.044 A 
ATOM      7  C   UNL     1       7.098  -0.459  -0.734  1.00  0.00     0.008 A 
ATOM      8  C   UNL     1       7.891  -1.892   0.973  1.00  0.00     0.054 A 
ATOM      9  C   UNL     1       7.515  -1.357  -1.712  1.00  0.00     0.051 A 
ATOM     10  C   UNL     1       8.319  -2.810   0.016  1.00  0.00     0.166 A 
ATOM     11  C   UNL     1       8.126  -2.533  -1.321  1.00  0.00     0.165 A 
ATOM     12  O   UNL     1       8.951  -4.052   0.076  1.00  0.00    -0.454 OA
ATOM     13  O   UNL     1       8.637  -3.598  -2.050  1.00  0.00    -0.454 OA
ATOM     14  C   UNL     1       8.916  -4.688  -1.176  1.00  0.00     0.468 C 
ENDBRANCH   5   6
ENDBRANCH   1   5
TORSDOF 3
ENDMDL
MODEL 4
REMARK VINA RESULT:      -7.1      1.228      1.389
REMARK SMILES CC(=O)CCc1ccc2c(c1)OCO2
REMARK SMILES IDX 4 1 2 2 1 3 3 4 5 5 6 6 7 7 11 8 8 9 10 10 9 11 12 12 14 13
REMARK SMILES IDX 13 14
REMARK H PARENT
REMARK Flexibility Score: inf
ROOT
ATOM      1  C   UNL     1       6.292   1.254   0.990  1.00  0.00     0.080 C 
ENDROOT
BRANCH   1   2
ATOM      2  C   UNL     1       5.601   0.410   1.985  1.00  0.00     0.130 C 
ATOM      3  C   UNL     1       6.297  -0.769   2.539  1.00  0.00     0.087 C 
ATOM      4  O   UNL     1       4.481   0.701   2.326  1.00  0.00    -0.300 OA
ENDBRANCH   1   2
BRANCH   1   5
ATOM      5  C   UNL     1       5.784   0.979  -0.410  1.00  0.00     0.043 C 
BRANCH   5   6
ATOM      6  C   UNL     1       6.721   0.117  -1.137  1.00  0.00    -0.044 A 
ATOM      7  C   UNL     1       7.356   0.579  -2.271  1.00  0.00     0.008 A 
ATOM      8  C   UNL     1       7.002  -1.173  -0.723  1.00  0.00     0.054 A 
ATOM      9  C   UNL     1       8.252  -0.208  -2.990  1.00  0.00     0.051 A 
ATOM     10  C   UNL     1       7.893  -1.984  -1.421  1.00  0.00     0.166 A 
ATOM     11  C   UNL     1       8.512  -1.492  -2.552  1.00  0.00     0.165 A 
ATOM     12  O   UNL     1       8.360  -3.286  -1.249  1.00  0.00    -0.454 OA
ATOM     13  O   UNL     1       9.338  -2.491  -3.049  1.00  0.00    -0.454 OA
ATOM     14  C   UNL     1       9.049  -3.722  -2.393  1.00  0.00     0.468 C 
ENDBRANCH   5   6
ENDBRANCH   1   5
TORSDOF 3
ENDMDL
MODEL 5
REMARK VINA RESULT:      -7.1      1.965      2.550
REMARK SMILES CC(=O)CCc1ccc2c(c1)OCO2
REMARK SMILES IDX 4 1 2 2 1 3 3 4 5 5 6 6 7 7 11 8 8 9 10 10 9 11 12 12 14 13
REMARK SMILES IDX 13 14
REMARK H PARENT
REMARK Flexibility Score: inf
ROOT
ATOM      1  C   UNL     1       6.803   0.731   1.146  1.00  0.00     0.080 C 
ENDROOT
BRANCH   1   2
ATOM      2  C   UNL     1       5.408   1.141   1.402  1.00  0.00     0.130 C 
ATOM      3  C   UNL     1       4.780   2.150   0.525  1.00  0.00     0.087 C 
ATOM      4  O   UNL     1       4.808   0.643   2.322  1.00  0.00    -0.300 OA
ENDBRANCH   1   2
BRANCH   1   5
ATOM      5  C   UNL     1       7.156   0.871  -0.320  1.00  0.00     0.043 C 
BRANCH   5   6
ATOM      6  C   UNL     1       7.638  -0.405  -0.858  1.00  0.00    -0.044 A 
ATOM      7  C   UNL     1       7.817  -0.565  -2.216  1.00  0.00     0.008 A 
ATOM      8  C   UNL     1       7.926  -1.482  -0.039  1.00  0.00     0.054 A 
ATOM      9  C   UNL     1       8.271  -1.760  -2.767  1.00  0.00     0.051 A 
ATOM     10  C   UNL     1       8.382  -2.691  -0.561  1.00  0.00     0.166 A 
ATOM     11  C   UNL     1       8.551  -2.819  -1.924  1.00  0.00     0.165 A 
ATOM     12  O   UNL     1       8.744  -3.915  -0.001  1.00  0.00    -0.454 OA
ATOM     13  O   UNL     1       9.008  -4.105  -2.173  1.00  0.00    -0.454 OA
ATOM     14  C   UNL     1       8.877  -4.897  -0.996  1.00  0.00     0.468 C 
ENDBRANCH   5   6
ENDBRANCH   1   5
TORSDOF 3
ENDMDL
