MODEL 1
REMARK VINA RESULT:      -7.5      0.000      0.000
REMARK SMILES CC(=O)CCc1ccc2c(c1)OCO2
REMARK SMILES IDX 4 1 2 2 1 3 3 4 5 5 6 6 7 7 11 8 8 9 10 10 9 11 12 12 14 13
REMARK SMILES IDX 13 14
REMARK H PARENT
REMARK Flexibility Score: inf
ROOT
ATOM      1  C   UNL     1       5.624   1.811   1.355  1.00  0.00     0.080 C 
ENDROOT
BRANCH   1   2
ATOM      2  C   UNL     1       5.139   0.618   2.077  1.00  0.00     0.130 C 
ATOM      3  C   UNL     1       6.046  -0.535   2.254  1.00  0.00     0.087 C 
ATOM      4  O   UNL     1       4.012   0.608   2.506  1.00  0.00    -0.300 OA
ENDBRANCH   1   2
BRANCH   1   5
ATOM      5  C   UNL     1       5.436   1.663  -0.140  1.00  0.00     0.043 C 
BRANCH   5   6
ATOM      6  C   UNL     1       6.568   0.943  -0.732  1.00  0.00    -0.044 A 
ATOM      7  C   UNL     1       7.854   1.413  -0.569  1.00  0.00     0.008 A 
ATOM      8  C   UNL     1       6.394  -0.216  -1.468  1.00  0.00     0.054 A 
ATOM      9  C   UNL     1       8.956   0.760  -1.116  1.00  0.00     0.051 A 
ATOM     10  C   UNL     1       7.476  -0.891  -2.027  1.00  0.00     0.166 A 
ATOM     11  C   UNL     1       8.751  -0.396  -1.845  1.00  0.00     0.165 A 
ATOM     12  O   UNL     1       7.607  -2.049  -2.794  1.00  0.00    -0.454 OA
ATOM     13  O   UNL     1       9.631  -1.248  -2.497  1.00  0.00    -0.454 OA
ATOM     14  C   UNL     1       8.902  -2.146  -3.328  1.00  0.00     0.468 C 
ENDBRANCH   5   6
ENDBRANCH   1   5
TORSDOF 3
ENDMDL
MODEL 2
REMARK VINA RESULT:      -7.4      1.845      2.282
REMARK SMILES CC(=O)CCc1ccc2c(c1)OCO2
REMARK SMILES IDX 4 1 2 2 1 3 3 4 5 5 6 6 7 7 11 8 8 9 10 10 9 11 12 12 14 13
REMARK SMILES IDX 13 14
REMARK H PARENT
REMARK Flexibility Score: inf
ROOT
ATOM      1  C   UNL     1       5.620   1.289  -0.267  1.00  0.00     0.080 C 
ENDROOT
BRANCH   1   2
ATOM      2  C   UNL     1       5.026   1.252   1.085  1.00  0.00     0.130 C 
ATOM      3  C   UNL     1       5.345   0.122   1.981  1.00  0.00     0.087 C 
ATOM      4  O   UNL     1       4.294   2.146   1.429  1.00  0.00    -0.300 OA
ENDBRANCH   1   2
BRANCH   1   5
ATOM      5  C   UNL     1       7.128   1.159  -0.209  1.00  0.00     0.043 C 
BRANCH   5   6
ATOM      6  C   UNL     1       7.559  -0.112  -0.798  1.00  0.00    -0.044 A 
ATOM      7  C   UNL     1       7.589  -0.270  -2.168  1.00  0.00     0.008 A 
ATOM      8  C   UNL     1       7.945  -1.187  -0.017  1.00  0.00     0.054 A 
ATOM      9  C   UNL     1       7.991  -1.460  -2.767  1.00  0.00     0.051 A 
ATOM     10  C   UNL     1       8.353  -2.391  -0.588  1.00  0.00     0.166 A 
ATOM     11  C   UNL     1       8.372  -2.517  -1.961  1.00  0.00     0.165 A 
ATOM     12  O   UNL     1       8.785  -3.612  -0.073  1.00  0.00    -0.454 OA
ATOM     13  O   UNL     1       8.811  -3.798  -2.261  1.00  0.00    -0.454 OA
ATOM     14  C   UNL     1       8.818  -4.592  -1.078  1.00  0.00     0.468 C 
ENDBRANCH   5   6
ENDBRANCH   1   5
TORSDOF 3
ENDMDL
MODEL 3
REMARK VINA RESULT:      -7.3      2.053      2.629
REMARK SMILES CC(=O)CCc1ccc2c(c1)OCO2
REMARK SMILES IDX 4 1 2 2 1 3 3 4 5 5 6 6 7 7 11 8 8 9 10 10 9 11 12 12 14 13
REMARK SMILES IDX 13 14
REMARK H PARENT
REMARK Flexibility Score: inf
ROOT
ATOM      1  C   UNL     1       5.365  -0.044   1.966  1.00  0.00     0.080 C 
ENDROOT
BRANCH   1   2
ATOM      2  C   UNL     1       4.543   1.164   1.758  1.00  0.00     0.130 C 
ATOM      3  C   UNL     1       4.926   2.124   0.703  1.00  0.00     0.087 C 
ATOM      4  O   UNL     1       3.574   1.342   2.454  1.00  0.00    -0.300 OA
ENDBRANCH   1   2
BRANCH   1   5
ATOM      5  C   UNL     1       6.815   0.211   1.609  1.00  0.00     0.043 C 
BRANCH   5   6
ATOM      6  C   UNL     1       7.276  -0.754   0.606  1.00  0.00    -0.044 A 
ATOM      7  C   UNL     1       7.098  -0.499  -0.738  1.00  0.00     0.008 A 
ATOM      8  C   UNL     1       7.897  -1.939   0.960  1.00  0.00     0.054 A 
ATOM      9  C   UNL     1       7.520  -1.389  -1.722  1.00  0.00     0.051 A 
ATOM     10  C   UNL     1       8.330  -2.848  -0.002  1.00  0.00     0.166 A 
ATOM     11  C   UNL     1       8.137  -2.564  -1.338  1.00  0.00     0.165 A 
ATOM     12  O   UNL     1       8.968  -4.087   0.051  1.00  0.00    -0.454 OA
ATOM     13  O   UNL     1       8.654  -3.622  -2.073  1.00  0.00    -0.454 OA
ATOM     14  C   UNL     1       8.939  -4.715  -1.205  1.00  0.00     0.468 C 
ENDBRANCH   5   6
ENDBRANCH   1   5
TORSDOF 3
ENDMDL
MODEL 4
REMARK VINA RESULT:      -7.1      1.284      1.473
REMARK SMILES CC(=O)CCc1ccc2c(c1)OCO2
REMARK SMILES IDX 4 1 2 2 1 3 3 4 5 5 6 6 7 7 11 8 8 9 10 10 9 11 12 12 14 13
REMARK SMILES IDX 13 14
REMARK H PARENT
REMARK Flexibility Score: inf
ROOT
ATOM      1  C   UNL     1       6.327   1.231   1.012  1.00  0.00     0.080 C 
ENDROOT
BRANCH   1   2
ATOM      2  C   UNL     1       5.621   0.393   2.002  1.00  0.00     0.130 C 
ATOM      3  C   UNL     1       6.312  -0.778   2.578  1.00  0.00     0.087 C 
ATOM      4  O   UNL     1       4.494   0.683   2.321  1.00  0.00    -0.300 OA
ENDBRANCH   1   2
BRANCH   1   5
ATOM      5  C   UNL     1       5.828   0.960  -0.392  1.00  0.00     0.043 C 
BRANCH   5   6
ATOM      6  C   UNL     1       6.749   0.067  -1.102  1.00  0.00    -0.044 A 
ATOM      7  C   UNL     1       7.332   0.467  -2.286  1.00  0.00     0.008 A 
ATOM      8  C   UNL     1       7.065  -1.192  -0.622  1.00  0.00     0.054 A 
ATOM      9  C   UNL     1       8.211  -0.351  -2.992  1.00  0.00     0.051 A 
ATOM     10  C   UNL     1       7.941  -2.032  -1.305  1.00  0.00     0.166 A 
ATOM     11  C   UNL     1       8.508  -1.603  -2.487  1.00  0.00     0.165 A 
ATOM     12  O   UNL     1       8.434  -3.316  -1.073  1.00  0.00    -0.454 OA
ATOM     13  O   UNL     1       9.329  -2.619  -2.955  1.00  0.00    -0.454 OA
ATOM     14  C   UNL     1       9.084  -3.812  -2.215  1.00  0.00     0.468 C 
ENDBRANCH   5   6
ENDBRANCH   1   5
TORSDOF 3
ENDMDL
MODEL 5
REMARK VINA RESULT:      -7.1      1.945      2.490
REMARK SMILES CC(=O)CCc1ccc2c(c1)OCO2
REMARK SMILES IDX 4 1 2 2 1 3 3 4 5 5 6 6 7 7 11 8 8 9 10 10 9 11 12 12 14 13
REMARK SMILES IDX 13 14
REMARK H PARENT
REMARK Flexibility Score: inf
ROOT
ATOM      1  C   UNL     1       6.752   0.857   1.235  1.00  0.00     0.080 C 
ENDROOT
BRANCH   1   2
ATOM      2  C   UNL     1       5.310   1.112   1.419  1.00  0.00     0.130 C 
ATOM      3  C   UNL     1       4.634   2.092   0.546  1.00  0.00     0.087 C 
ATOM      4  O   UNL     1       4.712   0.513   2.279  1.00  0.00    -0.300 OA
ENDBRANCH   1   2
BRANCH   1   5
ATOM      5  C   UNL     1       7.156   1.012  -0.217  1.00  0.00     0.043 C 
BRANCH   5   6
ATOM      6  C   UNL     1       7.598  -0.273  -0.769  1.00  0.00    -0.044 A 
ATOM      7  C   UNL     1       7.684  -0.452  -2.134  1.00  0.00     0.008 A 
ATOM      8  C   UNL     1       7.941  -1.339   0.044  1.00  0.00     0.054 A 
ATOM      9  C   UNL     1       8.098  -1.656  -2.697  1.00  0.00     0.051 A 
ATOM     10  C   UNL     1       8.359  -2.555  -0.491  1.00  0.00     0.166 A 
ATOM     11  C   UNL     1       8.434  -2.703  -1.861  1.00  0.00     0.165 A 
ATOM     12  O   UNL     1       8.758  -3.773   0.060  1.00  0.00    -0.454 OA
ATOM     13  O   UNL     1       8.872  -3.994  -2.123  1.00  0.00    -0.454 OA
ATOM     14  C   UNL     1       8.821  -4.769  -0.928  1.00  0.00     0.468 C 
ENDBRANCH   5   6
ENDBRANCH   1   5
TORSDOF 3
ENDMDL
