@<TRIPOS>MOLECULE
/home/cewinharhar/GITHUB/reincatalyze/data/processed/docking_pred/2023-May-31-1603_sub9_nm5_bs15_s42_ex16_mel10_mts1000_k50_ec05_g099_lra3e-4_lrc9e-3/ca2511eb0ea692a115cf18c67ef7ccdfaa736476_ligand_9.pdbqt
 14 15 0 0 0
SMALL
GASTEIGER

@<TRIPOS>ATOM
      1  C          5.6160    1.7850    1.4350 C.3     1  UNL1        0.0800
      2  C          5.1080    0.5600    2.0840 C.2     1  UNL1        0.1300
      3  C          6.0070   -0.6030    2.2340 C.3     1  UNL1        0.0870
      4  O          3.9690    0.5330    2.4790 O.2     1  UNL1       -0.3000
      5  C          5.4370    1.7240   -0.0680 C.3     1  UNL1        0.0430
      6  C          6.5440    0.9910   -0.6890 C.2     1  UNL1       -0.0440
      7  C          7.8410    1.4420   -0.5530 C.2     1  UNL1        0.0080
      8  C          6.3370   -0.1620   -1.4250 C.2     1  UNL1        0.0540
      9  C          8.9200    0.7760   -1.1280 C.2     1  UNL1        0.0510
     10  C          7.3970   -0.8500   -2.0120 C.2     1  UNL1        0.1660
     11  C          8.6820   -0.3740   -1.8580 C.2     1  UNL1        0.1650
     12  O          7.4940   -2.0060   -2.7870 O.2     1  UNL1       -0.4540
     13  O          9.5350   -1.2350   -2.5330 O.2     1  UNL1       -0.4540
     14  C          8.7750   -2.1190   -3.3510 C.3     1  UNL1        0.4680
@<TRIPOS>BOND
     1    14    12    1
     2    14    13    1
     3    12    10    1
     4    13    11    1
     5    10    11    2
     6    10     8    1
     7    11     9    1
     8     8     6    2
     9     9     7    2
    10     6     7    1
    11     6     5    1
    12     5     1    1
    13     1     2    1
    14     2     3    1
    15     2     4    2
