MODEL 1
REMARK VINA RESULT:      -7.5      0.000      0.000
REMARK SMILES CC(=O)CCc1ccc2c(c1)OCO2
REMARK SMILES IDX 4 1 2 2 1 3 3 4 5 5 6 6 7 7 11 8 8 9 10 10 9 11 12 12 14 13
REMARK SMILES IDX 13 14
REMARK H PARENT
REMARK Flexibility Score: inf
ROOT
ATOM      1  C   UNL     1       5.616   1.785   1.435  1.00  0.00     0.080 C 
ENDROOT
BRANCH   1   2
ATOM      2  C   UNL     1       5.108   0.560   2.084  1.00  0.00     0.130 C 
ATOM      3  C   UNL     1       6.007  -0.603   2.234  1.00  0.00     0.087 C 
ATOM      4  O   UNL     1       3.969   0.533   2.479  1.00  0.00    -0.300 OA
ENDBRANCH   1   2
BRANCH   1   5
ATOM      5  C   UNL     1       5.437   1.724  -0.068  1.00  0.00     0.043 C 
BRANCH   5   6
ATOM      6  C   UNL     1       6.544   0.991  -0.689  1.00  0.00    -0.044 A 
ATOM      7  C   UNL     1       7.841   1.442  -0.553  1.00  0.00     0.008 A 
ATOM      8  C   UNL     1       6.337  -0.162  -1.425  1.00  0.00     0.054 A 
ATOM      9  C   UNL     1       8.920   0.776  -1.128  1.00  0.00     0.051 A 
ATOM     10  C   UNL     1       7.397  -0.850  -2.012  1.00  0.00     0.166 A 
ATOM     11  C   UNL     1       8.682  -0.374  -1.858  1.00  0.00     0.165 A 
ATOM     12  O   UNL     1       7.494  -2.006  -2.787  1.00  0.00    -0.454 OA
ATOM     13  O   UNL     1       9.535  -1.235  -2.533  1.00  0.00    -0.454 OA
ATOM     14  C   UNL     1       8.775  -2.119  -3.351  1.00  0.00     0.468 C 
ENDBRANCH   5   6
ENDBRANCH   1   5
TORSDOF 3
ENDMDL
MODEL 2
REMARK VINA RESULT:      -7.4      1.976      2.403
REMARK SMILES CC(=O)CCc1ccc2c(c1)OCO2
REMARK SMILES IDX 4 1 2 2 1 3 3 4 5 5 6 6 7 7 11 8 8 9 10 10 9 11 12 12 14 13
REMARK SMILES IDX 13 14
REMARK H PARENT
REMARK Flexibility Score: inf
ROOT
ATOM      1  C   UNL     1       5.661   1.270  -0.269  1.00  0.00     0.080 C 
ENDROOT
BRANCH   1   2
ATOM      2  C   UNL     1       5.005   1.236   1.053  1.00  0.00     0.130 C 
ATOM      3  C   UNL     1       5.270   0.102   1.961  1.00  0.00     0.087 C 
ATOM      4  O   UNL     1       4.264   2.136   1.365  1.00  0.00    -0.300 OA
ENDBRANCH   1   2
BRANCH   1   5
ATOM      5  C   UNL     1       7.160   1.096  -0.142  1.00  0.00     0.043 C 
BRANCH   5   6
ATOM      6  C   UNL     1       7.579  -0.191  -0.703  1.00  0.00    -0.044 A 
ATOM      7  C   UNL     1       7.596  -0.384  -2.069  1.00  0.00     0.008 A 
ATOM      8  C   UNL     1       7.968  -1.249   0.100  1.00  0.00     0.054 A 
ATOM      9  C   UNL     1       7.986  -1.591  -2.642  1.00  0.00     0.051 A 
ATOM     10  C   UNL     1       8.363  -2.469  -0.444  1.00  0.00     0.166 A 
ATOM     11  C   UNL     1       8.369  -2.629  -1.814  1.00  0.00     0.165 A 
ATOM     12  O   UNL     1       8.795  -3.679   0.098  1.00  0.00    -0.454 OA
ATOM     13  O   UNL     1       8.798  -3.920  -2.086  1.00  0.00    -0.454 OA
ATOM     14  C   UNL     1       8.812  -4.684  -0.883  1.00  0.00     0.468 C 
ENDBRANCH   5   6
ENDBRANCH   1   5
TORSDOF 3
ENDMDL
MODEL 3
REMARK VINA RESULT:      -7.3      2.124      2.691
REMARK SMILES CC(=O)CCc1ccc2c(c1)OCO2
REMARK SMILES IDX 4 1 2 2 1 3 3 4 5 5 6 6 7 7 11 8 8 9 10 10 9 11 12 12 14 13
REMARK SMILES IDX 13 14
REMARK H PARENT
REMARK Flexibility Score: inf
ROOT
ATOM      1  C   UNL     1       5.286  -0.158   1.832  1.00  0.00     0.080 C 
ENDROOT
BRANCH   1   2
ATOM      2  C   UNL     1       4.526   1.094   1.643  1.00  0.00     0.130 C 
ATOM      3  C   UNL     1       4.957   2.049   0.603  1.00  0.00     0.087 C 
ATOM      4  O   UNL     1       3.568   1.310   2.343  1.00  0.00    -0.300 OA
ENDBRANCH   1   2
BRANCH   1   5
ATOM      5  C   UNL     1       6.766   0.058   1.594  1.00  0.00     0.043 C 
BRANCH   5   6
ATOM      6  C   UNL     1       7.269  -0.883   0.589  1.00  0.00    -0.044 A 
ATOM      7  C   UNL     1       7.140  -0.601  -0.756  1.00  0.00     0.008 A 
ATOM      8  C   UNL     1       7.882  -2.072   0.941  1.00  0.00     0.054 A 
ATOM      9  C   UNL     1       7.603  -1.468  -1.742  1.00  0.00     0.051 A 
ATOM     10  C   UNL     1       8.356  -2.960  -0.023  1.00  0.00     0.166 A 
ATOM     11  C   UNL     1       8.211  -2.649  -1.359  1.00  0.00     0.165 A 
ATOM     12  O   UNL     1       8.998  -4.196   0.028  1.00  0.00    -0.454 OA
ATOM     13  O   UNL     1       8.761  -3.688  -2.096  1.00  0.00    -0.454 OA
ATOM     14  C   UNL     1       9.018  -4.798  -1.241  1.00  0.00     0.468 C 
ENDBRANCH   5   6
ENDBRANCH   1   5
TORSDOF 3
ENDMDL
MODEL 4
REMARK VINA RESULT:      -7.1      1.192      5.160
REMARK SMILES CC(=O)CCc1ccc2c(c1)OCO2
REMARK SMILES IDX 4 1 2 2 1 3 3 4 5 5 6 6 7 7 11 8 8 9 10 10 9 11 12 12 14 13
REMARK SMILES IDX 13 14
REMARK H PARENT
REMARK Flexibility Score: inf
ROOT
ATOM      1  C   UNL     1       8.231   0.174  -2.518  1.00  0.00     0.080 C 
ENDROOT
BRANCH   1   2
ATOM      2  C   UNL     1       7.869  -1.252  -2.643  1.00  0.00     0.130 C 
ATOM      3  C   UNL     1       8.915  -2.233  -2.995  1.00  0.00     0.087 C 
ATOM      4  O   UNL     1       6.725  -1.587  -2.455  1.00  0.00    -0.300 OA
ENDBRANCH   1   2
BRANCH   1   5
ATOM      5  C   UNL     1       8.783   0.481  -1.142  1.00  0.00     0.043 C 
BRANCH   5   6
ATOM      6  C   UNL     1       7.719   0.423  -0.135  1.00  0.00    -0.044 A 
ATOM      7  C   UNL     1       7.745  -0.542   0.850  1.00  0.00     0.008 A 
ATOM      8  C   UNL     1       6.664   1.318  -0.132  1.00  0.00     0.054 A 
ATOM      9  C   UNL     1       6.754  -0.632   1.824  1.00  0.00     0.051 A 
ATOM     10  C   UNL     1       5.658   1.253   0.829  1.00  0.00     0.166 A 
ATOM     11  C   UNL     1       5.712   0.276   1.801  1.00  0.00     0.165 A 
ATOM     12  O   UNL     1       4.504   1.995   1.079  1.00  0.00    -0.454 OA
ATOM     13  O   UNL     1       4.604   0.433   2.620  1.00  0.00    -0.454 OA
ATOM     14  C   UNL     1       3.688   1.344   2.019  1.00  0.00     0.468 C 
ENDBRANCH   5   6
ENDBRANCH   1   5
TORSDOF 3
ENDMDL
MODEL 5
REMARK VINA RESULT:      -7.0      1.238      1.426
REMARK SMILES CC(=O)CCc1ccc2c(c1)OCO2
REMARK SMILES IDX 4 1 2 2 1 3 3 4 5 5 6 6 7 7 11 8 8 9 10 10 9 11 12 12 14 13
REMARK SMILES IDX 13 14
REMARK H PARENT
REMARK Flexibility Score: inf
ROOT
ATOM      1  C   UNL     1       6.277   1.227   0.987  1.00  0.00     0.080 C 
ENDROOT
BRANCH   1   2
ATOM      2  C   UNL     1       5.573   0.387   1.977  1.00  0.00     0.130 C 
ATOM      3  C   UNL     1       6.260  -0.793   2.539  1.00  0.00     0.087 C 
ATOM      4  O   UNL     1       4.451   0.683   2.307  1.00  0.00    -0.300 OA
ENDBRANCH   1   2
BRANCH   1   5
ATOM      5  C   UNL     1       5.777   0.955  -0.417  1.00  0.00     0.043 C 
BRANCH   5   6
ATOM      6  C   UNL     1       6.718   0.095  -1.141  1.00  0.00    -0.044 A 
ATOM      7  C   UNL     1       7.357   0.560  -2.272  1.00  0.00     0.008 A 
ATOM      8  C   UNL     1       6.999  -1.195  -0.727  1.00  0.00     0.054 A 
ATOM      9  C   UNL     1       8.257  -0.225  -2.988  1.00  0.00     0.051 A 
ATOM     10  C   UNL     1       7.895  -2.003  -1.423  1.00  0.00     0.166 A 
ATOM     11  C   UNL     1       8.517  -1.510  -2.550  1.00  0.00     0.165 A 
ATOM     12  O   UNL     1       8.363  -3.305  -1.251  1.00  0.00    -0.454 OA
ATOM     13  O   UNL     1       9.347  -2.506  -3.045  1.00  0.00    -0.454 OA
ATOM     14  C   UNL     1       9.057  -3.739  -2.392  1.00  0.00     0.468 C 
ENDBRANCH   5   6
ENDBRANCH   1   5
TORSDOF 3
ENDMDL
